MODEL 1
REMARK VINA RESULT:    -8.118      0.000      0.000
REMARK INTER + INTRA:         -12.558
REMARK INTER:                 -11.440
REMARK INTRA:                  -1.118
REMARK UNBOUND:                -1.118
REMARK  Name = 
REMARK  7 active torsions:
REMARK  status: ('A' for Active; 'I' for Inactive)
REMARK    1  A    between atoms: C_2  and  C_19
REMARK    2  A    between atoms: N_3  and  C_4
REMARK    3  A    between atoms: C_4  and  C_5
REMARK    4  A    between atoms: C_8  and  C_9
REMARK    5  A    between atoms: C_9  and  N_10
REMARK    6  A    between atoms: N_10  and  C_11
REMARK    7  A    between atoms: C_11  and  C_12
REMARK                            x       y       z     vdW  Elec       q    Type
REMARK                         _______ _______ _______ _____ _____    ______ ____
ROOT
ATOM      1  C   UNL     1      46.804   8.065  12.674  0.00  0.00    +0.000 C 
ENDROOT
BRANCH   1   2
ATOM      2  C   UNL     1      45.963   6.901  12.191  0.00  0.00    +0.000 A 
ATOM      3  N   UNL     1      46.330   6.289  11.051  0.00  0.00    +0.000 NA
ATOM      4  C   UNL     1      45.574   5.245  10.657  0.00  0.00    +0.000 A 
ATOM      5  C   UNL     1      44.469   4.788  11.345  0.00  0.00    +0.000 A 
ATOM      6  C   UNL     1      44.139   5.530  12.459  0.00  0.00    +0.000 A 
ATOM      7  N   UNL     1      44.850   6.592  12.894  0.00  0.00    +0.000 NA
BRANCH   5   8
ATOM      8  C   UNL     1      43.715   3.562  10.923  0.00  0.00    +0.000 C 
BRANCH   8   9
ATOM      9  N   UNL     1      43.843   3.358   9.488  0.00  0.00    +0.000 NA
ATOM     10  H   UNL     1      44.474   4.060   9.087  0.00  0.00    +0.000 HD
BRANCH   9  11
ATOM     11  C   UNL     1      44.385   2.038   9.145  0.00  0.00    +0.000 C 
BRANCH  11  12
ATOM     12  C   UNL     1      45.858   2.183   8.729  0.00  0.00    +0.000 C 
ATOM     13  C   UNL     1      46.062   3.134   7.560  0.00  0.00    +0.000 C 
ATOM     14  C   UNL     1      47.303   2.574   6.911  0.00  0.00    +0.000 C 
ATOM     15  C   UNL     1      47.100   1.085   7.079  0.00  0.00    +0.000 C 
ATOM     16  O   UNL     1      46.371   0.900   8.300  0.00  0.00    +0.000 OA
ENDBRANCH  11  12
ENDBRANCH   9  11
ENDBRANCH   8   9
ENDBRANCH   5   8
ENDBRANCH   1   2
BRANCH   1  19
ATOM     17  O   UNL     1      49.004   6.356  13.255  0.00  0.00    +0.000 OA
ATOM     18  C   UNL     1      48.392   6.904  14.162  0.00  0.00    +0.000 C 
ATOM     19  N   UNL     1      47.370   7.799  13.976  0.00  0.00    +0.000 N 
ATOM     20  H   UNL     1      46.780   8.029  14.758  0.00  0.00    +0.000 HD
BRANCH  18  21
ATOM     21  C   UNL     1      48.525   6.525  15.562  0.00  0.00    +0.000 A 
ATOM     22  C   UNL     1      49.147   7.332  16.499  0.00  0.00    +0.000 A 
ATOM     23  S   UNL     1      49.594   6.449  17.900  0.00  0.00    +0.000 S 
ATOM     24  C   UNL     1      48.857   5.028  17.312  0.00  0.00    +0.000 A 
ATOM     25  N   UNL     1      48.970   3.829  17.945  0.00  0.00    +0.000 NA
ATOM     26  C   UNL     1      48.315   2.868  17.378  0.00  0.00    +0.000 A 
ATOM     27  N   UNL     1      47.520   3.002  16.267  0.00  0.00    +0.000 N 
ATOM     28  C   UNL     1      47.342   4.200  15.618  0.00  0.00    +0.000 A 
ATOM     29  O   UNL     1      46.541   4.332  14.700  0.00  0.00    +0.000 OA
ATOM     30  C   UNL     1      48.172   5.266  16.142  0.00  0.00    +0.000 A 
ATOM     31  H   UNL     1      46.964   2.232  15.927  0.00  0.00    +0.000 HD
ENDBRANCH  18  21
ENDBRANCH   1  19
TORSDOF 7
ENDMDL
MODEL 2
REMARK VINA RESULT:    -7.576      2.420      3.009
REMARK INTER + INTRA:         -11.794
REMARK INTER:                 -10.877
REMARK INTRA:                  -0.917
REMARK UNBOUND:                -1.118
REMARK  Name = 
REMARK  7 active torsions:
REMARK  status: ('A' for Active; 'I' for Inactive)
REMARK    1  A    between atoms: C_2  and  C_19
REMARK    2  A    between atoms: N_3  and  C_4
REMARK    3  A    between atoms: C_4  and  C_5
REMARK    4  A    between atoms: C_8  and  C_9
REMARK    5  A    between atoms: C_9  and  N_10
REMARK    6  A    between atoms: N_10  and  C_11
REMARK    7  A    between atoms: C_11  and  C_12
REMARK                            x       y       z     vdW  Elec       q    Type
REMARK                         _______ _______ _______ _____ _____    ______ ____
ROOT
ATOM      1  C   UNL     1      47.149   4.203  15.005  0.00  0.00    +0.000 C 
ENDROOT
BRANCH   1   2
ATOM      2  C   UNL     1      46.374   4.359  13.712  0.00  0.00    +0.000 A 
ATOM      3  N   UNL     1      45.898   3.246  13.125  0.00  0.00    +0.000 NA
ATOM      4  C   UNL     1      45.196   3.417  11.988  0.00  0.00    +0.000 A 
ATOM      5  C   UNL     1      44.951   4.645  11.408  0.00  0.00    +0.000 A 
ATOM      6  C   UNL     1      45.543   5.712  12.051  0.00  0.00    +0.000 A 
ATOM      7  N   UNL     1      46.268   5.600  13.184  0.00  0.00    +0.000 NA
BRANCH   5   8
ATOM      8  C   UNL     1      44.082   4.798  10.195  0.00  0.00    +0.000 C 
BRANCH   8   9
ATOM      9  N   UNL     1      44.899   4.877   8.994  0.00  0.00    +0.000 NA
ATOM     10  H   UNL     1      45.881   5.033   9.245  0.00  0.00    +0.000 HD
BRANCH   9  11
ATOM     11  C   UNL     1      44.843   3.655   8.184  0.00  0.00    +0.000 C 
BRANCH  11  12
ATOM     12  C   UNL     1      46.271   3.145   7.930  0.00  0.00    +0.000 C 
ATOM     13  C   UNL     1      46.689   3.230   6.470  0.00  0.00    +0.000 C 
ATOM     14  C   UNL     1      47.677   2.096   6.360  0.00  0.00    +0.000 C 
ATOM     15  C   UNL     1      47.052   1.047   7.253  0.00  0.00    +0.000 C 
ATOM     16  O   UNL     1      46.362   1.748   8.296  0.00  0.00    +0.000 OA
ENDBRANCH  11  12
ENDBRANCH   9  11
ENDBRANCH   8   9
ENDBRANCH   5   8
ENDBRANCH   1   2
BRANCH   1  19
ATOM     17  O   UNL     1      49.546   4.808  16.413  0.00  0.00    +0.000 OA
ATOM     18  C   UNL     1      48.683   5.663  16.269  0.00  0.00    +0.000 C 
ATOM     19  N   UNL     1      47.532   5.487  15.544  0.00  0.00    +0.000 N 
ATOM     20  H   UNL     1      46.783   6.149  15.657  0.00  0.00    +0.000 HD
BRANCH  18  21
ATOM     21  C   UNL     1      48.660   6.914  17.015  0.00  0.00    +0.000 A 
ATOM     22  C   UNL     1      49.266   8.070  16.555  0.00  0.00    +0.000 A 
ATOM     23  S   UNL     1      49.511   9.203  17.820  0.00  0.00    +0.000 S 
ATOM     24  C   UNL     1      48.707   8.209  18.948  0.00  0.00    +0.000 A 
ATOM     25  N   UNL     1      48.660   8.499  20.276  0.00  0.00    +0.000 NA
ATOM     26  C   UNL     1      47.976   7.653  20.978  0.00  0.00    +0.000 A 
ATOM     27  N   UNL     1      47.295   6.574  20.471  0.00  0.00    +0.000 N 
ATOM     28  C   UNL     1      47.279   6.265  19.132  0.00  0.00    +0.000 A 
ATOM     29  O   UNL     1      46.576   5.370  18.678  0.00  0.00    +0.000 OA
ATOM     30  C   UNL     1      48.150   7.108  18.337  0.00  0.00    +0.000 A 
ATOM     31  H   UNL     1      46.706   6.005  21.059  0.00  0.00    +0.000 HD
ENDBRANCH  18  21
ENDBRANCH   1  19
TORSDOF 7
ENDMDL
MODEL 3
REMARK VINA RESULT:    -7.276      1.862      3.484
REMARK INTER + INTRA:         -11.371
REMARK INTER:                 -10.579
REMARK INTRA:                  -0.791
REMARK UNBOUND:                -1.118
REMARK  Name = 
REMARK  7 active torsions:
REMARK  status: ('A' for Active; 'I' for Inactive)
REMARK    1  A    between atoms: C_2  and  C_19
REMARK    2  A    between atoms: N_3  and  C_4
REMARK    3  A    between atoms: C_4  and  C_5
REMARK    4  A    between atoms: C_8  and  C_9
REMARK    5  A    between atoms: C_9  and  N_10
REMARK    6  A    between atoms: N_10  and  C_11
REMARK    7  A    between atoms: C_11  and  C_12
REMARK                            x       y       z     vdW  Elec       q    Type
REMARK                         _______ _______ _______ _____ _____    ______ ____
ROOT
ATOM      1  C   UNL     1      46.788   4.379  14.906  0.00  0.00    +0.000 C 
ENDROOT
BRANCH   1   2
ATOM      2  C   UNL     1      46.065   4.411  13.575  0.00  0.00    +0.000 A 
ATOM      3  N   UNL     1      45.680   3.239  13.039  0.00  0.00    +0.000 NA
ATOM      4  C   UNL     1      45.022   3.301  11.865  0.00  0.00    +0.000 A 
ATOM      5  C   UNL     1      44.735   4.475  11.200  0.00  0.00    +0.000 A 
ATOM      6  C   UNL     1      45.237   5.611  11.799  0.00  0.00    +0.000 A 
ATOM      7  N   UNL     1      45.915   5.610  12.967  0.00  0.00    +0.000 NA
BRANCH   5   8
ATOM      8  C   UNL     1      43.915   4.504   9.944  0.00  0.00    +0.000 C 
BRANCH   8   9
ATOM      9  N   UNL     1      44.769   4.729   8.788  0.00  0.00    +0.000 NA
ATOM     10  H   UNL     1      45.730   4.918   9.090  0.00  0.00    +0.000 HD
BRANCH   9  11
ATOM     11  C   UNL     1      44.813   3.578   7.879  0.00  0.00    +0.000 C 
BRANCH  11  12
ATOM     12  C   UNL     1      46.270   3.112   7.717  0.00  0.00    +0.000 C 
ATOM     13  C   UNL     1      46.731   3.070   6.268  0.00  0.00    +0.000 C 
ATOM     14  C   UNL     1      47.770   1.978   6.300  0.00  0.00    +0.000 C 
ATOM     15  C   UNL     1      47.163   0.996   7.277  0.00  0.00    +0.000 C 
ATOM     16  O   UNL     1      46.410   1.765   8.224  0.00  0.00    +0.000 OA
ENDBRANCH  11  12
ENDBRANCH   9  11
ENDBRANCH   8   9
ENDBRANCH   5   8
ENDBRANCH   1   2
BRANCH   1  19
ATOM     17  O   UNL     1      48.947   4.698  16.731  0.00  0.00    +0.000 OA
ATOM     18  C   UNL     1      48.568   5.643  16.054  0.00  0.00    +0.000 C 
ATOM     19  N   UNL     1      47.587   5.566  15.098  0.00  0.00    +0.000 N 
ATOM     20  H   UNL     1      47.184   6.419  14.749  0.00  0.00    +0.000 HD
BRANCH  18  21
ATOM     21  C   UNL     1      48.957   7.023  16.313  0.00  0.00    +0.000 A 
ATOM     22  C   UNL     1      49.072   7.540  17.591  0.00  0.00    +0.000 A 
ATOM     23  S   UNL     1      49.049   9.255  17.585  0.00  0.00    +0.000 S 
ATOM     24  C   UNL     1      49.007   9.309  15.881  0.00  0.00    +0.000 A 
ATOM     25  N   UNL     1      48.841  10.467  15.189  0.00  0.00    +0.000 NA
ATOM     26  C   UNL     1      48.871  10.324  13.903  0.00  0.00    +0.000 A 
ATOM     27  N   UNL     1      49.100   9.141  13.245  0.00  0.00    +0.000 N 
ATOM     28  C   UNL     1      49.315   7.953  13.901  0.00  0.00    +0.000 A 
ATOM     29  O   UNL     1      49.633   6.929  13.308  0.00  0.00    +0.000 OA
ATOM     30  C   UNL     1      49.147   8.051  15.337  0.00  0.00    +0.000 A 
ATOM     31  H   UNL     1      49.202   9.113  12.242  0.00  0.00    +0.000 HD
ENDBRANCH  18  21
ENDBRANCH   1  19
TORSDOF 7
ENDMDL
MODEL 4
REMARK VINA RESULT:    -7.086      2.373      3.664
REMARK INTER + INTRA:         -11.103
REMARK INTER:                 -10.259
REMARK INTRA:                  -0.844
REMARK UNBOUND:                -1.118
REMARK  Name = 
REMARK  7 active torsions:
REMARK  status: ('A' for Active; 'I' for Inactive)
REMARK    1  A    between atoms: C_2  and  C_19
REMARK    2  A    between atoms: N_3  and  C_4
REMARK    3  A    between atoms: C_4  and  C_5
REMARK    4  A    between atoms: C_8  and  C_9
REMARK    5  A    between atoms: C_9  and  N_10
REMARK    6  A    between atoms: N_10  and  C_11
REMARK    7  A    between atoms: C_11  and  C_12
REMARK                            x       y       z     vdW  Elec       q    Type
REMARK                         _______ _______ _______ _____ _____    ______ ____
ROOT
ATOM      1  C   UNL     1      47.320   4.001  15.570  0.00  0.00    +0.000 C 
ENDROOT
BRANCH   1   2
ATOM      2  C   UNL     1      46.789   4.510  14.246  0.00  0.00    +0.000 A 
ATOM      3  N   UNL     1      45.726   3.884  13.711  0.00  0.00    +0.000 NA
ATOM      4  C   UNL     1      45.264   4.373  12.543  0.00  0.00    +0.000 A 
ATOM      5  C   UNL     1      45.815   5.452  11.884  0.00  0.00    +0.000 A 
ATOM      6  C   UNL     1      46.943   5.974  12.481  0.00  0.00    +0.000 A 
ATOM      7  N   UNL     1      47.459   5.518  13.643  0.00  0.00    +0.000 NA
BRANCH   5   8
ATOM      8  C   UNL     1      45.209   6.023  10.636  0.00  0.00    +0.000 C 
BRANCH   8   9
ATOM      9  N   UNL     1      45.563   5.209   9.483  0.00  0.00    +0.000 NA
ATOM     10  H   UNL     1      46.368   4.615   9.705  0.00  0.00    +0.000 HD
BRANCH   9  11
ATOM     11  C   UNL     1      44.473   4.326   9.052  0.00  0.00    +0.000 C 
BRANCH  11  12
ATOM     12  C   UNL     1      45.011   3.318   8.022  0.00  0.00    +0.000 C 
ATOM     13  C   UNL     1      45.637   2.085   8.657  0.00  0.00    +0.000 C 
ATOM     14  C   UNL     1      46.660   1.685   7.624  0.00  0.00    +0.000 C 
ATOM     15  C   UNL     1      47.156   3.028   7.137  0.00  0.00    +0.000 C 
ATOM     16  O   UNL     1      46.052   3.938   7.232  0.00  0.00    +0.000 OA
ENDBRANCH  11  12
ENDBRANCH   9  11
ENDBRANCH   8   9
ENDBRANCH   5   8
ENDBRANCH   1   2
BRANCH   1  19
ATOM     17  O   UNL     1      49.798   4.223  16.951  0.00  0.00    +0.000 OA
ATOM     18  C   UNL     1      48.931   5.073  17.100  0.00  0.00    +0.000 C 
ATOM     19  N   UNL     1      47.738   5.089  16.422  0.00  0.00    +0.000 N 
ATOM     20  H   UNL     1      46.999   5.684  16.757  0.00  0.00    +0.000 HD
BRANCH  18  21
ATOM     21  C   UNL     1      48.956   6.067  18.164  0.00  0.00    +0.000 A 
ATOM     22  C   UNL     1      49.096   5.730  19.498  0.00  0.00    +0.000 A 
ATOM     23  S   UNL     1      48.599   7.007  20.531  0.00  0.00    +0.000 S 
ATOM     24  C   UNL     1      48.313   8.044  19.208  0.00  0.00    +0.000 A 
ATOM     25  N   UNL     1      47.740   9.270  19.351  0.00  0.00    +0.000 NA
ATOM     26  C   UNL     1      47.633   9.935  18.246  0.00  0.00    +0.000 A 
ATOM     27  N   UNL     1      48.088   9.511  17.022  0.00  0.00    +0.000 N 
ATOM     28  C   UNL     1      48.711   8.300  16.836  0.00  0.00    +0.000 A 
ATOM     29  O   UNL     1      49.215   7.983  15.766  0.00  0.00    +0.000 OA
ATOM     30  C   UNL     1      48.719   7.470  18.025  0.00  0.00    +0.000 A 
ATOM     31  H   UNL     1      48.056  10.116  16.215  0.00  0.00    +0.000 HD
ENDBRANCH  18  21
ENDBRANCH   1  19
TORSDOF 7
ENDMDL
MODEL 5
REMARK VINA RESULT:    -6.967      2.398      3.286
REMARK INTER + INTRA:         -10.936
REMARK INTER:                 -10.243
REMARK INTRA:                  -0.694
REMARK UNBOUND:                -1.118
REMARK  Name = 
REMARK  7 active torsions:
REMARK  status: ('A' for Active; 'I' for Inactive)
REMARK    1  A    between atoms: C_2  and  C_19
REMARK    2  A    between atoms: N_3  and  C_4
REMARK    3  A    between atoms: C_4  and  C_5
REMARK    4  A    between atoms: C_8  and  C_9
REMARK    5  A    between atoms: C_9  and  N_10
REMARK    6  A    between atoms: N_10  and  C_11
REMARK    7  A    between atoms: C_11  and  C_12
REMARK                            x       y       z     vdW  Elec       q    Type
REMARK                         _______ _______ _______ _____ _____    ______ ____
ROOT
ATOM      1  C   UNL     1      47.025   4.681  14.984  0.00  0.00    +0.000 C 
ENDROOT
BRANCH   1   2
ATOM      2  C   UNL     1      46.164   4.508  13.749  0.00  0.00    +0.000 A 
ATOM      3  N   UNL     1      46.201   3.322  13.116  0.00  0.00    +0.000 NA
ATOM      4  C   UNL     1      45.409   3.192  12.033  0.00  0.00    +0.000 A 
ATOM      5  C   UNL     1      44.588   4.191  11.551  0.00  0.00    +0.000 A 
ATOM      6  C   UNL     1      44.680   5.387  12.230  0.00  0.00    +0.000 A 
ATOM      7  N   UNL     1      45.464   5.580  13.313  0.00  0.00    +0.000 NA
BRANCH   5   8
ATOM      8  C   UNL     1      43.651   3.970  10.401  0.00  0.00    +0.000 C 
BRANCH   8   9
ATOM      9  N   UNL     1      44.218   4.510   9.175  0.00  0.00    +0.000 NA
ATOM     10  H   UNL     1      45.128   4.941   9.368  0.00  0.00    +0.000 HD
BRANCH   9  11
ATOM     11  C   UNL     1      44.427   3.487   8.144  0.00  0.00    +0.000 C 
BRANCH  11  12
ATOM     12  C   UNL     1      45.901   3.048   8.152  0.00  0.00    +0.000 C 
ATOM     13  C   UNL     1      46.583   3.203   6.801  0.00  0.00    +0.000 C 
ATOM     14  C   UNL     1      47.628   2.117   6.850  0.00  0.00    +0.000 C 
ATOM     15  C   UNL     1      46.897   1.012   7.579  0.00  0.00    +0.000 C 
ATOM     16  O   UNL     1      45.990   1.645   8.490  0.00  0.00    +0.000 OA
ENDBRANCH  11  12
ENDBRANCH   9  11
ENDBRANCH   8   9
ENDBRANCH   5   8
ENDBRANCH   1   2
BRANCH   1  19
ATOM     17  O   UNL     1      48.800   5.881  13.112  0.00  0.00    +0.000 OA
ATOM     18  C   UNL     1      48.485   6.477  14.133  0.00  0.00    +0.000 C 
ATOM     19  N   UNL     1      47.581   6.011  15.053  0.00  0.00    +0.000 N 
ATOM     20  H   UNL     1      47.545   6.448  15.959  0.00  0.00    +0.000 HD
BRANCH  18  21
ATOM     21  C   UNL     1      49.178   7.664  14.615  0.00  0.00    +0.000 A 
ATOM     22  C   UNL     1      48.817   8.945  14.237  0.00  0.00    +0.000 A 
ATOM     23  S   UNL     1      50.074  10.073  14.540  0.00  0.00    +0.000 S 
ATOM     24  C   UNL     1      51.046   8.883  15.280  0.00  0.00    +0.000 A 
ATOM     25  N   UNL     1      52.329   9.120  15.662  0.00  0.00    +0.000 NA
ATOM     26  C   UNL     1      52.902   8.114  16.241  0.00  0.00    +0.000 A 
ATOM     27  N   UNL     1      52.299   6.912  16.515  0.00  0.00    +0.000 N 
ATOM     28  C   UNL     1      50.992   6.640  16.186  0.00  0.00    +0.000 A 
ATOM     29  O   UNL     1      50.431   5.610  16.539  0.00  0.00    +0.000 OA
ATOM     30  C   UNL     1      50.365   7.693  15.411  0.00  0.00    +0.000 A 
ATOM     31  H   UNL     1      52.773   6.200  17.050  0.00  0.00    +0.000 HD
ENDBRANCH  18  21
ENDBRANCH   1  19
TORSDOF 7
ENDMDL
MODEL 6
REMARK VINA RESULT:    -6.771      3.239      8.191
REMARK INTER + INTRA:         -10.660
REMARK INTER:                  -9.854
REMARK INTRA:                  -0.807
REMARK UNBOUND:                -1.118
REMARK  Name = 
REMARK  7 active torsions:
REMARK  status: ('A' for Active; 'I' for Inactive)
REMARK    1  A    between atoms: C_2  and  C_19
REMARK    2  A    between atoms: N_3  and  C_4
REMARK    3  A    between atoms: C_4  and  C_5
REMARK    4  A    between atoms: C_8  and  C_9
REMARK    5  A    between atoms: C_9  and  N_10
REMARK    6  A    between atoms: N_10  and  C_11
REMARK    7  A    between atoms: C_11  and  C_12
REMARK                            x       y       z     vdW  Elec       q    Type
REMARK                         _______ _______ _______ _____ _____    ______ ____
ROOT
ATOM      1  C   UNL     1      47.670   6.454  13.205  0.00  0.00    +0.000 C 
ENDROOT
BRANCH   1   2
ATOM      2  C   UNL     1      47.876   5.895  14.599  0.00  0.00    +0.000 A 
ATOM      3  N   UNL     1      48.564   6.642  15.481  0.00  0.00    +0.000 NA
ATOM      4  C   UNL     1      48.713   6.127  16.718  0.00  0.00    +0.000 A 
ATOM      5  C   UNL     1      48.214   4.903  17.112  0.00  0.00    +0.000 A 
ATOM      6  C   UNL     1      47.589   4.189  16.111  0.00  0.00    +0.000 A 
ATOM      7  N   UNL     1      47.421   4.647  14.852  0.00  0.00    +0.000 NA
BRANCH   5   8
ATOM      8  C   UNL     1      48.319   4.414  18.526  0.00  0.00    +0.000 C 
BRANCH   8   9
ATOM      9  N   UNL     1      49.415   3.465  18.652  0.00  0.00    +0.000 NA
ATOM     10  H   UNL     1      49.372   2.774  17.896  0.00  0.00    +0.000 HD
BRANCH   9  11
ATOM     11  C   UNL     1      50.734   4.105  18.586  0.00  0.00    +0.000 C 
BRANCH  11  12
ATOM     12  C   UNL     1      51.681   3.236  17.742  0.00  0.00    +0.000 C 
ATOM     13  C   UNL     1      51.131   1.846  17.460  0.00  0.00    +0.000 C 
ATOM     14  C   UNL     1      52.393   1.030  17.325  0.00  0.00    +0.000 C 
ATOM     15  C   UNL     1      53.283   1.654  18.375  0.00  0.00    +0.000 C 
ATOM     16  O   UNL     1      52.926   3.041  18.452  0.00  0.00    +0.000 OA
ENDBRANCH  11  12
ENDBRANCH   9  11
ENDBRANCH   8   9
ENDBRANCH   5   8
ENDBRANCH   1   2
BRANCH   1  19
ATOM     17  O   UNL     1      45.403   7.225  11.669  0.00  0.00    +0.000 OA
ATOM     18  C   UNL     1      45.716   6.045  11.757  0.00  0.00    +0.000 C 
ATOM     19  N   UNL     1      46.831   5.587  12.412  0.00  0.00    +0.000 N 
ATOM     20  H   UNL     1      46.896   4.607  12.627  0.00  0.00    +0.000 HD
BRANCH  18  21
ATOM     21  C   UNL     1      44.841   4.951  11.358  0.00  0.00    +0.000 A 
ATOM     22  C   UNL     1      43.863   4.435  12.190  0.00  0.00    +0.000 A 
ATOM     23  S   UNL     1      43.348   2.882  11.674  0.00  0.00    +0.000 S 
ATOM     24  C   UNL     1      44.334   2.950  10.285  0.00  0.00    +0.000 A 
ATOM     25  N   UNL     1      44.492   1.891   9.447  0.00  0.00    +0.000 NA
ATOM     26  C   UNL     1      45.247   2.133   8.424  0.00  0.00    +0.000 A 
ATOM     27  N   UNL     1      45.818   3.348   8.135  0.00  0.00    +0.000 N 
ATOM     28  C   UNL     1      45.652   4.458   8.928  0.00  0.00    +0.000 A 
ATOM     29  O   UNL     1      46.069   5.562   8.600  0.00  0.00    +0.000 OA
ATOM     30  C   UNL     1      44.931   4.184  10.155  0.00  0.00    +0.000 A 
ATOM     31  H   UNL     1      46.321   3.496   7.273  0.00  0.00    +0.000 HD
ENDBRANCH  18  21
ENDBRANCH   1  19
TORSDOF 7
ENDMDL
MODEL 7
REMARK VINA RESULT:    -6.731      3.207      7.603
REMARK INTER + INTRA:         -10.604
REMARK INTER:                  -9.325
REMARK INTRA:                  -1.278
REMARK UNBOUND:                -1.118
REMARK  Name = 
REMARK  7 active torsions:
REMARK  status: ('A' for Active; 'I' for Inactive)
REMARK    1  A    between atoms: C_2  and  C_19
REMARK    2  A    between atoms: N_3  and  C_4
REMARK    3  A    between atoms: C_4  and  C_5
REMARK    4  A    between atoms: C_8  and  C_9
REMARK    5  A    between atoms: C_9  and  N_10
REMARK    6  A    between atoms: N_10  and  C_11
REMARK    7  A    between atoms: C_11  and  C_12
REMARK                            x       y       z     vdW  Elec       q    Type
REMARK                         _______ _______ _______ _____ _____    ______ ____
ROOT
ATOM      1  C   UNL     1      47.414   8.343  12.634  0.00  0.00    +0.000 C 
ENDROOT
BRANCH   1   2
ATOM      2  C   UNL     1      48.396   7.834  13.670  0.00  0.00    +0.000 A 
ATOM      3  N   UNL     1      49.576   8.469  13.784  0.00  0.00    +0.000 NA
ATOM      4  C   UNL     1      50.420   8.007  14.727  0.00  0.00    +0.000 A 
ATOM      5  C   UNL     1      50.143   6.940  15.557  0.00  0.00    +0.000 A 
ATOM      6  C   UNL     1      48.938   6.317  15.308  0.00  0.00    +0.000 A 
ATOM      7  N   UNL     1      48.059   6.727  14.369  0.00  0.00    +0.000 NA
BRANCH   5   8
ATOM      8  C   UNL     1      51.071   6.521  16.658  0.00  0.00    +0.000 C 
BRANCH   8   9
ATOM      9  N   UNL     1      50.823   5.136  17.029  0.00  0.00    +0.000 NA
ATOM     10  H   UNL     1      51.659   4.569  16.852  0.00  0.00    +0.000 HD
BRANCH   9  11
ATOM     11  C   UNL     1      50.479   4.978  18.447  0.00  0.00    +0.000 C 
BRANCH  11  12
ATOM     12  C   UNL     1      49.209   4.118  18.571  0.00  0.00    +0.000 C 
ATOM     13  C   UNL     1      49.061   3.100  17.451  0.00  0.00    +0.000 C 
ATOM     14  C   UNL     1      47.563   2.951  17.357  0.00  0.00    +0.000 C 
ATOM     15  C   UNL     1      47.092   4.366  17.610  0.00  0.00    +0.000 C 
ATOM     16  O   UNL     1      48.039   4.966  18.503  0.00  0.00    +0.000 OA
ENDBRANCH  11  12
ENDBRANCH   9  11
ENDBRANCH   8   9
ENDBRANCH   5   8
ENDBRANCH   1   2
BRANCH   1  19
ATOM     17  O   UNL     1      44.795   7.798  11.664  0.00  0.00    +0.000 OA
ATOM     18  C   UNL     1      45.730   7.072  11.355  0.00  0.00    +0.000 C 
ATOM     19  N   UNL     1      47.035   7.297  11.712  0.00  0.00    +0.000 N 
ATOM     20  H   UNL     1      47.700   6.549  11.611  0.00  0.00    +0.000 HD
BRANCH  18  21
ATOM     21  C   UNL     1      45.560   5.762  10.742  0.00  0.00    +0.000 A 
ATOM     22  C   UNL     1      45.841   5.518   9.410  0.00  0.00    +0.000 A 
ATOM     23  S   UNL     1      45.094   4.075   8.858  0.00  0.00    +0.000 S 
ATOM     24  C   UNL     1      44.501   3.716  10.416  0.00  0.00    +0.000 A 
ATOM     25  N   UNL     1      43.652   2.681  10.655  0.00  0.00    +0.000 NA
ATOM     26  C   UNL     1      43.334   2.535  11.901  0.00  0.00    +0.000 A 
ATOM     27  N   UNL     1      43.821   3.295  12.934  0.00  0.00    +0.000 N 
ATOM     28  C   UNL     1      44.713   4.324  12.748  0.00  0.00    +0.000 A 
ATOM     29  O   UNL     1      45.229   4.918  13.686  0.00  0.00    +0.000 OA
ATOM     30  C   UNL     1      44.980   4.606  11.352  0.00  0.00    +0.000 A 
ATOM     31  H   UNL     1      43.604   3.072  13.894  0.00  0.00    +0.000 HD
ENDBRANCH  18  21
ENDBRANCH   1  19
TORSDOF 7
ENDMDL
MODEL 8
REMARK VINA RESULT:    -6.638      2.326      3.016
REMARK INTER + INTRA:         -10.473
REMARK INTER:                  -9.613
REMARK INTRA:                  -0.860
REMARK UNBOUND:                -1.118
REMARK  Name = 
REMARK  7 active torsions:
REMARK  status: ('A' for Active; 'I' for Inactive)
REMARK    1  A    between atoms: C_2  and  C_19
REMARK    2  A    between atoms: N_3  and  C_4
REMARK    3  A    between atoms: C_4  and  C_5
REMARK    4  A    between atoms: C_8  and  C_9
REMARK    5  A    between atoms: C_9  and  N_10
REMARK    6  A    between atoms: N_10  and  C_11
REMARK    7  A    between atoms: C_11  and  C_12
REMARK                            x       y       z     vdW  Elec       q    Type
REMARK                         _______ _______ _______ _____ _____    ______ ____
ROOT
ATOM      1  C   UNL     1      49.241   7.283  14.946  0.00  0.00    +0.000 C 
ENDROOT
BRANCH   1   2
ATOM      2  C   UNL     1      48.040   6.815  14.151  0.00  0.00    +0.000 A 
ATOM      3  N   UNL     1      47.284   7.747  13.544  0.00  0.00    +0.000 NA
ATOM      4  C   UNL     1      46.234   7.298  12.827  0.00  0.00    +0.000 A 
ATOM      5  C   UNL     1      45.902   5.966  12.693  0.00  0.00    +0.000 A 
ATOM      6  C   UNL     1      46.699   5.101  13.413  0.00  0.00    +0.000 A 
ATOM      7  N   UNL     1      47.755   5.493  14.158  0.00  0.00    +0.000 NA
BRANCH   5   8
ATOM      8  C   UNL     1      44.784   5.506  11.806  0.00  0.00    +0.000 C 
BRANCH   8   9
ATOM      9  N   UNL     1      45.305   4.706  10.709  0.00  0.00    +0.000 NA
ATOM     10  H   UNL     1      46.125   4.174  11.018  0.00  0.00    +0.000 HD
BRANCH   9  11
ATOM     11  C   UNL     1      44.328   3.741  10.191  0.00  0.00    +0.000 C 
BRANCH  11  12
ATOM     12  C   UNL     1      44.709   3.350   8.753  0.00  0.00    +0.000 C 
ATOM     13  C   UNL     1      45.636   2.147   8.683  0.00  0.00    +0.000 C 
ATOM     14  C   UNL     1      46.400   2.413   7.410  0.00  0.00    +0.000 C 
ATOM     15  C   UNL     1      46.569   3.915   7.454  0.00  0.00    +0.000 C 
ATOM     16  O   UNL     1      45.417   4.443   8.123  0.00  0.00    +0.000 OA
ENDBRANCH  11  12
ENDBRANCH   9  11
ENDBRANCH   8   9
ENDBRANCH   5   8
ENDBRANCH   1   2
BRANCH   1  19
ATOM     17  O   UNL     1      48.808   7.111  17.753  0.00  0.00    +0.000 OA
ATOM     18  C   UNL     1      49.515   6.288  17.187  0.00  0.00    +0.000 C 
ATOM     19  N   UNL     1      49.721   6.248  15.831  0.00  0.00    +0.000 N 
ATOM     20  H   UNL     1      50.479   5.691  15.474  0.00  0.00    +0.000 HD
BRANCH  18  21
ATOM     21  C   UNL     1      50.398   5.369  17.891  0.00  0.00    +0.000 A 
ATOM     22  C   UNL     1      51.412   5.800  18.729  0.00  0.00    +0.000 A 
ATOM     23  S   UNL     1      52.570   4.566  19.010  0.00  0.00    +0.000 S 
ATOM     24  C   UNL     1      51.663   3.430  18.119  0.00  0.00    +0.000 A 
ATOM     25  N   UNL     1      52.130   2.185  17.833  0.00  0.00    +0.000 NA
ATOM     26  C   UNL     1      51.294   1.444  17.179  0.00  0.00    +0.000 A 
ATOM     27  N   UNL     1      50.019   1.813  16.828  0.00  0.00    +0.000 N 
ATOM     28  C   UNL     1      49.489   3.044  17.132  0.00  0.00    +0.000 A 
ATOM     29  O   UNL     1      48.315   3.320  16.917  0.00  0.00    +0.000 OA
ATOM     30  C   UNL     1      50.446   3.948  17.738  0.00  0.00    +0.000 A 
ATOM     31  H   UNL     1      49.385   1.157  16.399  0.00  0.00    +0.000 HD
ENDBRANCH  18  21
ENDBRANCH   1  19
TORSDOF 7
ENDMDL
MODEL 9
REMARK VINA RESULT:    -6.599      2.415      2.921
REMARK INTER + INTRA:         -10.417
REMARK INTER:                  -9.607
REMARK INTRA:                  -0.810
REMARK UNBOUND:                -1.118
REMARK  Name = 
REMARK  7 active torsions:
REMARK  status: ('A' for Active; 'I' for Inactive)
REMARK    1  A    between atoms: C_2  and  C_19
REMARK    2  A    between atoms: N_3  and  C_4
REMARK    3  A    between atoms: C_4  and  C_5
REMARK    4  A    between atoms: C_8  and  C_9
REMARK    5  A    between atoms: C_9  and  N_10
REMARK    6  A    between atoms: N_10  and  C_11
REMARK    7  A    between atoms: C_11  and  C_12
REMARK                            x       y       z     vdW  Elec       q    Type
REMARK                         _______ _______ _______ _____ _____    ______ ____
ROOT
ATOM      1  C   UNL     1      48.343   6.700  14.225  0.00  0.00    +0.000 C 
ENDROOT
BRANCH   1   2
ATOM      2  C   UNL     1      47.255   5.783  13.702  0.00  0.00    +0.000 A 
ATOM      3  N   UNL     1      46.120   6.345  13.252  0.00  0.00    +0.000 NA
ATOM      4  C   UNL     1      45.179   5.506  12.775  0.00  0.00    +0.000 A 
ATOM      5  C   UNL     1      45.318   4.134  12.732  0.00  0.00    +0.000 A 
ATOM      6  C   UNL     1      46.488   3.658  13.284  0.00  0.00    +0.000 A 
ATOM      7  N   UNL     1      47.460   4.449  13.788  0.00  0.00    +0.000 NA
BRANCH   5   8
ATOM      8  C   UNL     1      44.286   3.245  12.103  0.00  0.00    +0.000 C 
BRANCH   8   9
ATOM      9  N   UNL     1      44.748   2.774  10.806  0.00  0.00    +0.000 NA
ATOM     10  H   UNL     1      44.318   1.870  10.586  0.00  0.00    +0.000 HD
BRANCH   9  11
ATOM     11  C   UNL     1      44.414   3.695   9.713  0.00  0.00    +0.000 C 
BRANCH  11  12
ATOM     12  C   UNL     1      44.925   3.115   8.384  0.00  0.00    +0.000 C 
ATOM     13  C   UNL     1      45.896   1.958   8.566  0.00  0.00    +0.000 C 
ATOM     14  C   UNL     1      46.753   2.069   7.330  0.00  0.00    +0.000 C 
ATOM     15  C   UNL     1      46.866   3.568   7.160  0.00  0.00    +0.000 C 
ATOM     16  O   UNL     1      45.645   4.135   7.653  0.00  0.00    +0.000 OA
ENDBRANCH  11  12
ENDBRANCH   9  11
ENDBRANCH   8   9
ENDBRANCH   5   8
ENDBRANCH   1   2
BRANCH   1  19
ATOM     17  O   UNL     1      48.925   8.525  16.328  0.00  0.00    +0.000 OA
ATOM     18  C   UNL     1      49.033   7.320  16.510  0.00  0.00    +0.000 C 
ATOM     19  N   UNL     1      48.704   6.365  15.582  0.00  0.00    +0.000 N 
ATOM     20  H   UNL     1      49.027   5.422  15.723  0.00  0.00    +0.000 HD
BRANCH  18  21
ATOM     21  C   UNL     1      49.718   6.740  17.657  0.00  0.00    +0.000 A 
ATOM     22  C   UNL     1      51.054   6.380  17.626  0.00  0.00    +0.000 A 
ATOM     23  S   UNL     1      51.448   5.297  18.897  0.00  0.00    +0.000 S 
ATOM     24  C   UNL     1      49.877   5.402  19.554  0.00  0.00    +0.000 A 
ATOM     25  N   UNL     1      49.463   4.621  20.587  0.00  0.00    +0.000 NA
ATOM     26  C   UNL     1      48.254   4.862  20.980  0.00  0.00    +0.000 A 
ATOM     27  N   UNL     1      47.438   5.841  20.469  0.00  0.00    +0.000 N 
ATOM     28  C   UNL     1      47.827   6.681  19.453  0.00  0.00    +0.000 A 
ATOM     29  O   UNL     1      47.136   7.623  19.086  0.00  0.00    +0.000 OA
ATOM     30  C   UNL     1      49.122   6.346  18.895  0.00  0.00    +0.000 A 
ATOM     31  H   UNL     1      46.538   6.037  20.880  0.00  0.00    +0.000 HD
ENDBRANCH  18  21
ENDBRANCH   1  19
TORSDOF 7
ENDMDL
