MODEL 1
REMARK VINA RESULT:    -7.884      0.000      0.000
REMARK INTER + INTRA:         -10.856
REMARK INTER:                 -10.420
REMARK INTRA:                  -0.436
REMARK UNBOUND:                -0.436
REMARK  Name = 
REMARK  6 active torsions:
REMARK  status: ('A' for Active; 'I' for Inactive)
REMARK    1  A    between atoms: N_1  and  C_2
REMARK    2  A    between atoms: C_2  and  C_3
REMARK    3  A    between atoms: C_6  and  C_7
REMARK    4  A    between atoms: C_7  and  O_8
REMARK    5  A    between atoms: O_8  and  C_9
REMARK    6  A    between atoms: C_12  and  C_13
REMARK                            x       y       z     vdW  Elec       q    Type
REMARK                         _______ _______ _______ _____ _____    ______ ____
ROOT
ATOM      1  O   UNL     1      44.354   5.591  10.559  0.00  0.00    +0.000 OA
ENDROOT
BRANCH   1   2
ATOM      2  C   UNL     1      45.078   5.331  11.701  0.00  0.00    +0.000 A 
ATOM      3  C   UNL     1      44.608   4.370  12.592  0.00  0.00    +0.000 A 
ATOM      4  N   UNL     1      45.272   4.021  13.730  0.00  0.00    +0.000 NA
ATOM      5  C   UNL     1      46.445   4.690  13.925  0.00  0.00    +0.000 A 
ATOM      6  C   UNL     1      46.911   5.651  13.036  0.00  0.00    +0.000 A 
ATOM      7  N   UNL     1      46.237   5.996  11.914  0.00  0.00    +0.000 NA
BRANCH   5   8
ATOM      8  C   UNL     1      47.261   4.361  15.124  0.00  0.00    +0.000 C 
ATOM      9  N   UNL     1      47.627   5.398  15.938  0.00  0.00    +0.000 N 
ATOM     10  O   UNL     1      47.589   3.206  15.386  0.00  0.00    +0.000 OA
ATOM     11  H   UNL     1      47.351   6.352  15.730  0.00  0.00    +0.000 HD
ATOM     12  H   UNL     1      48.166   5.196  16.769  0.00  0.00    +0.000 HD
ENDBRANCH   5   8
ENDBRANCH   1   2
BRANCH   1  13
ATOM     13  C   UNL     1      43.768   4.401  10.009  0.00  0.00    +0.000 C 
BRANCH  13  17
ATOM     14  C   UNL     1      46.650   2.255   7.582  0.00  0.00    +0.000 A 
ATOM     15  C   UNL     1      46.546   3.649   7.494  0.00  0.00    +0.000 A 
ATOM     16  C   UNL     1      45.617   4.347   8.269  0.00  0.00    +0.000 A 
ATOM     17  C   UNL     1      44.759   3.664   9.136  0.00  0.00    +0.000 A 
ATOM     18  C   UNL     1      44.874   2.268   9.237  0.00  0.00    +0.000 A 
ATOM     19  C   UNL     1      45.805   1.570   8.464  0.00  0.00    +0.000 A 
BRANCH  14  20
ATOM     20  C   UNL     1      47.643   1.510   6.728  0.00  0.00    +0.000 C 
BRANCH  20  21
ATOM     21  N   UNL     1      48.584   2.419   6.084  0.00  0.00    +0.000 NA
ATOM     22  H   UNL     1      49.514   2.006   6.104  0.00  0.00    +0.000 HD
ATOM     23  H   UNL     1      48.634   3.277   6.630  0.00  0.00    +0.000 HD
ENDBRANCH  20  21
ENDBRANCH  14  20
ENDBRANCH  13  17
ENDBRANCH   1  13
TORSDOF 6
ENDMDL
MODEL 2
REMARK VINA RESULT:    -7.674      1.166      1.836
REMARK INTER + INTRA:         -10.578
REMARK INTER:                 -10.122
REMARK INTRA:                  -0.456
REMARK UNBOUND:                -0.436
REMARK  Name = 
REMARK  6 active torsions:
REMARK  status: ('A' for Active; 'I' for Inactive)
REMARK    1  A    between atoms: N_1  and  C_2
REMARK    2  A    between atoms: C_2  and  C_3
REMARK    3  A    between atoms: C_6  and  C_7
REMARK    4  A    between atoms: C_7  and  O_8
REMARK    5  A    between atoms: O_8  and  C_9
REMARK    6  A    between atoms: C_12  and  C_13
REMARK                            x       y       z     vdW  Elec       q    Type
REMARK                         _______ _______ _______ _____ _____    ______ ____
ROOT
ATOM      1  O   UNL     1      43.797   3.658  11.518  0.00  0.00    +0.000 OA
ENDROOT
BRANCH   1   2
ATOM      2  C   UNL     1      44.839   4.140  12.278  0.00  0.00    +0.000 A 
ATOM      3  C   UNL     1      44.939   5.513  12.488  0.00  0.00    +0.000 A 
ATOM      4  N   UNL     1      45.915   6.081  13.252  0.00  0.00    +0.000 NA
ATOM      5  C   UNL     1      46.787   5.189  13.803  0.00  0.00    +0.000 A 
ATOM      6  C   UNL     1      46.688   3.820  13.590  0.00  0.00    +0.000 A 
ATOM      7  N   UNL     1      45.719   3.269  12.821  0.00  0.00    +0.000 NA
BRANCH   5   8
ATOM      8  C   UNL     1      47.874   5.705  14.679  0.00  0.00    +0.000 C 
ATOM      9  N   UNL     1      47.747   5.498  16.025  0.00  0.00    +0.000 N 
ATOM     10  O   UNL     1      48.853   6.287  14.219  0.00  0.00    +0.000 OA
ATOM     11  H   UNL     1      46.944   5.011  16.408  0.00  0.00    +0.000 HD
ATOM     12  H   UNL     1      48.482   5.823  16.638  0.00  0.00    +0.000 HD
ENDBRANCH   5   8
ENDBRANCH   1   2
BRANCH   1  13
ATOM     13  C   UNL     1      43.775   4.234  10.203  0.00  0.00    +0.000 C 
BRANCH  13  17
ATOM     14  C   UNL     1      46.655   2.363   7.555  0.00  0.00    +0.000 A 
ATOM     15  C   UNL     1      45.881   1.585   8.426  0.00  0.00    +0.000 A 
ATOM     16  C   UNL     1      44.955   2.181   9.284  0.00  0.00    +0.000 A 
ATOM     17  C   UNL     1      44.794   3.570   9.304  0.00  0.00    +0.000 A 
ATOM     18  C   UNL     1      45.558   4.349   8.421  0.00  0.00    +0.000 A 
ATOM     19  C   UNL     1      46.483   3.753   7.559  0.00  0.00    +0.000 A 
BRANCH  14  20
ATOM     20  C   UNL     1      47.664   1.713   6.646  0.00  0.00    +0.000 C 
BRANCH  20  21
ATOM     21  N   UNL     1      48.674   2.664   6.197  0.00  0.00    +0.000 NA
ATOM     22  H   UNL     1      49.527   2.525   6.735  0.00  0.00    +0.000 HD
ATOM     23  H   UNL     1      48.349   3.607   6.405  0.00  0.00    +0.000 HD
ENDBRANCH  20  21
ENDBRANCH  14  20
ENDBRANCH  13  17
ENDBRANCH   1  13
TORSDOF 6
ENDMDL
MODEL 3
REMARK VINA RESULT:    -7.527      2.410      6.070
REMARK INTER + INTRA:         -10.383
REMARK INTER:                 -10.001
REMARK INTRA:                  -0.382
REMARK UNBOUND:                -0.436
REMARK  Name = 
REMARK  6 active torsions:
REMARK  status: ('A' for Active; 'I' for Inactive)
REMARK    1  A    between atoms: N_1  and  C_2
REMARK    2  A    between atoms: C_2  and  C_3
REMARK    3  A    between atoms: C_6  and  C_7
REMARK    4  A    between atoms: C_7  and  O_8
REMARK    5  A    between atoms: O_8  and  C_9
REMARK    6  A    between atoms: C_12  and  C_13
REMARK                            x       y       z     vdW  Elec       q    Type
REMARK                         _______ _______ _______ _____ _____    ______ ____
ROOT
ATOM      1  O   UNL     1      43.561   4.636   9.777  0.00  0.00    +0.000 OA
ENDROOT
BRANCH   1   2
ATOM      2  C   UNL     1      44.510   3.874   9.134  0.00  0.00    +0.000 A 
ATOM      3  C   UNL     1      44.538   2.501   9.364  0.00  0.00    +0.000 A 
ATOM      4  N   UNL     1      45.418   1.661   8.748  0.00  0.00    +0.000 NA
ATOM      5  C   UNL     1      46.269   2.276   7.878  0.00  0.00    +0.000 A 
ATOM      6  C   UNL     1      46.241   3.647   7.652  0.00  0.00    +0.000 A 
ATOM      7  N   UNL     1      45.369   4.472   8.277  0.00  0.00    +0.000 NA
BRANCH   5   8
ATOM      8  C   UNL     1      47.250   1.443   7.132  0.00  0.00    +0.000 C 
ATOM      9  N   UNL     1      48.339   2.078   6.603  0.00  0.00    +0.000 N 
ATOM     10  O   UNL     1      47.099   0.230   7.000  0.00  0.00    +0.000 OA
ATOM     11  H   UNL     1      48.472   3.077   6.717  0.00  0.00    +0.000 HD
ATOM     12  H   UNL     1      49.029   1.528   6.108  0.00  0.00    +0.000 HD
ENDBRANCH   5   8
ENDBRANCH   1   2
BRANCH   1  13
ATOM     13  C   UNL     1      43.535   4.387  11.191  0.00  0.00    +0.000 C 
BRANCH  13  17
ATOM     14  C   UNL     1      46.994   6.056  13.205  0.00  0.00    +0.000 A 
ATOM     15  C   UNL     1      46.350   6.773  12.188  0.00  0.00    +0.000 A 
ATOM     16  C   UNL     1      45.238   6.240  11.532  0.00  0.00    +0.000 A 
ATOM     17  C   UNL     1      44.756   4.970  11.866  0.00  0.00    +0.000 A 
ATOM     18  C   UNL     1      45.392   4.258  12.896  0.00  0.00    +0.000 A 
ATOM     19  C   UNL     1      46.503   4.792  13.554  0.00  0.00    +0.000 A 
BRANCH  14  20
ATOM     20  C   UNL     1      48.203   6.632  13.893  0.00  0.00    +0.000 C 
BRANCH  20  21
ATOM     21  N   UNL     1      49.363   6.656  13.010  0.00  0.00    +0.000 NA
ATOM     22  H   UNL     1      49.835   7.553  13.101  0.00  0.00    +0.000 HD
ATOM     23  H   UNL     1      49.040   6.593  12.046  0.00  0.00    +0.000 HD
ENDBRANCH  20  21
ENDBRANCH  14  20
ENDBRANCH  13  17
ENDBRANCH   1  13
TORSDOF 6
ENDMDL
MODEL 4
REMARK VINA RESULT:    -7.397      1.283      1.702
REMARK INTER + INTRA:         -10.211
REMARK INTER:                  -9.852
REMARK INTRA:                  -0.359
REMARK UNBOUND:                -0.436
REMARK  Name = 
REMARK  6 active torsions:
REMARK  status: ('A' for Active; 'I' for Inactive)
REMARK    1  A    between atoms: N_1  and  C_2
REMARK    2  A    between atoms: C_2  and  C_3
REMARK    3  A    between atoms: C_6  and  C_7
REMARK    4  A    between atoms: C_7  and  O_8
REMARK    5  A    between atoms: O_8  and  C_9
REMARK    6  A    between atoms: C_12  and  C_13
REMARK                            x       y       z     vdW  Elec       q    Type
REMARK                         _______ _______ _______ _____ _____    ______ ____
ROOT
ATOM      1  O   UNL     1      43.985   4.275  10.835  0.00  0.00    +0.000 OA
ENDROOT
BRANCH   1   2
ATOM      2  C   UNL     1      44.982   4.638  11.713  0.00  0.00    +0.000 A 
ATOM      3  C   UNL     1      45.759   5.757  11.422  0.00  0.00    +0.000 A 
ATOM      4  N   UNL     1      46.746   6.213  12.245  0.00  0.00    +0.000 NA
ATOM      5  C   UNL     1      46.908   5.484  13.386  0.00  0.00    +0.000 A 
ATOM      6  C   UNL     1      46.135   4.366  13.673  0.00  0.00    +0.000 A 
ATOM      7  N   UNL     1      45.164   3.918  12.843  0.00  0.00    +0.000 NA
BRANCH   5   8
ATOM      8  C   UNL     1      47.941   5.917  14.365  0.00  0.00    +0.000 C 
ATOM      9  N   UNL     1      47.728   5.607  15.680  0.00  0.00    +0.000 N 
ATOM     10  O   UNL     1      48.952   6.520  14.014  0.00  0.00    +0.000 OA
ATOM     11  H   UNL     1      46.899   5.102  15.974  0.00  0.00    +0.000 HD
ATOM     12  H   UNL     1      48.426   5.875  16.362  0.00  0.00    +0.000 HD
ENDBRANCH   5   8
ENDBRANCH   1   2
BRANCH   1  13
ATOM     13  C   UNL     1      44.131   2.920  10.382  0.00  0.00    +0.000 C 
BRANCH  13  17
ATOM     14  C   UNL     1      46.601   2.722   6.824  0.00  0.00    +0.000 A 
ATOM     15  C   UNL     1      45.933   3.907   7.159  0.00  0.00    +0.000 A 
ATOM     16  C   UNL     1      45.132   3.977   8.301  0.00  0.00    +0.000 A 
ATOM     17  C   UNL     1      44.967   2.858   9.123  0.00  0.00    +0.000 A 
ATOM     18  C   UNL     1      45.649   1.675   8.797  0.00  0.00    +0.000 A 
ATOM     19  C   UNL     1      46.453   1.605   7.656  0.00  0.00    +0.000 A 
BRANCH  14  20
ATOM     20  C   UNL     1      47.448   2.651   5.580  0.00  0.00    +0.000 C 
BRANCH  20  21
ATOM     21  N   UNL     1      48.543   1.700   5.730  0.00  0.00    +0.000 NA
ATOM     22  H   UNL     1      49.402   2.206   5.929  0.00  0.00    +0.000 HD
ATOM     23  H   UNL     1      48.685   1.224   4.840  0.00  0.00    +0.000 HD
ENDBRANCH  20  21
ENDBRANCH  14  20
ENDBRANCH  13  17
ENDBRANCH   1  13
TORSDOF 6
ENDMDL
MODEL 5
REMARK VINA RESULT:    -7.183      1.919      2.863
REMARK INTER + INTRA:          -9.929
REMARK INTER:                  -9.522
REMARK INTRA:                  -0.406
REMARK UNBOUND:                -0.436
REMARK  Name = 
REMARK  6 active torsions:
REMARK  status: ('A' for Active; 'I' for Inactive)
REMARK    1  A    between atoms: N_1  and  C_2
REMARK    2  A    between atoms: C_2  and  C_3
REMARK    3  A    between atoms: C_6  and  C_7
REMARK    4  A    between atoms: C_7  and  O_8
REMARK    5  A    between atoms: O_8  and  C_9
REMARK    6  A    between atoms: C_12  and  C_13
REMARK                            x       y       z     vdW  Elec       q    Type
REMARK                         _______ _______ _______ _____ _____    ______ ____
ROOT
ATOM      1  O   UNL     1      44.592   3.375  11.754  0.00  0.00    +0.000 OA
ENDROOT
BRANCH   1   2
ATOM      2  C   UNL     1      44.898   4.675  12.089  0.00  0.00    +0.000 A 
ATOM      3  C   UNL     1      46.018   4.919  12.880  0.00  0.00    +0.000 A 
ATOM      4  N   UNL     1      46.419   6.173  13.235  0.00  0.00    +0.000 NA
ATOM      5  C   UNL     1      45.634   7.175  12.744  0.00  0.00    +0.000 A 
ATOM      6  C   UNL     1      44.516   6.929  11.958  0.00  0.00    +0.000 A 
ATOM      7  N   UNL     1      44.122   5.678  11.620  0.00  0.00    +0.000 NA
BRANCH   5   8
ATOM      8  C   UNL     1      46.004   8.583  13.051  0.00  0.00    +0.000 C 
ATOM      9  N   UNL     1      46.758   8.805  14.170  0.00  0.00    +0.000 N 
ATOM     10  O   UNL     1      45.658   9.514  12.327  0.00  0.00    +0.000 OA
ATOM     11  H   UNL     1      47.053   8.038  14.765  0.00  0.00    +0.000 HD
ATOM     12  H   UNL     1      47.037   9.752  14.388  0.00  0.00    +0.000 HD
ENDBRANCH   5   8
ENDBRANCH   1   2
BRANCH   1  13
ATOM     13  C   UNL     1      43.870   3.290  10.516  0.00  0.00    +0.000 C 
BRANCH  13  17
ATOM     14  C   UNL     1      46.506   2.660   7.131  0.00  0.00    +0.000 A 
ATOM     15  C   UNL     1      46.148   1.590   7.961  0.00  0.00    +0.000 A 
ATOM     16  C   UNL     1      45.303   1.786   9.054  0.00  0.00    +0.000 A 
ATOM     17  C   UNL     1      44.812   3.060   9.355  0.00  0.00    +0.000 A 
ATOM     18  C   UNL     1      45.158   4.131   8.514  0.00  0.00    +0.000 A 
ATOM     19  C   UNL     1      46.001   3.934   7.418  0.00  0.00    +0.000 A 
BRANCH  14  20
ATOM     20  C   UNL     1      47.433   2.441   5.963  0.00  0.00    +0.000 C 
BRANCH  20  21
ATOM     21  N   UNL     1      48.831   2.549   6.361  0.00  0.00    +0.000 NA
ATOM     22  H   UNL     1      49.081   3.532   6.444  0.00  0.00    +0.000 HD
ATOM     23  H   UNL     1      49.412   2.163   5.618  0.00  0.00    +0.000 HD
ENDBRANCH  20  21
ENDBRANCH  14  20
ENDBRANCH  13  17
ENDBRANCH   1  13
TORSDOF 6
ENDMDL
MODEL 6
REMARK VINA RESULT:    -6.213      3.285      7.700
REMARK INTER + INTRA:          -8.647
REMARK INTER:                  -8.268
REMARK INTRA:                  -0.379
REMARK UNBOUND:                -0.436
REMARK  Name = 
REMARK  6 active torsions:
REMARK  status: ('A' for Active; 'I' for Inactive)
REMARK    1  A    between atoms: N_1  and  C_2
REMARK    2  A    between atoms: C_2  and  C_3
REMARK    3  A    between atoms: C_6  and  C_7
REMARK    4  A    between atoms: C_7  and  O_8
REMARK    5  A    between atoms: O_8  and  C_9
REMARK    6  A    between atoms: C_12  and  C_13
REMARK                            x       y       z     vdW  Elec       q    Type
REMARK                         _______ _______ _______ _____ _____    ______ ____
ROOT
ATOM      1  O   UNL     1      47.612   5.144  14.930  0.00  0.00    +0.000 OA
ENDROOT
BRANCH   1   2
ATOM      2  C   UNL     1      46.693   4.807  13.962  0.00  0.00    +0.000 A 
ATOM      3  C   UNL     1      46.007   5.823  13.302  0.00  0.00    +0.000 A 
ATOM      4  N   UNL     1      45.104   5.589  12.308  0.00  0.00    +0.000 NA
ATOM      5  C   UNL     1      44.931   4.271  12.004  0.00  0.00    +0.000 A 
ATOM      6  C   UNL     1      45.613   3.257  12.666  0.00  0.00    +0.000 A 
ATOM      7  N   UNL     1      46.501   3.502  13.659  0.00  0.00    +0.000 NA
BRANCH   5   8
ATOM      8  C   UNL     1      43.987   3.910  10.912  0.00  0.00    +0.000 C 
ATOM      9  N   UNL     1      43.841   4.805   9.888  0.00  0.00    +0.000 N 
ATOM     10  O   UNL     1      43.368   2.849  10.917  0.00  0.00    +0.000 OA
ATOM     11  H   UNL     1      44.357   5.678   9.875  0.00  0.00    +0.000 HD
ATOM     12  H   UNL     1      43.219   4.573   9.125  0.00  0.00    +0.000 HD
ENDBRANCH   5   8
ENDBRANCH   1   2
BRANCH   1  13
ATOM     13  C   UNL     1      47.374   4.453  16.166  0.00  0.00    +0.000 C 
BRANCH  13  17
ATOM     14  C   UNL     1      51.007   2.474  17.466  0.00  0.00    +0.000 A 
ATOM     15  C   UNL     1      49.974   1.741  16.867  0.00  0.00    +0.000 A 
ATOM     16  C   UNL     1      48.800   2.371  16.449  0.00  0.00    +0.000 A 
ATOM     17  C   UNL     1      48.624   3.745  16.639  0.00  0.00    +0.000 A 
ATOM     18  C   UNL     1      49.664   4.483  17.226  0.00  0.00    +0.000 A 
ATOM     19  C   UNL     1      50.841   3.854  17.641  0.00  0.00    +0.000 A 
BRANCH  14  20
ATOM     20  C   UNL     1      52.262   1.783  17.929  0.00  0.00    +0.000 C 
BRANCH  20  21
ATOM     21  N   UNL     1      52.036   0.362  18.166  0.00  0.00    +0.000 NA
ATOM     22  H   UNL     1      52.123   0.170  19.162  0.00  0.00    +0.000 HD
ATOM     23  H   UNL     1      52.773  -0.167  17.702  0.00  0.00    +0.000 HD
ENDBRANCH  20  21
ENDBRANCH  14  20
ENDBRANCH  13  17
ENDBRANCH   1  13
TORSDOF 6
ENDMDL
MODEL 7
REMARK VINA RESULT:    -5.895      2.702      4.544
REMARK INTER + INTRA:          -8.226
REMARK INTER:                  -7.930
REMARK INTRA:                  -0.297
REMARK UNBOUND:                -0.436
REMARK  Name = 
REMARK  6 active torsions:
REMARK  status: ('A' for Active; 'I' for Inactive)
REMARK    1  A    between atoms: N_1  and  C_2
REMARK    2  A    between atoms: C_2  and  C_3
REMARK    3  A    between atoms: C_6  and  C_7
REMARK    4  A    between atoms: C_7  and  O_8
REMARK    5  A    between atoms: O_8  and  C_9
REMARK    6  A    between atoms: C_12  and  C_13
REMARK                            x       y       z     vdW  Elec       q    Type
REMARK                         _______ _______ _______ _____ _____    ______ ____
ROOT
ATOM      1  O   UNL     1      46.723   3.876  14.623  0.00  0.00    +0.000 OA
ENDROOT
BRANCH   1   2
ATOM      2  C   UNL     1      47.238   4.098  15.880  0.00  0.00    +0.000 A 
ATOM      3  C   UNL     1      48.113   5.164  16.069  0.00  0.00    +0.000 A 
ATOM      4  N   UNL     1      48.648   5.483  17.283  0.00  0.00    +0.000 NA
ATOM      5  C   UNL     1      48.249   4.672  18.304  0.00  0.00    +0.000 A 
ATOM      6  C   UNL     1      47.378   3.606  18.113  0.00  0.00    +0.000 A 
ATOM      7  N   UNL     1      46.861   3.294  16.901  0.00  0.00    +0.000 NA
BRANCH   5   8
ATOM      8  C   UNL     1      48.753   4.953  19.675  0.00  0.00    +0.000 C 
ATOM      9  N   UNL     1      48.692   3.936  20.587  0.00  0.00    +0.000 N 
ATOM     10  O   UNL     1      49.216   6.050  19.980  0.00  0.00    +0.000 OA
ATOM     11  H   UNL     1      48.319   3.027  20.336  0.00  0.00    +0.000 HD
ATOM     12  H   UNL     1      49.047   4.099  21.520  0.00  0.00    +0.000 HD
ENDBRANCH   5   8
ENDBRANCH   1   2
BRANCH   1  13
ATOM     13  C   UNL     1      46.294   5.092  13.991  0.00  0.00    +0.000 C 
BRANCH  13  17
ATOM     14  C   UNL     1      45.033   4.277   9.923  0.00  0.00    +0.000 A 
ATOM     15  C   UNL     1      45.603   5.513  10.256  0.00  0.00    +0.000 A 
ATOM     16  C   UNL     1      46.008   5.784  11.564  0.00  0.00    +0.000 A 
ATOM     17  C   UNL     1      45.835   4.832  12.574  0.00  0.00    +0.000 A 
ATOM     18  C   UNL     1      45.278   3.587  12.238  0.00  0.00    +0.000 A 
ATOM     19  C   UNL     1      44.876   3.315  10.928  0.00  0.00    +0.000 A 
BRANCH  14  20
ATOM     20  C   UNL     1      44.584   4.001   8.512  0.00  0.00    +0.000 C 
BRANCH  20  21
ATOM     21  N   UNL     1      45.698   4.061   7.573  0.00  0.00    +0.000 NA
ATOM     22  H   UNL     1      46.563   3.856   8.067  0.00  0.00    +0.000 HD
ATOM     23  H   UNL     1      45.780   5.016   7.226  0.00  0.00    +0.000 HD
ENDBRANCH  20  21
ENDBRANCH  14  20
ENDBRANCH  13  17
ENDBRANCH   1  13
TORSDOF 6
ENDMDL
MODEL 8
REMARK VINA RESULT:    -5.790      3.963      7.874
REMARK INTER + INTRA:          -8.087
REMARK INTER:                  -7.747
REMARK INTRA:                  -0.341
REMARK UNBOUND:                -0.436
REMARK  Name = 
REMARK  6 active torsions:
REMARK  status: ('A' for Active; 'I' for Inactive)
REMARK    1  A    between atoms: N_1  and  C_2
REMARK    2  A    between atoms: C_2  and  C_3
REMARK    3  A    between atoms: C_6  and  C_7
REMARK    4  A    between atoms: C_7  and  O_8
REMARK    5  A    between atoms: O_8  and  C_9
REMARK    6  A    between atoms: C_12  and  C_13
REMARK                            x       y       z     vdW  Elec       q    Type
REMARK                         _______ _______ _______ _____ _____    ______ ____
ROOT
ATOM      1  O   UNL     1      47.436   3.281  14.594  0.00  0.00    +0.000 OA
ENDROOT
BRANCH   1   2
ATOM      2  C   UNL     1      46.672   4.190  13.898  0.00  0.00    +0.000 A 
ATOM      3  C   UNL     1      47.163   5.481  13.717  0.00  0.00    +0.000 A 
ATOM      4  N   UNL     1      46.495   6.439  13.013  0.00  0.00    +0.000 NA
ATOM      5  C   UNL     1      45.303   6.028  12.494  0.00  0.00    +0.000 A 
ATOM      6  C   UNL     1      44.813   4.740  12.679  0.00  0.00    +0.000 A 
ATOM      7  N   UNL     1      45.482   3.800  13.387  0.00  0.00    +0.000 NA
BRANCH   5   8
ATOM      8  C   UNL     1      44.509   6.991  11.684  0.00  0.00    +0.000 C 
ATOM      9  N   UNL     1      43.282   6.578  11.242  0.00  0.00    +0.000 N 
ATOM     10  O   UNL     1      44.927   8.117  11.427  0.00  0.00    +0.000 OA
ATOM     11  H   UNL     1      42.930   5.652  11.459  0.00  0.00    +0.000 HD
ATOM     12  H   UNL     1      42.717   7.223  10.706  0.00  0.00    +0.000 HD
ENDBRANCH   5   8
ENDBRANCH   1   2
BRANCH   1  13
ATOM     13  C   UNL     1      47.390   3.508  16.012  0.00  0.00    +0.000 C 
BRANCH  13  17
ATOM     14  C   UNL     1      51.316   3.152  17.819  0.00  0.00    +0.000 A 
ATOM     15  C   UNL     1      50.662   4.390  17.780  0.00  0.00    +0.000 A 
ATOM     16  C   UNL     1      49.399   4.514  17.196  0.00  0.00    +0.000 A 
ATOM     17  C   UNL     1      48.770   3.405  16.621  0.00  0.00    +0.000 A 
ATOM     18  C   UNL     1      49.419   2.160  16.673  0.00  0.00    +0.000 A 
ATOM     19  C   UNL     1      50.680   2.036  17.260  0.00  0.00    +0.000 A 
BRANCH  14  20
ATOM     20  C   UNL     1      52.685   3.034  18.435  0.00  0.00    +0.000 C 
BRANCH  20  21
ATOM     21  N   UNL     1      53.055   1.641  18.658  0.00  0.00    +0.000 NA
ATOM     22  H   UNL     1      52.214   1.067  18.655  0.00  0.00    +0.000 HD
ATOM     23  H   UNL     1      53.462   1.556  19.588  0.00  0.00    +0.000 HD
ENDBRANCH  20  21
ENDBRANCH  14  20
ENDBRANCH  13  17
ENDBRANCH   1  13
TORSDOF 6
ENDMDL
MODEL 9
REMARK VINA RESULT:    -5.723      2.770      7.752
REMARK INTER + INTRA:          -7.999
REMARK INTER:                  -7.625
REMARK INTRA:                  -0.374
REMARK UNBOUND:                -0.436
REMARK  Name = 
REMARK  6 active torsions:
REMARK  status: ('A' for Active; 'I' for Inactive)
REMARK    1  A    between atoms: N_1  and  C_2
REMARK    2  A    between atoms: C_2  and  C_3
REMARK    3  A    between atoms: C_6  and  C_7
REMARK    4  A    between atoms: C_7  and  O_8
REMARK    5  A    between atoms: O_8  and  C_9
REMARK    6  A    between atoms: C_12  and  C_13
REMARK                            x       y       z     vdW  Elec       q    Type
REMARK                         _______ _______ _______ _____ _____    ______ ____
ROOT
ATOM      1  O   UNL     1      45.965   5.468  13.874  0.00  0.00    +0.000 OA
ENDROOT
BRANCH   1   2
ATOM      2  C   UNL     1      45.580   4.804  12.731  0.00  0.00    +0.000 A 
ATOM      3  C   UNL     1      45.568   5.496  11.523  0.00  0.00    +0.000 A 
ATOM      4  N   UNL     1      45.235   4.915  10.336  0.00  0.00    +0.000 NA
ATOM      5  C   UNL     1      44.918   3.592  10.426  0.00  0.00    +0.000 A 
ATOM      6  C   UNL     1      44.927   2.904  11.633  0.00  0.00    +0.000 A 
ATOM      7  N   UNL     1      45.251   3.494  12.807  0.00  0.00    +0.000 NA
BRANCH   5   8
ATOM      8  C   UNL     1      44.567   2.858   9.180  0.00  0.00    +0.000 C 
ATOM      9  N   UNL     1      44.226   3.605   8.086  0.00  0.00    +0.000 N 
ATOM     10  O   UNL     1      44.589   1.631   9.126  0.00  0.00    +0.000 OA
ATOM     11  H   UNL     1      44.215   4.619   8.124  0.00  0.00    +0.000 HD
ATOM     12  H   UNL     1      44.002   3.128   7.223  0.00  0.00    +0.000 HD
ENDBRANCH   5   8
ENDBRANCH   1   2
BRANCH   1  13
ATOM     13  C   UNL     1      47.392   5.490  14.033  0.00  0.00    +0.000 C 
BRANCH  13  17
ATOM     14  C   UNL     1      48.423   4.640  18.158  0.00  0.00    +0.000 A 
ATOM     15  C   UNL     1      48.970   5.752  17.504  0.00  0.00    +0.000 A 
ATOM     16  C   UNL     1      48.646   6.030  16.175  0.00  0.00    +0.000 A 
ATOM     17  C   UNL     1      47.782   5.191  15.463  0.00  0.00    +0.000 A 
ATOM     18  C   UNL     1      47.221   4.085  16.122  0.00  0.00    +0.000 A 
ATOM     19  C   UNL     1      47.543   3.809  17.454  0.00  0.00    +0.000 A 
BRANCH  14  20
ATOM     20  C   UNL     1      48.793   4.339  19.587  0.00  0.00    +0.000 C 
BRANCH  20  21
ATOM     21  N   UNL     1      48.311   3.027  20.001  0.00  0.00    +0.000 NA
ATOM     22  H   UNL     1      49.023   2.329  19.797  0.00  0.00    +0.000 HD
ATOM     23  H   UNL     1      47.497   2.786  19.437  0.00  0.00    +0.000 HD
ENDBRANCH  20  21
ENDBRANCH  14  20
ENDBRANCH  13  17
ENDBRANCH   1  13
TORSDOF 6
ENDMDL
