MODEL 1
REMARK VINA RESULT:    -8.467      0.000      0.000
REMARK INTER + INTRA:         -12.371
REMARK INTER:                 -11.437
REMARK INTRA:                  -0.934
REMARK UNBOUND:                -0.934
REMARK  Name = 
REMARK  7 active torsions:
REMARK  status: ('A' for Active; 'I' for Inactive)
REMARK    1  A    between atoms: C_1  and  C_2
REMARK    2  A    between atoms: N_7  and  C_8
REMARK    3  A    between atoms: C_12  and  C_13
REMARK    4  A    between atoms: C_13  and  C_14
REMARK    5  A    between atoms: C_14  and  N_15
REMARK    6  A    between atoms: N_15  and  C_16
REMARK    7  A    between atoms: C_19  and  C_20
REMARK                            x       y       z     vdW  Elec       q    Type
REMARK                         _______ _______ _______ _____ _____    ______ ____
ROOT
ATOM      1  C   UNL     1      43.897   4.129  11.995  0.00  0.00    +0.000 C 
ENDROOT
BRANCH   1   2
ATOM      2  N   UNL     1      43.575   3.588  10.676  0.00  0.00    +0.000 N 
ATOM      3  H   UNL     1      42.824   2.903  10.661  0.00  0.00    +0.000 HD
BRANCH   2   4
ATOM      4  C   UNL     1      44.564   3.348   9.725  0.00  0.00    +0.000 A 
ATOM      5  C   UNL     1      45.177   4.347   8.958  0.00  0.00    +0.000 A 
ATOM      6  C   UNL     1      46.098   4.030   7.947  0.00  0.00    +0.000 A 
ATOM      7  C   UNL     1      46.404   2.698   7.655  0.00  0.00    +0.000 A 
ATOM      8  C   UNL     1      45.779   1.700   8.397  0.00  0.00    +0.000 A 
ATOM      9  F   UNL     1      46.014   0.401   8.152  0.00  0.00    +0.000 F 
ATOM     10  C   UNL     1      44.872   2.017   9.410  0.00  0.00    +0.000 A 
BRANCH   7  11
ATOM     11  C   UNL     1      47.368   2.408   6.562  0.00  0.00    +0.000 C 
ATOM     12  N   UNL     1      47.231   3.078   5.378  0.00  0.00    +0.000 N 
ATOM     13  O   UNL     1      48.270   1.585   6.707  0.00  0.00    +0.000 OA
ATOM     14  H   UNL     1      46.511   3.775   5.212  0.00  0.00    +0.000 HD
ATOM     15  H   UNL     1      47.894   2.883   4.641  0.00  0.00    +0.000 HD
ENDBRANCH   7  11
ENDBRANCH   2   4
ENDBRANCH   1   2
BRANCH   1  16
ATOM     16  C   UNL     1      45.275   3.633  12.465  0.00  0.00    +0.000 C 
BRANCH  16  21
ATOM     17  C   UNL     1      47.625   5.716  14.666  0.00  0.00    +0.000 A 
ATOM     18  C   UNL     1      47.911   6.767  13.787  0.00  0.00    +0.000 A 
ATOM     19  C   UNL     1      47.352   6.824  12.504  0.00  0.00    +0.000 A 
ATOM     20  C   UNL     1      46.487   5.824  12.065  0.00  0.00    +0.000 A 
ATOM     21  C   UNL     1      46.148   4.779  12.922  0.00  0.00    +0.000 A 
ATOM     22  C   UNL     1      46.697   4.760  14.215  0.00  0.00    +0.000 A 
BRANCH  17  29
ATOM     23  C   UNL     1      50.541   6.228  16.565  0.00  0.00    +0.000 C 
ATOM     24  C   UNL     1      49.071   6.655  16.506  0.00  0.00    +0.000 C 
ATOM     25  C   UNL     1      48.522   6.944  17.927  0.00  0.00    +0.000 C 
ATOM     26  O   UNL     1      48.438   5.756  18.735  0.00  0.00    +0.000 OA
ATOM     27  C   UNL     1      47.574   4.788  18.116  0.00  0.00    +0.000 C 
ATOM     28  C   UNL     1      48.080   4.388  16.727  0.00  0.00    +0.000 C 
ATOM     29  N   UNL     1      48.247   5.590  15.893  0.00  0.00    +0.000 N 
ENDBRANCH  17  29
ENDBRANCH  16  21
ENDBRANCH   1  16
TORSDOF 6
ENDMDL
MODEL 2
REMARK VINA RESULT:    -8.452      2.519      3.432
REMARK INTER + INTRA:         -12.351
REMARK INTER:                 -11.315
REMARK INTRA:                  -1.036
REMARK UNBOUND:                -0.934
REMARK  Name = 
REMARK  7 active torsions:
REMARK  status: ('A' for Active; 'I' for Inactive)
REMARK    1  A    between atoms: C_1  and  C_2
REMARK    2  A    between atoms: N_7  and  C_8
REMARK    3  A    between atoms: C_12  and  C_13
REMARK    4  A    between atoms: C_13  and  C_14
REMARK    5  A    between atoms: C_14  and  N_15
REMARK    6  A    between atoms: N_15  and  C_16
REMARK    7  A    between atoms: C_19  and  C_20
REMARK                            x       y       z     vdW  Elec       q    Type
REMARK                         _______ _______ _______ _____ _____    ______ ____
ROOT
ATOM      1  C   UNL     1      43.245   5.159  10.798  0.00  0.00    +0.000 C 
ENDROOT
BRANCH   1   2
ATOM      2  N   UNL     1      43.659   3.782  10.537  0.00  0.00    +0.000 N 
ATOM      3  H   UNL     1      43.669   3.172  11.351  0.00  0.00    +0.000 HD
BRANCH   2   4
ATOM      4  C   UNL     1      44.652   3.482   9.607  0.00  0.00    +0.000 A 
ATOM      5  C   UNL     1      45.297   4.436   8.810  0.00  0.00    +0.000 A 
ATOM      6  C   UNL     1      46.220   4.059   7.822  0.00  0.00    +0.000 A 
ATOM      7  C   UNL     1      46.497   2.710   7.583  0.00  0.00    +0.000 A 
ATOM      8  C   UNL     1      45.839   1.756   8.355  0.00  0.00    +0.000 A 
ATOM      9  F   UNL     1      46.044   0.443   8.161  0.00  0.00    +0.000 F 
ATOM     10  C   UNL     1      44.930   2.133   9.345  0.00  0.00    +0.000 A 
BRANCH   7  11
ATOM     11  C   UNL     1      47.464   2.355   6.512  0.00  0.00    +0.000 C 
ATOM     12  N   UNL     1      47.379   3.011   5.316  0.00  0.00    +0.000 N 
ATOM     13  O   UNL     1      48.322   1.493   6.687  0.00  0.00    +0.000 OA
ATOM     14  H   UNL     1      46.697   3.739   5.126  0.00  0.00    +0.000 HD
ATOM     15  H   UNL     1      48.045   2.772   4.594  0.00  0.00    +0.000 HD
ENDBRANCH   7  11
ENDBRANCH   2   4
ENDBRANCH   1   2
BRANCH   1  16
ATOM     16  C   UNL     1      43.445   5.516  12.281  0.00  0.00    +0.000 C 
BRANCH  16  21
ATOM     17  C   UNL     1      47.031   6.809  12.688  0.00  0.00    +0.000 A 
ATOM     18  C   UNL     1      47.582   5.764  13.439  0.00  0.00    +0.000 A 
ATOM     19  C   UNL     1      46.823   4.644  13.805  0.00  0.00    +0.000 A 
ATOM     20  C   UNL     1      45.486   4.543  13.428  0.00  0.00    +0.000 A 
ATOM     21  C   UNL     1      44.910   5.545  12.649  0.00  0.00    +0.000 A 
ATOM     22  C   UNL     1      45.700   6.643  12.269  0.00  0.00    +0.000 A 
BRANCH  17  29
ATOM     23  C   UNL     1      46.891  10.230  11.881  0.00  0.00    +0.000 C 
ATOM     24  C   UNL     1      47.397   9.287  12.977  0.00  0.00    +0.000 C 
ATOM     25  C   UNL     1      48.664   9.865  13.660  0.00  0.00    +0.000 C 
ATOM     26  O   UNL     1      49.798   9.902  12.774  0.00  0.00    +0.000 OA
ATOM     27  C   UNL     1      50.112   8.579  12.307  0.00  0.00    +0.000 C 
ATOM     28  C   UNL     1      48.934   7.953  11.553  0.00  0.00    +0.000 C 
ATOM     29  N   UNL     1      47.735   7.965  12.407  0.00  0.00    +0.000 N 
ENDBRANCH  17  29
ENDBRANCH  16  21
ENDBRANCH   1  16
TORSDOF 6
ENDMDL
MODEL 3
REMARK VINA RESULT:    -8.445      2.535      3.307
REMARK INTER + INTRA:         -12.341
REMARK INTER:                 -11.338
REMARK INTRA:                  -1.003
REMARK UNBOUND:                -0.934
REMARK  Name = 
REMARK  7 active torsions:
REMARK  status: ('A' for Active; 'I' for Inactive)
REMARK    1  A    between atoms: C_1  and  C_2
REMARK    2  A    between atoms: N_7  and  C_8
REMARK    3  A    between atoms: C_12  and  C_13
REMARK    4  A    between atoms: C_13  and  C_14
REMARK    5  A    between atoms: C_14  and  N_15
REMARK    6  A    between atoms: N_15  and  C_16
REMARK    7  A    between atoms: C_19  and  C_20
REMARK                            x       y       z     vdW  Elec       q    Type
REMARK                         _______ _______ _______ _____ _____    ______ ____
ROOT
ATOM      1  C   UNL     1      43.109   4.392  11.092  0.00  0.00    +0.000 C 
ENDROOT
BRANCH   1   2
ATOM      2  N   UNL     1      43.784   4.939   9.916  0.00  0.00    +0.000 N 
ATOM      3  H   UNL     1      43.204   5.520   9.316  0.00  0.00    +0.000 HD
BRANCH   2   4
ATOM      4  C   UNL     1      44.745   4.209   9.221  0.00  0.00    +0.000 A 
ATOM      5  C   UNL     1      45.692   4.775   8.359  0.00  0.00    +0.000 A 
ATOM      6  C   UNL     1      46.571   3.975   7.613  0.00  0.00    +0.000 A 
ATOM      7  C   UNL     1      46.501   2.581   7.685  0.00  0.00    +0.000 A 
ATOM      8  C   UNL     1      45.544   2.012   8.521  0.00  0.00    +0.000 A 
ATOM      9  F   UNL     1      45.410   0.679   8.619  0.00  0.00    +0.000 F 
ATOM     10  C   UNL     1      44.678   2.809   9.272  0.00  0.00    +0.000 A 
BRANCH   7  11
ATOM     11  C   UNL     1      47.436   1.772   6.860  0.00  0.00    +0.000 C 
ATOM     12  N   UNL     1      48.584   2.362   6.412  0.00  0.00    +0.000 N 
ATOM     13  O   UNL     1      47.191   0.600   6.582  0.00  0.00    +0.000 OA
ATOM     14  H   UNL     1      48.838   3.322   6.625  0.00  0.00    +0.000 HD
ATOM     15  H   UNL     1      49.221   1.805   5.859  0.00  0.00    +0.000 HD
ENDBRANCH   7  11
ENDBRANCH   2   4
ENDBRANCH   1   2
BRANCH   1  16
ATOM     16  C   UNL     1      43.411   5.243  12.338  0.00  0.00    +0.000 C 
BRANCH  16  21
ATOM     17  C   UNL     1      47.000   6.365  13.083  0.00  0.00    +0.000 A 
ATOM     18  C   UNL     1      47.535   5.164  13.562  0.00  0.00    +0.000 A 
ATOM     19  C   UNL     1      46.765   3.995  13.637  0.00  0.00    +0.000 A 
ATOM     20  C   UNL     1      45.431   4.002  13.234  0.00  0.00    +0.000 A 
ATOM     21  C   UNL     1      44.871   5.168  12.717  0.00  0.00    +0.000 A 
ATOM     22  C   UNL     1      45.673   6.318  12.622  0.00  0.00    +0.000 A 
BRANCH  17  29
ATOM     23  C   UNL     1      50.020   7.983  13.884  0.00  0.00    +0.000 C 
ATOM     24  C   UNL     1      49.129   7.655  12.681  0.00  0.00    +0.000 C 
ATOM     25  C   UNL     1      49.239   8.758  11.597  0.00  0.00    +0.000 C 
ATOM     26  O   UNL     1      48.679  10.011  12.029  0.00  0.00    +0.000 OA
ATOM     27  C   UNL     1      47.288   9.852  12.359  0.00  0.00    +0.000 C 
ATOM     28  C   UNL     1      47.088   8.825  13.478  0.00  0.00    +0.000 C 
ATOM     29  N   UNL     1      47.715   7.548  13.098  0.00  0.00    +0.000 N 
ENDBRANCH  17  29
ENDBRANCH  16  21
ENDBRANCH   1  16
TORSDOF 6
ENDMDL
MODEL 4
REMARK VINA RESULT:    -7.993      1.248      2.048
REMARK INTER + INTRA:         -11.730
REMARK INTER:                 -11.134
REMARK INTRA:                  -0.596
REMARK UNBOUND:                -0.934
REMARK  Name = 
REMARK  7 active torsions:
REMARK  status: ('A' for Active; 'I' for Inactive)
REMARK    1  A    between atoms: C_1  and  C_2
REMARK    2  A    between atoms: N_7  and  C_8
REMARK    3  A    between atoms: C_12  and  C_13
REMARK    4  A    between atoms: C_13  and  C_14
REMARK    5  A    between atoms: C_14  and  N_15
REMARK    6  A    between atoms: N_15  and  C_16
REMARK    7  A    between atoms: C_19  and  C_20
REMARK                            x       y       z     vdW  Elec       q    Type
REMARK                         _______ _______ _______ _____ _____    ______ ____
ROOT
ATOM      1  C   UNL     1      44.279   5.243  11.465  0.00  0.00    +0.000 C 
ENDROOT
BRANCH   1   2
ATOM      2  N   UNL     1      43.719   4.312  10.487  0.00  0.00    +0.000 N 
ATOM      3  H   UNL     1      42.939   3.752  10.821  0.00  0.00    +0.000 HD
BRANCH   2   4
ATOM      4  C   UNL     1      44.526   3.647   9.567  0.00  0.00    +0.000 A 
ATOM      5  C   UNL     1      44.637   2.254   9.481  0.00  0.00    +0.000 A 
ATOM      6  C   UNL     1      45.542   1.646   8.598  0.00  0.00    +0.000 A 
ATOM      7  C   UNL     1      46.387   2.421   7.798  0.00  0.00    +0.000 A 
ATOM      8  C   UNL     1      46.299   3.806   7.898  0.00  0.00    +0.000 A 
ATOM      9  F   UNL     1      47.097   4.608   7.174  0.00  0.00    +0.000 F 
ATOM     10  C   UNL     1      45.390   4.410   8.769  0.00  0.00    +0.000 A 
BRANCH   7  11
ATOM     11  C   UNL     1      47.345   1.736   6.893  0.00  0.00    +0.000 C 
ATOM     12  N   UNL     1      48.422   2.440   6.432  0.00  0.00    +0.000 N 
ATOM     13  O   UNL     1      47.182   0.564   6.559  0.00  0.00    +0.000 OA
ATOM     14  H   UNL     1      48.609   3.405   6.689  0.00  0.00    +0.000 HD
ATOM     15  H   UNL     1      49.076   1.966   5.824  0.00  0.00    +0.000 HD
ENDBRANCH   7  11
ENDBRANCH   2   4
ENDBRANCH   1   2
BRANCH   1  16
ATOM     16  C   UNL     1      45.147   4.497  12.492  0.00  0.00    +0.000 C 
BRANCH  16  21
ATOM     17  C   UNL     1      47.855   5.884  14.825  0.00  0.00    +0.000 A 
ATOM     18  C   UNL     1      48.463   6.809  13.967  0.00  0.00    +0.000 A 
ATOM     19  C   UNL     1      48.008   7.004  12.656  0.00  0.00    +0.000 A 
ATOM     20  C   UNL     1      46.928   6.271  12.168  0.00  0.00    +0.000 A 
ATOM     21  C   UNL     1      46.273   5.367  13.001  0.00  0.00    +0.000 A 
ATOM     22  C   UNL     1      46.728   5.212  14.321  0.00  0.00    +0.000 A 
BRANCH  17  29
ATOM     23  C   UNL     1      47.150   4.965  18.146  0.00  0.00    +0.000 C 
ATOM     24  C   UNL     1      47.904   4.466  16.909  0.00  0.00    +0.000 C 
ATOM     25  C   UNL     1      49.146   3.635  17.319  0.00  0.00    +0.000 C 
ATOM     26  O   UNL     1      50.156   4.435  17.960  0.00  0.00    +0.000 OA
ATOM     27  C   UNL     1      50.596   5.485  17.082  0.00  0.00    +0.000 C 
ATOM     28  C   UNL     1      49.440   6.405  16.678  0.00  0.00    +0.000 C 
ATOM     29  N   UNL     1      48.354   5.607  16.083  0.00  0.00    +0.000 N 
ENDBRANCH  17  29
ENDBRANCH  16  21
ENDBRANCH   1  16
TORSDOF 6
ENDMDL
MODEL 5
REMARK VINA RESULT:    -7.782      1.727      2.220
REMARK INTER + INTRA:         -11.446
REMARK INTER:                 -10.674
REMARK INTRA:                  -0.773
REMARK UNBOUND:                -0.934
REMARK  Name = 
REMARK  7 active torsions:
REMARK  status: ('A' for Active; 'I' for Inactive)
REMARK    1  A    between atoms: C_1  and  C_2
REMARK    2  A    between atoms: N_7  and  C_8
REMARK    3  A    between atoms: C_12  and  C_13
REMARK    4  A    between atoms: C_13  and  C_14
REMARK    5  A    between atoms: C_14  and  N_15
REMARK    6  A    between atoms: N_15  and  C_16
REMARK    7  A    between atoms: C_19  and  C_20
REMARK                            x       y       z     vdW  Elec       q    Type
REMARK                         _______ _______ _______ _____ _____    ______ ____
ROOT
ATOM      1  C   UNL     1      43.862   4.064  11.880  0.00  0.00    +0.000 C 
ENDROOT
BRANCH   1   2
ATOM      2  N   UNL     1      43.572   3.661  10.505  0.00  0.00    +0.000 N 
ATOM      3  H   UNL     1      42.767   3.050  10.394  0.00  0.00    +0.000 HD
BRANCH   2   4
ATOM      4  C   UNL     1      44.591   3.409   9.588  0.00  0.00    +0.000 A 
ATOM      5  C   UNL     1      45.186   4.389   8.786  0.00  0.00    +0.000 A 
ATOM      6  C   UNL     1      46.141   4.055   7.812  0.00  0.00    +0.000 A 
ATOM      7  C   UNL     1      46.499   2.722   7.593  0.00  0.00    +0.000 A 
ATOM      8  C   UNL     1      45.891   1.741   8.372  0.00  0.00    +0.000 A 
ATOM      9  F   UNL     1      46.174   0.440   8.197  0.00  0.00    +0.000 F 
ATOM     10  C   UNL     1      44.951   2.076   9.348  0.00  0.00    +0.000 A 
BRANCH   7  11
ATOM     11  C   UNL     1      47.496   2.411   6.537  0.00  0.00    +0.000 C 
ATOM     12  N   UNL     1      47.384   3.043   5.330  0.00  0.00    +0.000 N 
ATOM     13  O   UNL     1      48.404   1.606   6.733  0.00  0.00    +0.000 OA
ATOM     14  H   UNL     1      46.660   3.724   5.123  0.00  0.00    +0.000 HD
ATOM     15  H   UNL     1      48.070   2.835   4.618  0.00  0.00    +0.000 HD
ENDBRANCH   7  11
ENDBRANCH   2   4
ENDBRANCH   1   2
BRANCH   1  16
ATOM     16  C   UNL     1      45.355   4.397  12.046  0.00  0.00    +0.000 C 
BRANCH  16  21
ATOM     17  C   UNL     1      46.977   7.632  13.312  0.00  0.00    +0.000 A 
ATOM     18  C   UNL     1      46.137   8.576  12.711  0.00  0.00    +0.000 A 
ATOM     19  C   UNL     1      45.049   8.190  11.916  0.00  0.00    +0.000 A 
ATOM     20  C   UNL     1      44.776   6.840  11.701  0.00  0.00    +0.000 A 
ATOM     21  C   UNL     1      45.567   5.869  12.311  0.00  0.00    +0.000 A 
ATOM     22  C   UNL     1      46.632   6.282  13.129  0.00  0.00    +0.000 A 
BRANCH  17  29
ATOM     23  C   UNL     1      49.809   9.712  13.475  0.00  0.00    +0.000 C 
ATOM     24  C   UNL     1      48.519   9.398  14.240  0.00  0.00    +0.000 C 
ATOM     25  C   UNL     1      48.715   9.613  15.762  0.00  0.00    +0.000 C 
ATOM     26  O   UNL     1      49.624   8.658  16.340  0.00  0.00    +0.000 OA
ATOM     27  C   UNL     1      49.138   7.319  16.141  0.00  0.00    +0.000 C 
ATOM     28  C   UNL     1      48.981   6.993  14.652  0.00  0.00    +0.000 C 
ATOM     29  N   UNL     1      48.111   7.995  14.013  0.00  0.00    +0.000 N 
ENDBRANCH  17  29
ENDBRANCH  16  21
ENDBRANCH   1  16
TORSDOF 6
ENDMDL
MODEL 6
REMARK VINA RESULT:    -6.814      3.204      7.870
REMARK INTER + INTRA:         -10.139
REMARK INTER:                  -9.062
REMARK INTRA:                  -1.077
REMARK UNBOUND:                -0.934
REMARK  Name = 
REMARK  7 active torsions:
REMARK  status: ('A' for Active; 'I' for Inactive)
REMARK    1  A    between atoms: C_1  and  C_2
REMARK    2  A    between atoms: N_7  and  C_8
REMARK    3  A    between atoms: C_12  and  C_13
REMARK    4  A    between atoms: C_13  and  C_14
REMARK    5  A    between atoms: C_14  and  N_15
REMARK    6  A    between atoms: N_15  and  C_16
REMARK    7  A    between atoms: C_19  and  C_20
REMARK                            x       y       z     vdW  Elec       q    Type
REMARK                         _______ _______ _______ _____ _____    ______ ____
ROOT
ATOM      1  C   UNL     1      49.808   7.397  13.076  0.00  0.00    +0.000 C 
ENDROOT
BRANCH   1   2
ATOM      2  N   UNL     1      49.619   7.693  14.496  0.00  0.00    +0.000 N 
ATOM      3  H   UNL     1      50.308   8.320  14.902  0.00  0.00    +0.000 HD
BRANCH   2   4
ATOM      4  C   UNL     1      49.154   6.727  15.386  0.00  0.00    +0.000 A 
ATOM      5  C   UNL     1      49.833   6.334  16.545  0.00  0.00    +0.000 A 
ATOM      6  C   UNL     1      49.359   5.286  17.350  0.00  0.00    +0.000 A 
ATOM      7  C   UNL     1      48.205   4.581  16.995  0.00  0.00    +0.000 A 
ATOM      8  C   UNL     1      47.539   4.952  15.830  0.00  0.00    +0.000 A 
ATOM      9  F   UNL     1      46.438   4.301  15.421  0.00  0.00    +0.000 F 
ATOM     10  C   UNL     1      48.006   6.002  15.037  0.00  0.00    +0.000 A 
BRANCH   7  11
ATOM     11  C   UNL     1      47.751   3.465  17.864  0.00  0.00    +0.000 C 
ATOM     12  N   UNL     1      48.432   3.226  19.025  0.00  0.00    +0.000 N 
ATOM     13  O   UNL     1      46.788   2.766  17.555  0.00  0.00    +0.000 OA
ATOM     14  H   UNL     1      49.225   3.782  19.330  0.00  0.00    +0.000 HD
ATOM     15  H   UNL     1      48.113   2.471  19.617  0.00  0.00    +0.000 HD
ENDBRANCH   7  11
ENDBRANCH   2   4
ENDBRANCH   1   2
BRANCH   1  16
ATOM     16  C   UNL     1      49.123   8.462  12.203  0.00  0.00    +0.000 C 
BRANCH  16  21
ATOM     17  C   UNL     1      45.774   6.651  11.749  0.00  0.00    +0.000 A 
ATOM     18  C   UNL     1      44.893   7.675  12.116  0.00  0.00    +0.000 A 
ATOM     19  C   UNL     1      45.357   8.942  12.495  0.00  0.00    +0.000 A 
ATOM     20  C   UNL     1      46.723   9.216  12.517  0.00  0.00    +0.000 A 
ATOM     21  C   UNL     1      47.631   8.236  12.124  0.00  0.00    +0.000 A 
ATOM     22  C   UNL     1      47.139   6.983  11.718  0.00  0.00    +0.000 A 
BRANCH  17  29
ATOM     23  C   UNL     1      45.855   3.249  12.640  0.00  0.00    +0.000 C 
ATOM     24  C   UNL     1      44.877   4.421  12.510  0.00  0.00    +0.000 C 
ATOM     25  C   UNL     1      43.464   3.918  12.119  0.00  0.00    +0.000 C 
ATOM     26  O   UNL     1      43.423   3.368  10.790  0.00  0.00    +0.000 OA
ATOM     27  C   UNL     1      43.823   4.358   9.826  0.00  0.00    +0.000 C 
ATOM     28  C   UNL     1      45.244   4.864  10.093  0.00  0.00    +0.000 C 
ATOM     29  N   UNL     1      45.340   5.369  11.474  0.00  0.00    +0.000 N 
ENDBRANCH  17  29
ENDBRANCH  16  21
ENDBRANCH   1  16
TORSDOF 6
ENDMDL
MODEL 7
REMARK VINA RESULT:    -6.677      4.215      8.614
REMARK INTER + INTRA:          -9.954
REMARK INTER:                  -9.204
REMARK INTRA:                  -0.750
REMARK UNBOUND:                -0.934
REMARK  Name = 
REMARK  7 active torsions:
REMARK  status: ('A' for Active; 'I' for Inactive)
REMARK    1  A    between atoms: C_1  and  C_2
REMARK    2  A    between atoms: N_7  and  C_8
REMARK    3  A    between atoms: C_12  and  C_13
REMARK    4  A    between atoms: C_13  and  C_14
REMARK    5  A    between atoms: C_14  and  N_15
REMARK    6  A    between atoms: N_15  and  C_16
REMARK    7  A    between atoms: C_19  and  C_20
REMARK                            x       y       z     vdW  Elec       q    Type
REMARK                         _______ _______ _______ _____ _____    ______ ____
ROOT
ATOM      1  C   UNL     1      47.880   5.027  16.186  0.00  0.00    +0.000 C 
ENDROOT
BRANCH   1   2
ATOM      2  N   UNL     1      48.647   4.720  17.392  0.00  0.00    +0.000 N 
ATOM      3  H   UNL     1      48.806   5.508  18.015  0.00  0.00    +0.000 HD
BRANCH   2   4
ATOM      4  C   UNL     1      49.697   3.804  17.375  0.00  0.00    +0.000 A 
ATOM      5  C   UNL     1      49.563   2.461  17.004  0.00  0.00    +0.000 A 
ATOM      6  C   UNL     1      50.640   1.566  17.102  0.00  0.00    +0.000 A 
ATOM      7  C   UNL     1      51.873   1.986  17.607  0.00  0.00    +0.000 A 
ATOM      8  C   UNL     1      52.004   3.315  18.002  0.00  0.00    +0.000 A 
ATOM      9  F   UNL     1      53.155   3.777  18.516  0.00  0.00    +0.000 F 
ATOM     10  C   UNL     1      50.936   4.207  17.893  0.00  0.00    +0.000 A 
BRANCH   7  11
ATOM     11  C   UNL     1      52.979   0.999  17.714  0.00  0.00    +0.000 C 
ATOM     12  N   UNL     1      52.730  -0.191  18.338  0.00  0.00    +0.000 N 
ATOM     13  O   UNL     1      54.094   1.238  17.257  0.00  0.00    +0.000 OA
ATOM     14  H   UNL     1      51.823  -0.441  18.720  0.00  0.00    +0.000 HD
ATOM     15  H   UNL     1      53.483  -0.863  18.399  0.00  0.00    +0.000 HD
ENDBRANCH   7  11
ENDBRANCH   2   4
ENDBRANCH   1   2
BRANCH   1  16
ATOM     16  C   UNL     1      48.503   6.213  15.431  0.00  0.00    +0.000 C 
BRANCH  16  21
ATOM     17  C   UNL     1      46.141   5.799  12.440  0.00  0.00    +0.000 A 
ATOM     18  C   UNL     1      46.800   6.598  11.499  0.00  0.00    +0.000 A 
ATOM     19  C   UNL     1      47.997   7.258  11.805  0.00  0.00    +0.000 A 
ATOM     20  C   UNL     1      48.568   7.134  13.070  0.00  0.00    +0.000 A 
ATOM     21  C   UNL     1      47.963   6.318  14.024  0.00  0.00    +0.000 A 
ATOM     22  C   UNL     1      46.779   5.643  13.682  0.00  0.00    +0.000 A 
BRANCH  17  29
ATOM     23  C   UNL     1      42.840   6.266  11.319  0.00  0.00    +0.000 C 
ATOM     24  C   UNL     1      44.116   5.495  10.969  0.00  0.00    +0.000 C 
ATOM     25  C   UNL     1      43.774   4.140  10.296  0.00  0.00    +0.000 C 
ATOM     26  O   UNL     1      43.131   3.224  11.201  0.00  0.00    +0.000 OA
ATOM     27  C   UNL     1      43.979   2.955  12.330  0.00  0.00    +0.000 C 
ATOM     28  C   UNL     1      44.314   4.236  13.101  0.00  0.00    +0.000 C 
ATOM     29  N   UNL     1      44.909   5.226  12.187  0.00  0.00    +0.000 N 
ENDBRANCH  17  29
ENDBRANCH  16  21
ENDBRANCH   1  16
TORSDOF 6
ENDMDL
MODEL 8
REMARK VINA RESULT:    -6.383      3.471      5.492
REMARK INTER + INTRA:          -9.556
REMARK INTER:                  -8.324
REMARK INTRA:                  -1.232
REMARK UNBOUND:                -0.934
REMARK  Name = 
REMARK  7 active torsions:
REMARK  status: ('A' for Active; 'I' for Inactive)
REMARK    1  A    between atoms: C_1  and  C_2
REMARK    2  A    between atoms: N_7  and  C_8
REMARK    3  A    between atoms: C_12  and  C_13
REMARK    4  A    between atoms: C_13  and  C_14
REMARK    5  A    between atoms: C_14  and  N_15
REMARK    6  A    between atoms: N_15  and  C_16
REMARK    7  A    between atoms: C_19  and  C_20
REMARK                            x       y       z     vdW  Elec       q    Type
REMARK                         _______ _______ _______ _____ _____    ______ ____
ROOT
ATOM      1  C   UNL     1      49.814   7.719  13.269  0.00  0.00    +0.000 C 
ENDROOT
BRANCH   1   2
ATOM      2  N   UNL     1      48.372   7.956  13.215  0.00  0.00    +0.000 N 
ATOM      3  H   UNL     1      48.037   8.719  13.799  0.00  0.00    +0.000 HD
BRANCH   2   4
ATOM      4  C   UNL     1      47.464   6.906  13.098  0.00  0.00    +0.000 A 
ATOM      5  C   UNL     1      47.523   5.728  13.851  0.00  0.00    +0.000 A 
ATOM      6  C   UNL     1      46.635   4.666  13.618  0.00  0.00    +0.000 A 
ATOM      7  C   UNL     1      45.684   4.744  12.597  0.00  0.00    +0.000 A 
ATOM      8  C   UNL     1      45.638   5.904  11.828  0.00  0.00    +0.000 A 
ATOM      9  F   UNL     1      44.762   6.034  10.818  0.00  0.00    +0.000 F 
ATOM     10  C   UNL     1      46.514   6.964  12.069  0.00  0.00    +0.000 A 
BRANCH   7  11
ATOM     11  C   UNL     1      44.779   3.588  12.370  0.00  0.00    +0.000 C 
ATOM     12  N   UNL     1      45.054   2.740  11.334  0.00  0.00    +0.000 N 
ATOM     13  O   UNL     1      43.802   3.391  13.089  0.00  0.00    +0.000 OA
ATOM     14  H   UNL     1      45.855   2.852  10.719  0.00  0.00    +0.000 HD
ATOM     15  H   UNL     1      44.441   1.950  11.189  0.00  0.00    +0.000 HD
ENDBRANCH   7  11
ENDBRANCH   2   4
ENDBRANCH   1   2
BRANCH   1  16
ATOM     16  C   UNL     1      50.432   8.405  14.499  0.00  0.00    +0.000 C 
BRANCH  16  21
ATOM     17  C   UNL     1      50.536   5.482  16.977  0.00  0.00    +0.000 A 
ATOM     18  C   UNL     1      51.918   5.380  17.174  0.00  0.00    +0.000 A 
ATOM     19  C   UNL     1      52.817   6.244  16.534  0.00  0.00    +0.000 A 
ATOM     20  C   UNL     1      52.350   7.236  15.674  0.00  0.00    +0.000 A 
ATOM     21  C   UNL     1      50.980   7.394  15.479  0.00  0.00    +0.000 A 
ATOM     22  C   UNL     1      50.098   6.535  16.157  0.00  0.00    +0.000 A 
BRANCH  17  29
ATOM     23  C   UNL     1      48.501   4.613  19.712  0.00  0.00    +0.000 C 
ATOM     24  C   UNL     1      48.406   4.966  18.224  0.00  0.00    +0.000 C 
ATOM     25  C   UNL     1      47.211   4.236  17.560  0.00  0.00    +0.000 C 
ATOM     26  O   UNL     1      47.403   2.811  17.498  0.00  0.00    +0.000 OA
ATOM     27  C   UNL     1      48.588   2.495  16.747  0.00  0.00    +0.000 C 
ATOM     28  C   UNL     1      49.836   3.122  17.375  0.00  0.00    +0.000 C 
ATOM     29  N   UNL     1      49.646   4.575  17.519  0.00  0.00    +0.000 N 
ENDBRANCH  17  29
ENDBRANCH  16  21
ENDBRANCH   1  16
TORSDOF 6
ENDMDL
MODEL 9
REMARK VINA RESULT:    -6.162      2.961      4.872
REMARK INTER + INTRA:          -9.257
REMARK INTER:                  -8.348
REMARK INTRA:                  -0.910
REMARK UNBOUND:                -0.934
REMARK  Name = 
REMARK  7 active torsions:
REMARK  status: ('A' for Active; 'I' for Inactive)
REMARK    1  A    between atoms: C_1  and  C_2
REMARK    2  A    between atoms: N_7  and  C_8
REMARK    3  A    between atoms: C_12  and  C_13
REMARK    4  A    between atoms: C_13  and  C_14
REMARK    5  A    between atoms: C_14  and  N_15
REMARK    6  A    between atoms: N_15  and  C_16
REMARK    7  A    between atoms: C_19  and  C_20
REMARK                            x       y       z     vdW  Elec       q    Type
REMARK                         _______ _______ _______ _____ _____    ______ ____
ROOT
ATOM      1  C   UNL     1      48.331   7.208  13.518  0.00  0.00    +0.000 C 
ENDROOT
BRANCH   1   2
ATOM      2  N   UNL     1      46.989   7.409  12.974  0.00  0.00    +0.000 N 
ATOM      3  H   UNL     1      46.447   8.145  13.420  0.00  0.00    +0.000 HD
BRANCH   2   4
ATOM      4  C   UNL     1      46.214   6.339  12.531  0.00  0.00    +0.000 A 
ATOM      5  C   UNL     1      45.787   5.286  13.349  0.00  0.00    +0.000 A 
ATOM      6  C   UNL     1      45.090   4.188  12.822  0.00  0.00    +0.000 A 
ATOM      7  C   UNL     1      44.831   4.099  11.451  0.00  0.00    +0.000 A 
ATOM      8  C   UNL     1      45.276   5.132  10.630  0.00  0.00    +0.000 A 
ATOM      9  F   UNL     1      45.078   5.098   9.301  0.00  0.00    +0.000 F 
ATOM     10  C   UNL     1      45.958   6.229  11.157  0.00  0.00    +0.000 A 
BRANCH   7  11
ATOM     11  C   UNL     1      44.110   2.908  10.932  0.00  0.00    +0.000 C 
ATOM     12  N   UNL     1      44.706   2.161   9.956  0.00  0.00    +0.000 N 
ATOM     13  O   UNL     1      43.003   2.595  11.364  0.00  0.00    +0.000 OA
ATOM     14  H   UNL     1      45.624   2.371   9.576  0.00  0.00    +0.000 HD
ATOM     15  H   UNL     1      44.215   1.347   9.613  0.00  0.00    +0.000 HD
ENDBRANCH   7  11
ENDBRANCH   2   4
ENDBRANCH   1   2
BRANCH   1  16
ATOM     16  C   UNL     1      48.666   8.295  14.553  0.00  0.00    +0.000 C 
BRANCH  16  21
ATOM     17  C   UNL     1      49.297   5.660  17.266  0.00  0.00    +0.000 A 
ATOM     18  C   UNL     1      49.913   6.456  18.238  0.00  0.00    +0.000 A 
ATOM     19  C   UNL     1      50.117   7.828  18.042  0.00  0.00    +0.000 A 
ATOM     20  C   UNL     1      49.709   8.441  16.860  0.00  0.00    +0.000 A 
ATOM     21  C   UNL     1      49.059   7.691  15.881  0.00  0.00    +0.000 A 
ATOM     22  C   UNL     1      48.838   6.323  16.115  0.00  0.00    +0.000 A 
BRANCH  17  29
ATOM     23  C   UNL     1      47.168   2.916  17.826  0.00  0.00    +0.000 C 
ATOM     24  C   UNL     1      48.110   3.493  16.764  0.00  0.00    +0.000 C 
ATOM     25  C   UNL     1      48.767   2.359  15.936  0.00  0.00    +0.000 C 
ATOM     26  O   UNL     1      49.677   1.564  16.717  0.00  0.00    +0.000 OA
ATOM     27  C   UNL     1      50.728   2.386  17.253  0.00  0.00    +0.000 C 
ATOM     28  C   UNL     1      50.172   3.498  18.148  0.00  0.00    +0.000 C 
ATOM     29  N   UNL     1      49.181   4.290  17.400  0.00  0.00    +0.000 N 
ENDBRANCH  17  29
ENDBRANCH  16  21
ENDBRANCH   1  16
TORSDOF 6
ENDMDL
