MODEL 1
REMARK VINA RESULT:    -7.726      0.000      0.000
REMARK INTER + INTRA:          -9.464
REMARK INTER:                  -9.081
REMARK INTRA:                  -0.382
REMARK UNBOUND:                -0.382
REMARK  Name = 
REMARK  3 active torsions:
REMARK  status: ('A' for Active; 'I' for Inactive)
REMARK    1  A    between atoms: C_2  and  C_4
REMARK    2  A    between atoms: N_8  and  C_9
REMARK    3  A    between atoms: C_9  and  C_10
REMARK                            x       y       z     vdW  Elec       q    Type
REMARK                         _______ _______ _______ _____ _____    ______ ____
ROOT
ATOM      1  C   UNL     1      46.256   4.932  12.995  0.00  0.00    +0.000 A 
ATOM      2  C   UNL     1      46.465   6.005  12.135  0.00  0.00    +0.000 A 
ATOM      3  C   UNL     1      45.959   5.939  10.837  0.00  0.00    +0.000 A 
ATOM      4  C   UNL     1      45.287   4.794  10.409  0.00  0.00    +0.000 A 
ATOM      5  N   UNL     1      44.870   4.754   9.079  0.00  0.00    +0.000 N 
ATOM      6  N   UNL     1      45.088   3.745  11.229  0.00  0.00    +0.000 NA
ATOM      7  C   UNL     1      45.571   3.831  12.497  0.00  0.00    +0.000 A 
ATOM      8  H   UNL     1      44.176   5.474   8.904  0.00  0.00    +0.000 HD
ENDROOT
BRANCH   1  10
ATOM      9  N   UNL     1      47.505   5.960  14.808  0.00  0.00    +0.000 N 
ATOM     10  C   UNL     1      46.763   4.894  14.381  0.00  0.00    +0.000 C 
ATOM     11  O   UNL     1      46.497   3.971  15.135  0.00  0.00    +0.000 OA
ATOM     12  H   UNL     1      47.764   5.965  15.790  0.00  0.00    +0.000 HD
ATOM     13  H   UNL     1      47.556   6.838  14.312  0.00  0.00    +0.000 HD
ENDBRANCH   1  10
BRANCH   5  14
ATOM     14  C   UNL     1      44.468   3.453   8.567  0.00  0.00    +0.000 C 
BRANCH  14  15
ATOM     15  C   UNL     1      45.684   2.796   7.955  0.00  0.00    +0.000 A 
ATOM     16  C   UNL     1      45.976   1.454   8.236  0.00  0.00    +0.000 A 
ATOM     17  C   UNL     1      47.089   0.870   7.653  0.00  0.00    +0.000 A 
ATOM     18  N   UNL     1      47.916   1.521   6.809  0.00  0.00    +0.000 NA
ATOM     19  C   UNL     1      47.614   2.809   6.538  0.00  0.00    +0.000 A 
ATOM     20  C   UNL     1      46.524   3.482   7.075  0.00  0.00    +0.000 A 
ENDBRANCH  14  15
ENDBRANCH   5  14
TORSDOF 3
ENDMDL
MODEL 2
REMARK VINA RESULT:    -7.592      2.497      6.146
REMARK INTER + INTRA:          -9.306
REMARK INTER:                  -8.964
REMARK INTRA:                  -0.342
REMARK UNBOUND:                -0.382
REMARK  Name = 
REMARK  3 active torsions:
REMARK  status: ('A' for Active; 'I' for Inactive)
REMARK    1  A    between atoms: C_2  and  C_4
REMARK    2  A    between atoms: N_8  and  C_9
REMARK    3  A    between atoms: C_9  and  C_10
REMARK                            x       y       z     vdW  Elec       q    Type
REMARK                         _______ _______ _______ _____ _____    ______ ____
ROOT
ATOM      1  C   UNL     1      46.521   2.619   7.429  0.00  0.00    +0.000 A 
ATOM      2  C   UNL     1      45.952   1.646   8.245  0.00  0.00    +0.000 A 
ATOM      3  C   UNL     1      45.015   2.031   9.202  0.00  0.00    +0.000 A 
ATOM      4  C   UNL     1      44.688   3.379   9.354  0.00  0.00    +0.000 A 
ATOM      5  N   UNL     1      43.802   3.713  10.377  0.00  0.00    +0.000 N 
ATOM      6  N   UNL     1      45.239   4.330   8.577  0.00  0.00    +0.000 NA
ATOM      7  C   UNL     1      46.139   3.937   7.636  0.00  0.00    +0.000 A 
ATOM      8  H   UNL     1      42.890   3.301  10.205  0.00  0.00    +0.000 HD
ENDROOT
BRANCH   1  10
ATOM      9  N   UNL     1      47.526   3.090   5.267  0.00  0.00    +0.000 N 
ATOM     10  C   UNL     1      47.534   2.320   6.397  0.00  0.00    +0.000 C 
ATOM     11  O   UNL     1      48.376   1.450   6.559  0.00  0.00    +0.000 OA
ATOM     12  H   UNL     1      48.287   2.937   4.612  0.00  0.00    +0.000 HD
ATOM     13  H   UNL     1      47.014   3.956   5.186  0.00  0.00    +0.000 HD
ENDBRANCH   1  10
BRANCH   5  14
ATOM     14  C   UNL     1      43.722   5.122  10.729  0.00  0.00    +0.000 C 
BRANCH  14  15
ATOM     15  C   UNL     1      44.843   5.428  11.695  0.00  0.00    +0.000 A 
ATOM     16  C   UNL     1      45.009   4.651  12.850  0.00  0.00    +0.000 A 
ATOM     17  C   UNL     1      46.052   4.943  13.714  0.00  0.00    +0.000 A 
ATOM     18  N   UNL     1      46.938   5.937  13.503  0.00  0.00    +0.000 NA
ATOM     19  C   UNL     1      46.773   6.669  12.379  0.00  0.00    +0.000 A 
ATOM     20  C   UNL     1      45.757   6.456  11.456  0.00  0.00    +0.000 A 
ENDBRANCH  14  15
ENDBRANCH   5  14
TORSDOF 3
ENDMDL
MODEL 3
REMARK VINA RESULT:    -7.156      1.756      2.218
REMARK INTER + INTRA:          -8.793
REMARK INTER:                  -8.486
REMARK INTRA:                  -0.308
REMARK UNBOUND:                -0.382
REMARK  Name = 
REMARK  3 active torsions:
REMARK  status: ('A' for Active; 'I' for Inactive)
REMARK    1  A    between atoms: C_2  and  C_4
REMARK    2  A    between atoms: N_8  and  C_9
REMARK    3  A    between atoms: C_9  and  C_10
REMARK                            x       y       z     vdW  Elec       q    Type
REMARK                         _______ _______ _______ _____ _____    ______ ____
ROOT
ATOM      1  C   UNL     1      45.627   6.565  12.343  0.00  0.00    +0.000 A 
ATOM      2  C   UNL     1      45.459   5.418  13.113  0.00  0.00    +0.000 A 
ATOM      3  C   UNL     1      45.252   4.198  12.470  0.00  0.00    +0.000 A 
ATOM      4  C   UNL     1      45.181   4.147  11.078  0.00  0.00    +0.000 A 
ATOM      5  N   UNL     1      44.897   2.913  10.495  0.00  0.00    +0.000 N 
ATOM      6  N   UNL     1      45.332   5.251  10.323  0.00  0.00    +0.000 NA
ATOM      7  C   UNL     1      45.551   6.431  10.963  0.00  0.00    +0.000 A 
ATOM      8  H   UNL     1      45.644   2.252  10.684  0.00  0.00    +0.000 HD
ENDROOT
BRANCH   1  10
ATOM      9  N   UNL     1      44.861   8.841  12.709  0.00  0.00    +0.000 N 
ATOM     10  C   UNL     1      45.836   7.906  12.923  0.00  0.00    +0.000 C 
ATOM     11  O   UNL     1      46.816   8.164  13.605  0.00  0.00    +0.000 OA
ATOM     12  H   UNL     1      44.972   9.727  13.194  0.00  0.00    +0.000 HD
ATOM     13  H   UNL     1      43.941   8.618  12.359  0.00  0.00    +0.000 HD
ENDBRANCH   1  10
BRANCH   5  14
ATOM     14  C   UNL     1      44.511   2.934   9.093  0.00  0.00    +0.000 C 
BRANCH  14  15
ATOM     15  C   UNL     1      45.683   2.440   8.276  0.00  0.00    +0.000 A 
ATOM     16  C   UNL     1      46.006   1.076   8.261  0.00  0.00    +0.000 A 
ATOM     17  C   UNL     1      47.077   0.646   7.495  0.00  0.00    +0.000 A 
ATOM     18  N   UNL     1      47.833   1.470   6.743  0.00  0.00    +0.000 NA
ATOM     19  C   UNL     1      47.501   2.780   6.757  0.00  0.00    +0.000 A 
ATOM     20  C   UNL     1      46.450   3.307   7.495  0.00  0.00    +0.000 A 
ENDBRANCH  14  15
ENDBRANCH   5  14
TORSDOF 3
ENDMDL
MODEL 4
REMARK VINA RESULT:    -6.109      3.137      7.170
REMARK INTER + INTRA:          -7.563
REMARK INTER:                  -7.270
REMARK INTRA:                  -0.293
REMARK UNBOUND:                -0.382
REMARK  Name = 
REMARK  3 active torsions:
REMARK  status: ('A' for Active; 'I' for Inactive)
REMARK    1  A    between atoms: C_2  and  C_4
REMARK    2  A    between atoms: N_8  and  C_9
REMARK    3  A    between atoms: C_9  and  C_10
REMARK                            x       y       z     vdW  Elec       q    Type
REMARK                         _______ _______ _______ _____ _____    ______ ____
ROOT
ATOM      1  C   UNL     1      45.236   4.386  11.536  0.00  0.00    +0.000 A 
ATOM      2  C   UNL     1      45.686   5.666  11.844  0.00  0.00    +0.000 A 
ATOM      3  C   UNL     1      46.349   5.876  13.052  0.00  0.00    +0.000 A 
ATOM      4  C   UNL     1      46.521   4.819  13.946  0.00  0.00    +0.000 A 
ATOM      5  N   UNL     1      47.124   5.104  15.170  0.00  0.00    +0.000 N 
ATOM      6  N   UNL     1      46.081   3.578  13.663  0.00  0.00    +0.000 NA
ATOM      7  C   UNL     1      45.451   3.385  12.474  0.00  0.00    +0.000 A 
ATOM      8  H   UNL     1      48.082   5.410  15.030  0.00  0.00    +0.000 HD
ENDROOT
BRANCH   1  10
ATOM      9  N   UNL     1      44.762   4.835   9.195  0.00  0.00    +0.000 N 
ATOM     10  C   UNL     1      44.509   4.060  10.293  0.00  0.00    +0.000 C 
ATOM     11  O   UNL     1      43.744   3.110  10.229  0.00  0.00    +0.000 OA
ATOM     12  H   UNL     1      44.330   4.539   8.325  0.00  0.00    +0.000 HD
ATOM     13  H   UNL     1      45.543   5.471   9.130  0.00  0.00    +0.000 HD
ENDBRANCH   1  10
BRANCH   5  14
ATOM     14  C   UNL     1      47.006   4.087  16.202  0.00  0.00    +0.000 C 
BRANCH  14  15
ATOM     15  C   UNL     1      48.394   3.772  16.711  0.00  0.00    +0.000 A 
ATOM     16  C   UNL     1      48.872   2.455  16.686  0.00  0.00    +0.000 A 
ATOM     17  C   UNL     1      50.152   2.194  17.146  0.00  0.00    +0.000 A 
ATOM     18  N   UNL     1      50.984   3.146  17.614  0.00  0.00    +0.000 NA
ATOM     19  C   UNL     1      50.514   4.412  17.619  0.00  0.00    +0.000 A 
ATOM     20  C   UNL     1      49.246   4.773  17.184  0.00  0.00    +0.000 A 
ENDBRANCH  14  15
ENDBRANCH   5  14
TORSDOF 3
ENDMDL
MODEL 5
REMARK VINA RESULT:    -5.899      2.005      2.791
REMARK INTER + INTRA:          -7.316
REMARK INTER:                  -7.006
REMARK INTRA:                  -0.310
REMARK UNBOUND:                -0.382
REMARK  Name = 
REMARK  3 active torsions:
REMARK  status: ('A' for Active; 'I' for Inactive)
REMARK    1  A    between atoms: C_2  and  C_4
REMARK    2  A    between atoms: N_8  and  C_9
REMARK    3  A    between atoms: C_9  and  C_10
REMARK                            x       y       z     vdW  Elec       q    Type
REMARK                         _______ _______ _______ _____ _____    ______ ____
ROOT
ATOM      1  C   UNL     1      47.266   6.982  13.285  0.00  0.00    +0.000 A 
ATOM      2  C   UNL     1      46.874   5.879  14.038  0.00  0.00    +0.000 A 
ATOM      3  C   UNL     1      46.154   4.859  13.417  0.00  0.00    +0.000 A 
ATOM      4  C   UNL     1      45.808   4.971  12.070  0.00  0.00    +0.000 A 
ATOM      5  N   UNL     1      45.024   3.956  11.522  0.00  0.00    +0.000 N 
ATOM      6  N   UNL     1      46.173   6.038  11.334  0.00  0.00    +0.000 NA
ATOM      7  C   UNL     1      46.890   7.017  11.949  0.00  0.00    +0.000 A 
ATOM      8  H   UNL     1      45.529   3.076  11.530  0.00  0.00    +0.000 HD
ENDROOT
BRANCH   1  10
ATOM      9  N   UNL     1      47.359   8.925  14.741  0.00  0.00    +0.000 N 
ATOM     10  C   UNL     1      48.015   8.123  13.849  0.00  0.00    +0.000 C 
ATOM     11  O   UNL     1      49.187   8.321  13.567  0.00  0.00    +0.000 OA
ATOM     12  H   UNL     1      47.916   9.645  15.193  0.00  0.00    +0.000 HD
ATOM     13  H   UNL     1      46.485   8.675  15.178  0.00  0.00    +0.000 HD
ENDBRANCH   1  10
BRANCH   5  14
ATOM     14  C   UNL     1      44.410   4.238  10.235  0.00  0.00    +0.000 C 
BRANCH  14  15
ATOM     15  C   UNL     1      45.193   3.503   9.171  0.00  0.00    +0.000 A 
ATOM     16  C   UNL     1      45.864   4.219   8.170  0.00  0.00    +0.000 A 
ATOM     17  C   UNL     1      46.586   3.524   7.214  0.00  0.00    +0.000 A 
ATOM     18  N   UNL     1      46.693   2.180   7.192  0.00  0.00    +0.000 NA
ATOM     19  C   UNL     1      46.052   1.505   8.171  0.00  0.00    +0.000 A 
ATOM     20  C   UNL     1      45.301   2.111   9.170  0.00  0.00    +0.000 A 
ENDBRANCH  14  15
ENDBRANCH   5  14
TORSDOF 3
ENDMDL
MODEL 6
REMARK VINA RESULT:    -5.697      3.918      6.133
REMARK INTER + INTRA:          -7.079
REMARK INTER:                  -6.848
REMARK INTRA:                  -0.230
REMARK UNBOUND:                -0.382
REMARK  Name = 
REMARK  3 active torsions:
REMARK  status: ('A' for Active; 'I' for Inactive)
REMARK    1  A    between atoms: C_2  and  C_4
REMARK    2  A    between atoms: N_8  and  C_9
REMARK    3  A    between atoms: C_9  and  C_10
REMARK                            x       y       z     vdW  Elec       q    Type
REMARK                         _______ _______ _______ _____ _____    ______ ____
ROOT
ATOM      1  C   UNL     1      48.944   4.649  18.119  0.00  0.00    +0.000 A 
ATOM      2  C   UNL     1      48.158   3.502  18.069  0.00  0.00    +0.000 A 
ATOM      3  C   UNL     1      47.412   3.245  16.920  0.00  0.00    +0.000 A 
ATOM      4  C   UNL     1      47.434   4.149  15.858  0.00  0.00    +0.000 A 
ATOM      5  N   UNL     1      46.610   3.877  14.766  0.00  0.00    +0.000 N 
ATOM      6  N   UNL     1      48.183   5.267  15.899  0.00  0.00    +0.000 NA
ATOM      7  C   UNL     1      48.920   5.495  17.019  0.00  0.00    +0.000 A 
ATOM      8  H   UNL     1      46.901   3.019  14.309  0.00  0.00    +0.000 HD
ENDROOT
BRANCH   1  10
ATOM      9  N   UNL     1      50.911   4.319  19.508  0.00  0.00    +0.000 N 
ATOM     10  C   UNL     1      49.758   5.022  19.293  0.00  0.00    +0.000 C 
ATOM     11  O   UNL     1      49.442   5.950  20.022  0.00  0.00    +0.000 OA
ATOM     12  H   UNL     1      51.507   4.651  20.260  0.00  0.00    +0.000 HD
ATOM     13  H   UNL     1      51.330   3.712  18.819  0.00  0.00    +0.000 HD
ENDBRANCH   1  10
BRANCH   5  14
ATOM     14  C   UNL     1      46.400   4.968  13.828  0.00  0.00    +0.000 C 
BRANCH  14  15
ATOM     15  C   UNL     1      45.177   4.644  12.999  0.00  0.00    +0.000 A 
ATOM     16  C   UNL     1      45.122   3.454  12.261  0.00  0.00    +0.000 A 
ATOM     17  C   UNL     1      43.986   3.173  11.520  0.00  0.00    +0.000 A 
ATOM     18  N   UNL     1      42.909   3.982  11.472  0.00  0.00    +0.000 NA
ATOM     19  C   UNL     1      42.972   5.119  12.200  0.00  0.00    +0.000 A 
ATOM     20  C   UNL     1      44.066   5.490  12.970  0.00  0.00    +0.000 A 
ENDBRANCH  14  15
ENDBRANCH   5  14
TORSDOF 3
ENDMDL
MODEL 7
REMARK VINA RESULT:    -5.467      3.341      6.236
REMARK INTER + INTRA:          -6.809
REMARK INTER:                  -6.520
REMARK INTRA:                  -0.289
REMARK UNBOUND:                -0.382
REMARK  Name = 
REMARK  3 active torsions:
REMARK  status: ('A' for Active; 'I' for Inactive)
REMARK    1  A    between atoms: C_2  and  C_4
REMARK    2  A    between atoms: N_8  and  C_9
REMARK    3  A    between atoms: C_9  and  C_10
REMARK                            x       y       z     vdW  Elec       q    Type
REMARK                         _______ _______ _______ _____ _____    ______ ____
ROOT
ATOM      1  C   UNL     1      44.604   4.020  11.746  0.00  0.00    +0.000 A 
ATOM      2  C   UNL     1      45.414   3.894  12.871  0.00  0.00    +0.000 A 
ATOM      3  C   UNL     1      45.994   5.038  13.417  0.00  0.00    +0.000 A 
ATOM      4  C   UNL     1      45.788   6.279  12.814  0.00  0.00    +0.000 A 
ATOM      5  N   UNL     1      46.454   7.376  13.360  0.00  0.00    +0.000 N 
ATOM      6  N   UNL     1      45.016   6.412  11.720  0.00  0.00    +0.000 NA
ATOM      7  C   UNL     1      44.442   5.290  11.209  0.00  0.00    +0.000 A 
ATOM      8  H   UNL     1      46.130   7.553  14.305  0.00  0.00    +0.000 HD
ENDROOT
BRANCH   1  10
ATOM      9  N   UNL     1      44.575   2.355   9.976  0.00  0.00    +0.000 N 
ATOM     10  C   UNL     1      43.957   2.872  11.081  0.00  0.00    +0.000 C 
ATOM     11  O   UNL     1      42.933   2.372  11.521  0.00  0.00    +0.000 OA
ATOM     12  H   UNL     1      44.171   1.508   9.589  0.00  0.00    +0.000 HD
ATOM     13  H   UNL     1      45.524   2.576   9.714  0.00  0.00    +0.000 HD
ENDBRANCH   1  10
BRANCH   5  14
ATOM     14  C   UNL     1      46.491   8.580  12.546  0.00  0.00    +0.000 C 
BRANCH  14  15
ATOM     15  C   UNL     1      47.915   8.791  12.085  0.00  0.00    +0.000 A 
ATOM     16  C   UNL     1      48.360  10.074  11.738  0.00  0.00    +0.000 A 
ATOM     17  C   UNL     1      49.673  10.244  11.331  0.00  0.00    +0.000 A 
ATOM     18  N   UNL     1      50.567   9.237  11.258  0.00  0.00    +0.000 NA
ATOM     19  C   UNL     1      50.126   8.009  11.608  0.00  0.00    +0.000 A 
ATOM     20  C   UNL     1      48.830   7.738  12.024  0.00  0.00    +0.000 A 
ENDBRANCH  14  15
ENDBRANCH   5  14
TORSDOF 3
ENDMDL
MODEL 8
REMARK VINA RESULT:    -4.869      4.566      7.427
REMARK INTER + INTRA:          -6.105
REMARK INTER:                  -5.768
REMARK INTRA:                  -0.338
REMARK UNBOUND:                -0.382
REMARK  Name = 
REMARK  3 active torsions:
REMARK  status: ('A' for Active; 'I' for Inactive)
REMARK    1  A    between atoms: C_2  and  C_4
REMARK    2  A    between atoms: N_8  and  C_9
REMARK    3  A    between atoms: C_9  and  C_10
REMARK                            x       y       z     vdW  Elec       q    Type
REMARK                         _______ _______ _______ _____ _____    ______ ____
ROOT
ATOM      1  C   UNL     1      51.554   2.945  17.726  0.00  0.00    +0.000 A 
ATOM      2  C   UNL     1      51.491   4.333  17.787  0.00  0.00    +0.000 A 
ATOM      3  C   UNL     1      50.318   4.975  17.392  0.00  0.00    +0.000 A 
ATOM      4  C   UNL     1      49.244   4.226  16.911  0.00  0.00    +0.000 A 
ATOM      5  N   UNL     1      48.125   4.926  16.460  0.00  0.00    +0.000 N 
ATOM      6  N   UNL     1      49.296   2.883  16.838  0.00  0.00    +0.000 NA
ATOM      7  C   UNL     1      50.440   2.271  17.244  0.00  0.00    +0.000 A 
ATOM      8  H   UNL     1      47.693   5.434  17.226  0.00  0.00    +0.000 HD
ENDROOT
BRANCH   1  10
ATOM      9  N   UNL     1      53.331   2.456  19.309  0.00  0.00    +0.000 N 
ATOM     10  C   UNL     1      52.752   2.170  18.104  0.00  0.00    +0.000 C 
ATOM     11  O   UNL     1      53.189   1.278  17.392  0.00  0.00    +0.000 OA
ATOM     12  H   UNL     1      54.094   1.851  19.598  0.00  0.00    +0.000 HD
ATOM     13  H   UNL     1      52.883   3.009  20.025  0.00  0.00    +0.000 HD
ENDBRANCH   1  10
BRANCH   5  14
ATOM     14  C   UNL     1      47.162   4.170  15.676  0.00  0.00    +0.000 C 
BRANCH  14  15
ATOM     15  C   UNL     1      46.940   4.902  14.373  0.00  0.00    +0.000 A 
ATOM     16  C   UNL     1      47.760   5.984  14.025  0.00  0.00    +0.000 A 
ATOM     17  C   UNL     1      47.546   6.631  12.819  0.00  0.00    +0.000 A 
ATOM     18  N   UNL     1      46.588   6.272  11.940  0.00  0.00    +0.000 NA
ATOM     19  C   UNL     1      45.814   5.219  12.284  0.00  0.00    +0.000 A 
ATOM     20  C   UNL     1      45.949   4.510  13.470  0.00  0.00    +0.000 A 
ENDBRANCH  14  15
ENDBRANCH   5  14
TORSDOF 3
ENDMDL
MODEL 9
REMARK VINA RESULT:    -4.778      3.863      8.233
REMARK INTER + INTRA:          -5.999
REMARK INTER:                  -5.609
REMARK INTRA:                  -0.389
REMARK UNBOUND:                -0.382
REMARK  Name = 
REMARK  3 active torsions:
REMARK  status: ('A' for Active; 'I' for Inactive)
REMARK    1  A    between atoms: C_2  and  C_4
REMARK    2  A    between atoms: N_8  and  C_9
REMARK    3  A    between atoms: C_9  and  C_10
REMARK                            x       y       z     vdW  Elec       q    Type
REMARK                         _______ _______ _______ _____ _____    ______ ____
ROOT
ATOM      1  C   UNL     1      45.895   4.844  12.684  0.00  0.00    +0.000 A 
ATOM      2  C   UNL     1      46.195   6.096  12.155  0.00  0.00    +0.000 A 
ATOM      3  C   UNL     1      47.235   6.834  12.717  0.00  0.00    +0.000 A 
ATOM      4  C   UNL     1      47.932   6.331  13.815  0.00  0.00    +0.000 A 
ATOM      5  N   UNL     1      48.912   7.146  14.382  0.00  0.00    +0.000 N 
ATOM      6  N   UNL     1      47.644   5.126  14.342  0.00  0.00    +0.000 NA
ATOM      7  C   UNL     1      46.639   4.410  13.772  0.00  0.00    +0.000 A 
ATOM      8  H   UNL     1      49.664   7.308  13.720  0.00  0.00    +0.000 HD
ENDROOT
BRANCH   1  10
ATOM      9  N   UNL     1      44.826   2.668  12.523  0.00  0.00    +0.000 N 
ATOM     10  C   UNL     1      44.804   3.990  12.174  0.00  0.00    +0.000 C 
ATOM     11  O   UNL     1      43.891   4.448  11.504  0.00  0.00    +0.000 OA
ATOM     12  H   UNL     1      44.019   2.115  12.247  0.00  0.00    +0.000 HD
ATOM     13  H   UNL     1      45.415   2.293  13.252  0.00  0.00    +0.000 HD
ENDBRANCH   1  10
BRANCH   5  14
ATOM     14  C   UNL     1      49.397   6.756  15.696  0.00  0.00    +0.000 C 
BRANCH  14  15
ATOM     15  C   UNL     1      48.757   7.665  16.720  0.00  0.00    +0.000 A 
ATOM     16  C   UNL     1      48.427   7.173  17.991  0.00  0.00    +0.000 A 
ATOM     17  C   UNL     1      47.853   8.029  18.916  0.00  0.00    +0.000 A 
ATOM     18  N   UNL     1      47.597   9.330  18.670  0.00  0.00    +0.000 NA
ATOM     19  C   UNL     1      47.933   9.792  17.446  0.00  0.00    +0.000 A 
ATOM     20  C   UNL     1      48.507   9.013  16.451  0.00  0.00    +0.000 A 
ENDBRANCH  14  15
ENDBRANCH   5  14
TORSDOF 3
ENDMDL
