MODEL 1
REMARK VINA RESULT:    -7.756      0.000      0.000
REMARK INTER + INTRA:         -10.227
REMARK INTER:                  -9.570
REMARK INTRA:                  -0.657
REMARK UNBOUND:                -0.657
REMARK  Name = 
REMARK  5 active torsions:
REMARK  status: ('A' for Active; 'I' for Inactive)
REMARK    1  A    between atoms: C_1  and  C_2
REMARK    2  A    between atoms: C_4  and  C_5
REMARK    3  A    between atoms: N_10  and  C_11
REMARK    4  A    between atoms: C_11  and  C_12
REMARK    5  A    between atoms: C_16  and  N_17
REMARK                            x       y       z     vdW  Elec       q    Type
REMARK                         _______ _______ _______ _____ _____    ______ ____
ROOT
ATOM      1  C   UNL     1      48.389   5.131  20.665  0.00  0.00    +0.000 C 
ATOM      2  C   UNL     1      48.682   4.838  19.226  0.00  0.00    +0.000 A 
ATOM      3  C   UNL     1      49.169   3.617  18.836  0.00  0.00    +0.000 A 
ATOM      4  C   UNL     1      49.384   3.479  17.483  0.00  0.00    +0.000 A 
ATOM      5  N   UNL     1      49.136   4.444  16.559  0.00  0.00    +0.000 NA
ATOM      6  C   UNL     1      48.638   5.590  17.034  0.00  0.00    +0.000 A 
ATOM      7  N   UNL     1      48.249   6.612  16.186  0.00  0.00    +0.000 N 
ATOM      8  N   UNL     1      48.427   5.824  18.338  0.00  0.00    +0.000 NA
ATOM      9  H   UNL     1      48.150   7.451  16.745  0.00  0.00    +0.000 HD
ENDROOT
BRANCH   4  10
ATOM     10  C   UNL     1      49.910   2.171  16.977  0.00  0.00    +0.000 C 
ATOM     11  N   UNL     1      50.844   1.561  17.772  0.00  0.00    +0.000 N 
ATOM     12  O   UNL     1      49.537   1.672  15.926  0.00  0.00    +0.000 OA
ATOM     13  H   UNL     1      51.158   2.014  18.620  0.00  0.00    +0.000 HD
ATOM     14  H   UNL     1      51.258   0.693  17.469  0.00  0.00    +0.000 HD
ENDBRANCH   4  10
BRANCH   7  15
ATOM     15  C   UNL     1      48.984   6.759  14.954  0.00  0.00    +0.000 C 
BRANCH  15  16
ATOM     16  C   UNL     1      48.048   6.655  13.766  0.00  0.00    +0.000 A 
ATOM     17  C   UNL     1      48.254   7.404  12.604  0.00  0.00    +0.000 A 
ATOM     18  C   UNL     1      47.416   7.226  11.502  0.00  0.00    +0.000 A 
ATOM     19  C   UNL     1      46.376   6.296  11.556  0.00  0.00    +0.000 A 
ATOM     20  C   UNL     1      46.120   5.541  12.708  0.00  0.00    +0.000 A 
ATOM     21  C   UNL     1      46.957   5.765  13.813  0.00  0.00    +0.000 A 
BRANCH  20  22
ATOM     22  N   UNL     1      45.075   4.635  12.741  0.00  0.00    +0.000 N 
ATOM     23  C   UNL     1      45.180   3.283  12.172  0.00  0.00    +0.000 C 
ATOM     24  C   UNL     1      44.278   3.132  10.941  0.00  0.00    +0.000 C 
ATOM     25  O   UNL     1      42.918   3.492  11.238  0.00  0.00    +0.000 OA
ATOM     26  C   UNL     1      42.855   4.863  11.665  0.00  0.00    +0.000 C 
ATOM     27  C   UNL     1      43.693   5.111  12.932  0.00  0.00    +0.000 C 
ENDBRANCH  20  22
ENDBRANCH  15  16
ENDBRANCH   7  15
TORSDOF 4
ENDMDL
MODEL 2
REMARK VINA RESULT:    -7.179      2.327      3.651
REMARK INTER + INTRA:          -9.515
REMARK INTER:                  -9.052
REMARK INTRA:                  -0.463
REMARK UNBOUND:                -0.657
REMARK  Name = 
REMARK  5 active torsions:
REMARK  status: ('A' for Active; 'I' for Inactive)
REMARK    1  A    between atoms: C_1  and  C_2
REMARK    2  A    between atoms: C_4  and  C_5
REMARK    3  A    between atoms: N_10  and  C_11
REMARK    4  A    between atoms: C_11  and  C_12
REMARK    5  A    between atoms: C_16  and  N_17
REMARK                            x       y       z     vdW  Elec       q    Type
REMARK                         _______ _______ _______ _____ _____    ______ ____
ROOT
ATOM      1  C   UNL     1      50.344   7.666  16.371  0.00  0.00    +0.000 C 
ATOM      2  C   UNL     1      49.560   6.391  16.308  0.00  0.00    +0.000 A 
ATOM      3  C   UNL     1      49.781   5.379  17.207  0.00  0.00    +0.000 A 
ATOM      4  C   UNL     1      48.985   4.268  17.042  0.00  0.00    +0.000 A 
ATOM      5  N   UNL     1      48.027   4.138  16.086  0.00  0.00    +0.000 NA
ATOM      6  C   UNL     1      47.870   5.188  15.274  0.00  0.00    +0.000 A 
ATOM      7  N   UNL     1      46.863   5.222  14.327  0.00  0.00    +0.000 N 
ATOM      8  N   UNL     1      48.621   6.298  15.342  0.00  0.00    +0.000 NA
ATOM      9  H   UNL     1      47.081   5.965  13.674  0.00  0.00    +0.000 HD
ENDROOT
BRANCH   4  10
ATOM     10  C   UNL     1      49.160   3.120  17.989  0.00  0.00    +0.000 C 
ATOM     11  N   UNL     1      48.419   3.185  19.139  0.00  0.00    +0.000 N 
ATOM     12  O   UNL     1      49.912   2.185  17.761  0.00  0.00    +0.000 OA
ATOM     13  H   UNL     1      47.831   3.987  19.316  0.00  0.00    +0.000 HD
ATOM     14  H   UNL     1      48.517   2.457  19.831  0.00  0.00    +0.000 HD
ENDBRANCH   4  10
BRANCH   7  15
ATOM     15  C   UNL     1      46.473   3.963  13.738  0.00  0.00    +0.000 C 
BRANCH  15  16
ATOM     16  C   UNL     1      45.330   4.169  12.763  0.00  0.00    +0.000 A 
ATOM     17  C   UNL     1      44.239   4.984  13.076  0.00  0.00    +0.000 A 
ATOM     18  C   UNL     1      43.243   5.212  12.125  0.00  0.00    +0.000 A 
ATOM     19  C   UNL     1      43.340   4.633  10.858  0.00  0.00    +0.000 A 
ATOM     20  C   UNL     1      44.404   3.791  10.509  0.00  0.00    +0.000 A 
ATOM     21  C   UNL     1      45.373   3.551  11.498  0.00  0.00    +0.000 A 
BRANCH  20  22
ATOM     22  N   UNL     1      44.469   3.219   9.252  0.00  0.00    +0.000 N 
ATOM     23  C   UNL     1      44.648   1.774   9.047  0.00  0.00    +0.000 C 
ATOM     24  C   UNL     1      46.019   1.470   8.430  0.00  0.00    +0.000 C 
ATOM     25  O   UNL     1      46.230   2.220   7.222  0.00  0.00    +0.000 OA
ATOM     26  C   UNL     1      46.175   3.629   7.503  0.00  0.00    +0.000 C 
ATOM     27  C   UNL     1      44.812   4.049   8.082  0.00  0.00    +0.000 C 
ENDBRANCH  20  22
ENDBRANCH  15  16
ENDBRANCH   7  15
TORSDOF 4
ENDMDL
MODEL 3
REMARK VINA RESULT:    -7.097      1.751      2.287
REMARK INTER + INTRA:          -9.414
REMARK INTER:                  -8.739
REMARK INTRA:                  -0.675
REMARK UNBOUND:                -0.657
REMARK  Name = 
REMARK  5 active torsions:
REMARK  status: ('A' for Active; 'I' for Inactive)
REMARK    1  A    between atoms: C_1  and  C_2
REMARK    2  A    between atoms: C_4  and  C_5
REMARK    3  A    between atoms: N_10  and  C_11
REMARK    4  A    between atoms: C_11  and  C_12
REMARK    5  A    between atoms: C_16  and  N_17
REMARK                            x       y       z     vdW  Elec       q    Type
REMARK                         _______ _______ _______ _____ _____    ______ ____
ROOT
ATOM      1  C   UNL     1      50.374   6.984  18.783  0.00  0.00    +0.000 C 
ATOM      2  C   UNL     1      49.586   6.298  17.710  0.00  0.00    +0.000 A 
ATOM      3  C   UNL     1      49.089   5.033  17.895  0.00  0.00    +0.000 A 
ATOM      4  C   UNL     1      48.375   4.525  16.833  0.00  0.00    +0.000 A 
ATOM      5  N   UNL     1      48.139   5.191  15.672  0.00  0.00    +0.000 NA
ATOM      6  C   UNL     1      48.642   6.427  15.597  0.00  0.00    +0.000 A 
ATOM      7  N   UNL     1      48.385   7.245  14.512  0.00  0.00    +0.000 N 
ATOM      8  N   UNL     1      49.375   6.990  16.569  0.00  0.00    +0.000 NA
ATOM      9  H   UNL     1      49.050   8.009  14.539  0.00  0.00    +0.000 HD
ENDROOT
BRANCH   4  10
ATOM     10  C   UNL     1      47.794   3.150  16.959  0.00  0.00    +0.000 C 
ATOM     11  N   UNL     1      48.602   2.126  16.541  0.00  0.00    +0.000 N 
ATOM     12  O   UNL     1      46.675   2.945  17.403  0.00  0.00    +0.000 OA
ATOM     13  H   UNL     1      49.511   2.329  16.146  0.00  0.00    +0.000 HD
ATOM     14  H   UNL     1      48.255   1.180  16.572  0.00  0.00    +0.000 HD
ENDBRANCH   4  10
BRANCH   7  15
ATOM     15  C   UNL     1      48.219   6.602  13.231  0.00  0.00    +0.000 C 
BRANCH  15  16
ATOM     16  C   UNL     1      46.879   6.974  12.624  0.00  0.00    +0.000 A 
ATOM     17  C   UNL     1      46.466   8.305  12.523  0.00  0.00    +0.000 A 
ATOM     18  C   UNL     1      45.261   8.614  11.889  0.00  0.00    +0.000 A 
ATOM     19  C   UNL     1      44.472   7.596  11.351  0.00  0.00    +0.000 A 
ATOM     20  C   UNL     1      44.836   6.247  11.451  0.00  0.00    +0.000 A 
ATOM     21  C   UNL     1      46.036   5.962  12.124  0.00  0.00    +0.000 A 
BRANCH  20  22
ATOM     22  N   UNL     1      44.030   5.257  10.921  0.00  0.00    +0.000 N 
ATOM     23  C   UNL     1      42.991   4.575  11.707  0.00  0.00    +0.000 C 
ATOM     24  C   UNL     1      43.355   3.104  11.942  0.00  0.00    +0.000 C 
ATOM     25  O   UNL     1      43.632   2.426  10.706  0.00  0.00    +0.000 OA
ATOM     26  C   UNL     1      44.741   3.053  10.040  0.00  0.00    +0.000 C 
ATOM     27  C   UNL     1      44.456   4.530   9.710  0.00  0.00    +0.000 C 
ENDBRANCH  20  22
ENDBRANCH  15  16
ENDBRANCH   7  15
TORSDOF 4
ENDMDL
MODEL 4
REMARK VINA RESULT:    -7.002      1.708      2.223
REMARK INTER + INTRA:          -9.297
REMARK INTER:                  -8.773
REMARK INTRA:                  -0.524
REMARK UNBOUND:                -0.657
REMARK  Name = 
REMARK  5 active torsions:
REMARK  status: ('A' for Active; 'I' for Inactive)
REMARK    1  A    between atoms: C_1  and  C_2
REMARK    2  A    between atoms: C_4  and  C_5
REMARK    3  A    between atoms: N_10  and  C_11
REMARK    4  A    between atoms: C_11  and  C_12
REMARK    5  A    between atoms: C_16  and  N_17
REMARK                            x       y       z     vdW  Elec       q    Type
REMARK                         _______ _______ _______ _____ _____    ______ ____
ROOT
ATOM      1  C   UNL     1      50.854   7.228  18.492  0.00  0.00    +0.000 C 
ATOM      2  C   UNL     1      50.316   5.979  17.864  0.00  0.00    +0.000 A 
ATOM      3  C   UNL     1      50.982   4.785  17.980  0.00  0.00    +0.000 A 
ATOM      4  C   UNL     1      50.373   3.715  17.364  0.00  0.00    +0.000 A 
ATOM      5  N   UNL     1      49.194   3.779  16.691  0.00  0.00    +0.000 NA
ATOM      6  C   UNL     1      48.609   4.981  16.656  0.00  0.00    +0.000 A 
ATOM      7  N   UNL     1      47.358   5.157  16.091  0.00  0.00    +0.000 N 
ATOM      8  N   UNL     1      49.144   6.084  17.201  0.00  0.00    +0.000 NA
ATOM      9  H   UNL     1      47.226   6.150  15.945  0.00  0.00    +0.000 HD
ENDROOT
BRANCH   4  10
ATOM     10  C   UNL     1      51.035   2.374  17.450  0.00  0.00    +0.000 C 
ATOM     11  N   UNL     1      52.167   2.322  18.220  0.00  0.00    +0.000 N 
ATOM     12  O   UNL     1      50.603   1.386  16.875  0.00  0.00    +0.000 OA
ATOM     13  H   UNL     1      52.519   3.163  18.656  0.00  0.00    +0.000 HD
ATOM     14  H   UNL     1      52.675   1.453  18.291  0.00  0.00    +0.000 HD
ENDBRANCH   4  10
BRANCH   7  15
ATOM     15  C   UNL     1      47.015   4.306  14.978  0.00  0.00    +0.000 C 
BRANCH  15  16
ATOM     16  C   UNL     1      46.777   5.139  13.733  0.00  0.00    +0.000 A 
ATOM     17  C   UNL     1      47.413   6.369  13.542  0.00  0.00    +0.000 A 
ATOM     18  C   UNL     1      47.229   7.070  12.349  0.00  0.00    +0.000 A 
ATOM     19  C   UNL     1      46.416   6.543  11.344  0.00  0.00    +0.000 A 
ATOM     20  C   UNL     1      45.741   5.325  11.503  0.00  0.00    +0.000 A 
ATOM     21  C   UNL     1      45.917   4.657  12.726  0.00  0.00    +0.000 A 
BRANCH  20  22
ATOM     22  N   UNL     1      44.931   4.830  10.497  0.00  0.00    +0.000 N 
ATOM     23  C   UNL     1      43.846   3.873  10.752  0.00  0.00    +0.000 C 
ATOM     24  C   UNL     1      44.163   2.504  10.137  0.00  0.00    +0.000 C 
ATOM     25  O   UNL     1      44.471   2.615   8.737  0.00  0.00    +0.000 OA
ATOM     26  C   UNL     1      45.620   3.458   8.553  0.00  0.00    +0.000 C 
ATOM     27  C   UNL     1      45.385   4.880   9.095  0.00  0.00    +0.000 C 
ENDBRANCH  20  22
ENDBRANCH  15  16
ENDBRANCH   7  15
TORSDOF 4
ENDMDL
MODEL 5
REMARK VINA RESULT:    -6.918      2.575      3.832
REMARK INTER + INTRA:          -9.193
REMARK INTER:                  -8.642
REMARK INTRA:                  -0.551
REMARK UNBOUND:                -0.657
REMARK  Name = 
REMARK  5 active torsions:
REMARK  status: ('A' for Active; 'I' for Inactive)
REMARK    1  A    between atoms: C_1  and  C_2
REMARK    2  A    between atoms: C_4  and  C_5
REMARK    3  A    between atoms: N_10  and  C_11
REMARK    4  A    between atoms: C_11  and  C_12
REMARK    5  A    between atoms: C_16  and  N_17
REMARK                            x       y       z     vdW  Elec       q    Type
REMARK                         _______ _______ _______ _____ _____    ______ ____
ROOT
ATOM      1  C   UNL     1      50.387   1.539  17.251  0.00  0.00    +0.000 C 
ATOM      2  C   UNL     1      49.341   2.587  17.022  0.00  0.00    +0.000 A 
ATOM      3  C   UNL     1      49.094   3.558  17.959  0.00  0.00    +0.000 A 
ATOM      4  C   UNL     1      48.115   4.463  17.618  0.00  0.00    +0.000 A 
ATOM      5  N   UNL     1      47.425   4.450  16.447  0.00  0.00    +0.000 NA
ATOM      6  C   UNL     1      47.755   3.481  15.587  0.00  0.00    +0.000 A 
ATOM      7  N   UNL     1      47.199   3.420  14.322  0.00  0.00    +0.000 N 
ATOM      8  N   UNL     1      48.674   2.538  15.849  0.00  0.00    +0.000 NA
ATOM      9  H   UNL     1      47.386   2.496  13.950  0.00  0.00    +0.000 HD
ENDROOT
BRANCH   4  10
ATOM     10  C   UNL     1      47.790   5.559  18.586  0.00  0.00    +0.000 C 
ATOM     11  N   UNL     1      46.462   5.706  18.889  0.00  0.00    +0.000 N 
ATOM     12  O   UNL     1      48.645   6.279  19.079  0.00  0.00    +0.000 OA
ATOM     13  H   UNL     1      45.774   5.117  18.440  0.00  0.00    +0.000 HD
ATOM     14  H   UNL     1      46.178   6.447  19.511  0.00  0.00    +0.000 HD
ENDBRANCH   4  10
BRANCH   7  15
ATOM     15  C   UNL     1      45.844   3.893  14.177  0.00  0.00    +0.000 C 
BRANCH  15  16
ATOM     16  C   UNL     1      45.694   4.673  12.885  0.00  0.00    +0.000 A 
ATOM     17  C   UNL     1      45.876   6.058  12.841  0.00  0.00    +0.000 A 
ATOM     18  C   UNL     1      45.806   6.731  11.620  0.00  0.00    +0.000 A 
ATOM     19  C   UNL     1      45.561   6.022  10.443  0.00  0.00    +0.000 A 
ATOM     20  C   UNL     1      45.350   4.637  10.444  0.00  0.00    +0.000 A 
ATOM     21  C   UNL     1      45.392   3.991  11.690  0.00  0.00    +0.000 A 
BRANCH  20  22
ATOM     22  N   UNL     1      45.096   3.960   9.265  0.00  0.00    +0.000 N 
ATOM     23  C   UNL     1      44.609   2.574   9.237  0.00  0.00    +0.000 C 
ATOM     24  C   UNL     1      45.674   1.627   8.669  0.00  0.00    +0.000 C 
ATOM     25  O   UNL     1      46.136   2.067   7.381  0.00  0.00    +0.000 OA
ATOM     26  C   UNL     1      46.721   3.375   7.490  0.00  0.00    +0.000 C 
ATOM     27  C   UNL     1      45.713   4.417   8.006  0.00  0.00    +0.000 C 
ENDBRANCH  20  22
ENDBRANCH  15  16
ENDBRANCH   7  15
TORSDOF 4
ENDMDL
MODEL 6
REMARK VINA RESULT:    -6.831      4.673      6.083
REMARK INTER + INTRA:          -9.085
REMARK INTER:                  -8.469
REMARK INTRA:                  -0.616
REMARK UNBOUND:                -0.657
REMARK  Name = 
REMARK  5 active torsions:
REMARK  status: ('A' for Active; 'I' for Inactive)
REMARK    1  A    between atoms: C_1  and  C_2
REMARK    2  A    between atoms: C_4  and  C_5
REMARK    3  A    between atoms: N_10  and  C_11
REMARK    4  A    between atoms: C_11  and  C_12
REMARK    5  A    between atoms: C_16  and  N_17
REMARK                            x       y       z     vdW  Elec       q    Type
REMARK                         _______ _______ _______ _____ _____    ______ ____
ROOT
ATOM      1  C   UNL     1      50.841   7.699  11.009  0.00  0.00    +0.000 C 
ATOM      2  C   UNL     1      49.638   7.908  11.877  0.00  0.00    +0.000 A 
ATOM      3  C   UNL     1      49.725   8.616  13.049  0.00  0.00    +0.000 A 
ATOM      4  C   UNL     1      48.543   8.741  13.743  0.00  0.00    +0.000 A 
ATOM      5  N   UNL     1      47.350   8.234  13.336  0.00  0.00    +0.000 NA
ATOM      6  C   UNL     1      47.362   7.583  12.168  0.00  0.00    +0.000 A 
ATOM      7  N   UNL     1      46.196   7.109  11.596  0.00  0.00    +0.000 N 
ATOM      8  N   UNL     1      48.472   7.385  11.441  0.00  0.00    +0.000 NA
ATOM      9  H   UNL     1      46.456   6.447  10.874  0.00  0.00    +0.000 HD
ENDROOT
BRANCH   4  10
ATOM     10  C   UNL     1      48.553   9.506  15.031  0.00  0.00    +0.000 C 
ATOM     11  N   UNL     1      47.575   9.166  15.928  0.00  0.00    +0.000 N 
ATOM     12  O   UNL     1      49.373  10.377  15.276  0.00  0.00    +0.000 OA
ATOM     13  H   UNL     1      46.889   8.464  15.685  0.00  0.00    +0.000 HD
ATOM     14  H   UNL     1      47.510   9.667  16.801  0.00  0.00    +0.000 HD
ENDBRANCH   4  10
BRANCH   7  15
ATOM     15  C   UNL     1      45.151   6.680  12.493  0.00  0.00    +0.000 C 
BRANCH  15  16
ATOM     16  C   UNL     1      44.661   5.297  12.110  0.00  0.00    +0.000 A 
ATOM     17  C   UNL     1      43.947   4.498  13.007  0.00  0.00    +0.000 A 
ATOM     18  C   UNL     1      43.446   3.263  12.594  0.00  0.00    +0.000 A 
ATOM     19  C   UNL     1      43.650   2.827  11.284  0.00  0.00    +0.000 A 
ATOM     20  C   UNL     1      44.379   3.585  10.358  0.00  0.00    +0.000 A 
ATOM     21  C   UNL     1      44.902   4.808  10.811  0.00  0.00    +0.000 A 
BRANCH  20  22
ATOM     22  N   UNL     1      44.579   3.124   9.070  0.00  0.00    +0.000 N 
ATOM     23  C   UNL     1      44.819   1.707   8.762  0.00  0.00    +0.000 C 
ATOM     24  C   UNL     1      46.250   1.488   8.256  0.00  0.00    +0.000 C 
ATOM     25  O   UNL     1      46.550   2.344   7.140  0.00  0.00    +0.000 OA
ATOM     26  C   UNL     1      46.427   3.721   7.531  0.00  0.00    +0.000 C 
ATOM     27  C   UNL     1      45.003   4.059   8.011  0.00  0.00    +0.000 C 
ENDBRANCH  20  22
ENDBRANCH  15  16
ENDBRANCH   7  15
TORSDOF 4
ENDMDL
MODEL 7
REMARK VINA RESULT:    -6.715      2.182      7.295
REMARK INTER + INTRA:          -8.943
REMARK INTER:                  -8.238
REMARK INTRA:                  -0.705
REMARK UNBOUND:                -0.657
REMARK  Name = 
REMARK  5 active torsions:
REMARK  status: ('A' for Active; 'I' for Inactive)
REMARK    1  A    between atoms: C_1  and  C_2
REMARK    2  A    between atoms: C_4  and  C_5
REMARK    3  A    between atoms: N_10  and  C_11
REMARK    4  A    between atoms: C_11  and  C_12
REMARK    5  A    between atoms: C_16  and  N_17
REMARK                            x       y       z     vdW  Elec       q    Type
REMARK                         _______ _______ _______ _____ _____    ______ ____
ROOT
ATOM      1  C   UNL     1      45.446   3.535   7.416  0.00  0.00    +0.000 C 
ATOM      2  C   UNL     1      45.218   3.968   8.831  0.00  0.00    +0.000 A 
ATOM      3  C   UNL     1      44.453   3.218   9.687  0.00  0.00    +0.000 A 
ATOM      4  C   UNL     1      44.333   3.725  10.961  0.00  0.00    +0.000 A 
ATOM      5  N   UNL     1      44.921   4.872  11.394  0.00  0.00    +0.000 NA
ATOM      6  C   UNL     1      45.668   5.519  10.494  0.00  0.00    +0.000 A 
ATOM      7  N   UNL     1      46.399   6.641  10.839  0.00  0.00    +0.000 N 
ATOM      8  N   UNL     1      45.815   5.115   9.223  0.00  0.00    +0.000 NA
ATOM      9  H   UNL     1      46.673   7.104   9.980  0.00  0.00    +0.000 HD
ENDROOT
BRANCH   4  10
ATOM     10  C   UNL     1      43.518   2.960  11.958  0.00  0.00    +0.000 C 
ATOM     11  N   UNL     1      43.503   3.473  13.228  0.00  0.00    +0.000 N 
ATOM     12  O   UNL     1      42.903   1.945  11.668  0.00  0.00    +0.000 OA
ATOM     13  H   UNL     1      44.049   4.296  13.446  0.00  0.00    +0.000 HD
ATOM     14  H   UNL     1      42.997   2.985  13.951  0.00  0.00    +0.000 HD
ENDBRANCH   4  10
BRANCH   7  15
ATOM     15  C   UNL     1      45.849   7.494  11.864  0.00  0.00    +0.000 C 
BRANCH  15  16
ATOM     16  C   UNL     1      46.858   7.696  12.979  0.00  0.00    +0.000 A 
ATOM     17  C   UNL     1      47.371   8.960  13.281  0.00  0.00    +0.000 A 
ATOM     18  C   UNL     1      48.238   9.119  14.363  0.00  0.00    +0.000 A 
ATOM     19  C   UNL     1      48.588   8.019  15.148  0.00  0.00    +0.000 A 
ATOM     20  C   UNL     1      48.115   6.731  14.867  0.00  0.00    +0.000 A 
ATOM     21  C   UNL     1      47.272   6.593  13.752  0.00  0.00    +0.000 A 
BRANCH  20  22
ATOM     22  N   UNL     1      48.487   5.655  15.652  0.00  0.00    +0.000 N 
ATOM     23  C   UNL     1      47.618   4.488  15.862  0.00  0.00    +0.000 C 
ATOM     24  C   UNL     1      47.134   4.416  17.316  0.00  0.00    +0.000 C 
ATOM     25  O   UNL     1      48.236   4.445  18.239  0.00  0.00    +0.000 OA
ATOM     26  C   UNL     1      48.976   5.667  18.081  0.00  0.00    +0.000 C 
ATOM     27  C   UNL     1      49.552   5.812  16.661  0.00  0.00    +0.000 C 
ENDBRANCH  20  22
ENDBRANCH  15  16
ENDBRANCH   7  15
TORSDOF 4
ENDMDL
MODEL 8
REMARK VINA RESULT:    -6.370      2.563      7.730
REMARK INTER + INTRA:          -8.516
REMARK INTER:                  -7.990
REMARK INTRA:                  -0.526
REMARK UNBOUND:                -0.657
REMARK  Name = 
REMARK  5 active torsions:
REMARK  status: ('A' for Active; 'I' for Inactive)
REMARK    1  A    between atoms: C_1  and  C_2
REMARK    2  A    between atoms: C_4  and  C_5
REMARK    3  A    between atoms: N_10  and  C_11
REMARK    4  A    between atoms: C_11  and  C_12
REMARK    5  A    between atoms: C_16  and  N_17
REMARK                            x       y       z     vdW  Elec       q    Type
REMARK                         _______ _______ _______ _____ _____    ______ ____
ROOT
ATOM      1  C   UNL     1      44.752   7.893  11.457  0.00  0.00    +0.000 C 
ATOM      2  C   UNL     1      44.966   6.500  11.963  0.00  0.00    +0.000 A 
ATOM      3  C   UNL     1      44.382   5.424  11.344  0.00  0.00    +0.000 A 
ATOM      4  C   UNL     1      44.670   4.201  11.906  0.00  0.00    +0.000 A 
ATOM      5  N   UNL     1      45.476   4.016  12.984  0.00  0.00    +0.000 NA
ATOM      6  C   UNL     1      46.019   5.123  13.502  0.00  0.00    +0.000 A 
ATOM      7  N   UNL     1      46.936   5.059  14.535  0.00  0.00    +0.000 N 
ATOM      8  N   UNL     1      45.770   6.357  13.039  0.00  0.00    +0.000 NA
ATOM      9  H   UNL     1      47.016   5.989  14.930  0.00  0.00    +0.000 HD
ENDROOT
BRANCH   4  10
ATOM     10  C   UNL     1      44.075   2.975  11.283  0.00  0.00    +0.000 C 
ATOM     11  N   UNL     1      44.788   2.434  10.245  0.00  0.00    +0.000 N 
ATOM     12  O   UNL     1      43.025   2.483  11.666  0.00  0.00    +0.000 OA
ATOM     13  H   UNL     1      45.636   2.883   9.928  0.00  0.00    +0.000 HD
ATOM     14  H   UNL     1      44.422   1.626   9.765  0.00  0.00    +0.000 HD
ENDBRANCH   4  10
BRANCH   7  15
ATOM     15  C   UNL     1      46.782   3.984  15.484  0.00  0.00    +0.000 C 
BRANCH  15  16
ATOM     16  C   UNL     1      48.046   3.822  16.306  0.00  0.00    +0.000 A 
ATOM     17  C   UNL     1      48.570   2.561  16.604  0.00  0.00    +0.000 A 
ATOM     18  C   UNL     1      49.777   2.453  17.296  0.00  0.00    +0.000 A 
ATOM     19  C   UNL     1      50.465   3.603  17.687  0.00  0.00    +0.000 A 
ATOM     20  C   UNL     1      49.966   4.886  17.430  0.00  0.00    +0.000 A 
ATOM     21  C   UNL     1      48.733   4.965  16.762  0.00  0.00    +0.000 A 
BRANCH  20  22
ATOM     22  N   UNL     1      50.661   6.009  17.839  0.00  0.00    +0.000 N 
ATOM     23  C   UNL     1      50.099   6.992  18.777  0.00  0.00    +0.000 C 
ATOM     24  C   UNL     1      49.838   8.333  18.079  0.00  0.00    +0.000 C 
ATOM     25  O   UNL     1      51.019   8.823  17.423  0.00  0.00    +0.000 OA
ATOM     26  C   UNL     1      51.452   7.883  16.425  0.00  0.00    +0.000 C 
ATOM     27  C   UNL     1      51.791   6.510  17.034  0.00  0.00    +0.000 C 
ENDBRANCH  20  22
ENDBRANCH  15  16
ENDBRANCH   7  15
TORSDOF 4
ENDMDL
MODEL 9
REMARK VINA RESULT:    -6.332      2.656      7.703
REMARK INTER + INTRA:          -8.470
REMARK INTER:                  -7.943
REMARK INTRA:                  -0.528
REMARK UNBOUND:                -0.657
REMARK  Name = 
REMARK  5 active torsions:
REMARK  status: ('A' for Active; 'I' for Inactive)
REMARK    1  A    between atoms: C_1  and  C_2
REMARK    2  A    between atoms: C_4  and  C_5
REMARK    3  A    between atoms: N_10  and  C_11
REMARK    4  A    between atoms: C_11  and  C_12
REMARK    5  A    between atoms: C_16  and  N_17
REMARK                            x       y       z     vdW  Elec       q    Type
REMARK                         _______ _______ _______ _____ _____    ______ ____
ROOT
ATOM      1  C   UNL     1      45.031   8.089  11.767  0.00  0.00    +0.000 C 
ATOM      2  C   UNL     1      45.143   6.676  12.251  0.00  0.00    +0.000 A 
ATOM      3  C   UNL     1      44.396   5.673  11.687  0.00  0.00    +0.000 A 
ATOM      4  C   UNL     1      44.605   4.421  12.220  0.00  0.00    +0.000 A 
ATOM      5  N   UNL     1      45.482   4.142  13.219  0.00  0.00    +0.000 NA
ATOM      6  C   UNL     1      46.183   5.181  13.685  0.00  0.00    +0.000 A 
ATOM      7  N   UNL     1      47.179   5.013  14.630  0.00  0.00    +0.000 N 
ATOM      8  N   UNL     1      46.023   6.440  13.248  0.00  0.00    +0.000 NA
ATOM      9  H   UNL     1      47.391   5.925  15.016  0.00  0.00    +0.000 HD
ENDROOT
BRANCH   4  10
ATOM     10  C   UNL     1      43.831   3.270  11.653  0.00  0.00    +0.000 C 
ATOM     11  N   UNL     1      43.680   2.192  12.486  0.00  0.00    +0.000 N 
ATOM     12  O   UNL     1      43.362   3.280  10.525  0.00  0.00    +0.000 OA
ATOM     13  H   UNL     1      44.107   2.199  13.402  0.00  0.00    +0.000 HD
ATOM     14  H   UNL     1      43.195   1.374  12.151  0.00  0.00    +0.000 HD
ENDBRANCH   4  10
BRANCH   7  15
ATOM     15  C   UNL     1      47.001   3.950  15.589  0.00  0.00    +0.000 C 
BRANCH  15  16
ATOM     16  C   UNL     1      48.011   4.080  16.713  0.00  0.00    +0.000 A 
ATOM     17  C   UNL     1      48.951   3.078  16.971  0.00  0.00    +0.000 A 
ATOM     18  C   UNL     1      49.914   3.267  17.964  0.00  0.00    +0.000 A 
ATOM     19  C   UNL     1      49.945   4.457  18.694  0.00  0.00    +0.000 A 
ATOM     20  C   UNL     1      49.008   5.477  18.483  0.00  0.00    +0.000 A 
ATOM     21  C   UNL     1      48.029   5.247  17.502  0.00  0.00    +0.000 A 
BRANCH  20  22
ATOM     22  N   UNL     1      49.052   6.641  19.228  0.00  0.00    +0.000 N 
ATOM     23  C   UNL     1      48.888   6.653  20.689  0.00  0.00    +0.000 C 
ATOM     24  C   UNL     1      47.576   7.338  21.091  0.00  0.00    +0.000 C 
ATOM     25  O   UNL     1      47.474   8.654  20.522  0.00  0.00    +0.000 OA
ATOM     26  C   UNL     1      47.507   8.573  19.088  0.00  0.00    +0.000 C 
ATOM     27  C   UNL     1      48.815   7.943  18.576  0.00  0.00    +0.000 C 
ENDBRANCH  20  22
ENDBRANCH  15  16
ENDBRANCH   7  15
TORSDOF 4
ENDMDL
