MODEL 1
REMARK VINA RESULT:    -8.141      0.000      0.000
REMARK INTER + INTRA:         -12.668
REMARK INTER:                 -11.473
REMARK INTRA:                  -1.195
REMARK UNBOUND:                -1.195
REMARK  Name = 
REMARK  9 active torsions:
REMARK  status: ('A' for Active; 'I' for Inactive)
REMARK    1  A    between atoms: C_1  and  C_2
REMARK    2  A    between atoms: C_2  and  N_3
REMARK    3  A    between atoms: C_2  and  C_26
REMARK    4  A    between atoms: N_3  and  C_4
REMARK    5  A    between atoms: C_4  and  C_5
REMARK    6  A    between atoms: C_8  and  C_9
REMARK    7  A    between atoms: C_9  and  N_10
REMARK    8  A    between atoms: C_11  and  C_13
REMARK    9  A    between atoms: N_19  and  C_20
REMARK                            x       y       z     vdW  Elec       q    Type
REMARK                         _______ _______ _______ _____ _____    ______ ____
ROOT
ATOM      1  C   UNL     1      44.883   5.344  11.261  0.00  0.00    +0.000 A 
ATOM      2  C   UNL     1      45.010   4.926  12.585  0.00  0.00    +0.000 A 
ATOM      3  C   UNL     1      46.039   5.430  13.371  0.00  0.00    +0.000 A 
ATOM      4  C   UNL     1      46.916   6.357  12.817  0.00  0.00    +0.000 A 
ATOM      5  N   UNL     1      46.824   6.774  11.528  0.00  0.00    +0.000 NA
ATOM      6  C   UNL     1      45.814   6.263  10.786  0.00  0.00    +0.000 A 
ENDROOT
BRANCH   1   7
ATOM      7  C   UNL     1      43.735   4.881  10.411  0.00  0.00    +0.000 C 
BRANCH   7   8
ATOM      8  N   UNL     1      44.173   4.240   9.174  0.00  0.00    +0.000 NA
ATOM      9  H   UNL     1      44.764   4.893   8.656  0.00  0.00    +0.000 HD
BRANCH   8  11
ATOM     10  C   UNL     1      44.066   1.822   9.791  0.00  0.00    +0.000 C 
ATOM     11  C   UNL     1      44.957   3.016   9.421  0.00  0.00    +0.000 C 
BRANCH  11  12
ATOM     12  C   UNL     1      45.814   2.696   8.200  0.00  0.00    +0.000 A 
ATOM     13  C   UNL     1      46.397   1.426   8.055  0.00  0.00    +0.000 A 
ATOM     14  C   UNL     1      47.221   1.139   6.963  0.00  0.00    +0.000 A 
ATOM     15  C   UNL     1      47.468   2.112   5.998  0.00  0.00    +0.000 A 
ATOM     16  C   UNL     1      46.883   3.370   6.117  0.00  0.00    +0.000 A 
ATOM     17  C   UNL     1      46.061   3.660   7.210  0.00  0.00    +0.000 A 
ENDBRANCH  11  12
ENDBRANCH   8  11
ENDBRANCH   7   8
ENDBRANCH   1   7
BRANCH   4  18
ATOM     18  C   UNL     1      48.056   6.889  13.647  0.00  0.00    +0.000 C 
BRANCH  18  19
ATOM     19  N   UNL     1      47.969   6.435  15.010  0.00  0.00    +0.000 N 
ATOM     20  C   UNL     1      49.052   6.245  15.817  0.00  0.00    +0.000 C 
ATOM     21  O   UNL     1      50.191   6.590  15.506  0.00  0.00    +0.000 OA
ATOM     22  H   UNL     1      47.047   6.172  15.325  0.00  0.00    +0.000 HD
BRANCH  20  23
ATOM     23  C   UNL     1      48.751   5.647  17.119  0.00  0.00    +0.000 A 
ATOM     24  C   UNL     1      48.862   4.282  17.326  0.00  0.00    +0.000 A 
ATOM     25  S   UNL     1      48.531   3.818  18.938  0.00  0.00    +0.000 S 
ATOM     26  C   UNL     1      48.182   5.422  19.392  0.00  0.00    +0.000 A 
ATOM     27  N   UNL     1      47.829   5.734  20.665  0.00  0.00    +0.000 NA
ATOM     28  C   UNL     1      47.572   6.989  20.858  0.00  0.00    +0.000 A 
ATOM     29  N   UNL     1      47.618   7.974  19.894  0.00  0.00    +0.000 N 
ATOM     30  C   UNL     1      47.303   9.348  20.217  0.00  0.00    +0.000 C 
ATOM     31  C   UNL     1      47.958   7.686  18.576  0.00  0.00    +0.000 A 
ATOM     32  O   UNL     1      47.980   8.545  17.699  0.00  0.00    +0.000 OA
ATOM     33  C   UNL     1      48.299   6.296  18.328  0.00  0.00    +0.000 A 
ENDBRANCH  20  23
ENDBRANCH  18  19
ENDBRANCH   4  18
TORSDOF 7
ENDMDL
MODEL 2
REMARK VINA RESULT:    -8.116      1.925      2.776
REMARK INTER + INTRA:         -12.631
REMARK INTER:                 -11.500
REMARK INTRA:                  -1.132
REMARK UNBOUND:                -1.195
REMARK  Name = 
REMARK  9 active torsions:
REMARK  status: ('A' for Active; 'I' for Inactive)
REMARK    1  A    between atoms: C_1  and  C_2
REMARK    2  A    between atoms: C_2  and  N_3
REMARK    3  A    between atoms: C_2  and  C_26
REMARK    4  A    between atoms: N_3  and  C_4
REMARK    5  A    between atoms: C_4  and  C_5
REMARK    6  A    between atoms: C_8  and  C_9
REMARK    7  A    between atoms: C_9  and  N_10
REMARK    8  A    between atoms: C_11  and  C_13
REMARK    9  A    between atoms: N_19  and  C_20
REMARK                            x       y       z     vdW  Elec       q    Type
REMARK                         _______ _______ _______ _____ _____    ______ ____
ROOT
ATOM      1  C   UNL     1      45.775   4.691  12.493  0.00  0.00    +0.000 A 
ATOM      2  C   UNL     1      46.046   5.838  11.747  0.00  0.00    +0.000 A 
ATOM      3  C   UNL     1      47.131   6.638  12.084  0.00  0.00    +0.000 A 
ATOM      4  C   UNL     1      47.933   6.265  13.157  0.00  0.00    +0.000 A 
ATOM      5  N   UNL     1      47.687   5.161  13.908  0.00  0.00    +0.000 NA
ATOM      6  C   UNL     1      46.621   4.403  13.559  0.00  0.00    +0.000 A 
ENDROOT
BRANCH   1   7
ATOM      7  C   UNL     1      44.661   3.763  12.104  0.00  0.00    +0.000 C 
BRANCH   7   8
ATOM      8  N   UNL     1      45.080   2.759  11.129  0.00  0.00    +0.000 NA
ATOM      9  H   UNL     1      44.821   1.834  11.476  0.00  0.00    +0.000 HD
BRANCH   8  11
ATOM     10  C   UNL     1      43.783   4.328   9.681  0.00  0.00    +0.000 C 
ATOM     11  C   UNL     1      44.437   2.946   9.814  0.00  0.00    +0.000 C 
BRANCH  11  12
ATOM     12  C   UNL     1      45.456   2.718   8.703  0.00  0.00    +0.000 A 
ATOM     13  C   UNL     1      45.866   3.785   7.886  0.00  0.00    +0.000 A 
ATOM     14  C   UNL     1      46.765   3.576   6.836  0.00  0.00    +0.000 A 
ATOM     15  C   UNL     1      47.271   2.302   6.592  0.00  0.00    +0.000 A 
ATOM     16  C   UNL     1      46.890   1.237   7.404  0.00  0.00    +0.000 A 
ATOM     17  C   UNL     1      45.989   1.443   8.453  0.00  0.00    +0.000 A 
ENDBRANCH  11  12
ENDBRANCH   8  11
ENDBRANCH   7   8
ENDBRANCH   1   7
BRANCH   4  18
ATOM     18  C   UNL     1      49.095   7.139  13.556  0.00  0.00    +0.000 C 
BRANCH  18  19
ATOM     19  N   UNL     1      49.164   7.300  14.985  0.00  0.00    +0.000 N 
ATOM     20  C   UNL     1      50.331   7.415  15.680  0.00  0.00    +0.000 C 
ATOM     21  O   UNL     1      51.427   7.547  15.137  0.00  0.00    +0.000 OA
ATOM     22  H   UNL     1      48.283   7.235  15.475  0.00  0.00    +0.000 HD
BRANCH  20  23
ATOM     23  C   UNL     1      50.180   7.429  17.137  0.00  0.00    +0.000 A 
ATOM     24  C   UNL     1      50.544   8.536  17.887  0.00  0.00    +0.000 A 
ATOM     25  S   UNL     1      50.214   8.355  19.554  0.00  0.00    +0.000 S 
ATOM     26  C   UNL     1      49.623   6.774  19.328  0.00  0.00    +0.000 A 
ATOM     27  N   UNL     1      49.160   6.038  20.370  0.00  0.00    +0.000 NA
ATOM     28  C   UNL     1      48.762   4.848  20.051  0.00  0.00    +0.000 A 
ATOM     29  N   UNL     1      48.793   4.305  18.784  0.00  0.00    +0.000 N 
ATOM     30  C   UNL     1      48.331   2.957  18.539  0.00  0.00    +0.000 C 
ATOM     31  C   UNL     1      49.278   5.025  17.696  0.00  0.00    +0.000 A 
ATOM     32  O   UNL     1      49.336   4.551  16.565  0.00  0.00    +0.000 OA
ATOM     33  C   UNL     1      49.691   6.383  18.004  0.00  0.00    +0.000 A 
ENDBRANCH  20  23
ENDBRANCH  18  19
ENDBRANCH   4  18
TORSDOF 7
ENDMDL
MODEL 3
REMARK VINA RESULT:    -8.049      1.319      2.014
REMARK INTER + INTRA:         -12.537
REMARK INTER:                 -11.454
REMARK INTRA:                  -1.084
REMARK UNBOUND:                -1.195
REMARK  Name = 
REMARK  9 active torsions:
REMARK  status: ('A' for Active; 'I' for Inactive)
REMARK    1  A    between atoms: C_1  and  C_2
REMARK    2  A    between atoms: C_2  and  N_3
REMARK    3  A    between atoms: C_2  and  C_26
REMARK    4  A    between atoms: N_3  and  C_4
REMARK    5  A    between atoms: C_4  and  C_5
REMARK    6  A    between atoms: C_8  and  C_9
REMARK    7  A    between atoms: C_9  and  N_10
REMARK    8  A    between atoms: C_11  and  C_13
REMARK    9  A    between atoms: N_19  and  C_20
REMARK                            x       y       z     vdW  Elec       q    Type
REMARK                         _______ _______ _______ _____ _____    ______ ____
ROOT
ATOM      1  C   UNL     1      45.604   4.503  12.321  0.00  0.00    +0.000 A 
ATOM      2  C   UNL     1      45.920   5.751  11.785  0.00  0.00    +0.000 A 
ATOM      3  C   UNL     1      46.896   6.534  12.391  0.00  0.00    +0.000 A 
ATOM      4  C   UNL     1      47.546   6.043  13.518  0.00  0.00    +0.000 A 
ATOM      5  N   UNL     1      47.251   4.837  14.069  0.00  0.00    +0.000 NA
ATOM      6  C   UNL     1      46.294   4.099  13.459  0.00  0.00    +0.000 A 
ENDROOT
BRANCH   1   7
ATOM      7  C   UNL     1      44.614   3.600  11.643  0.00  0.00    +0.000 C 
BRANCH   7   8
ATOM      8  N   UNL     1      45.232   2.751  10.627  0.00  0.00    +0.000 NA
ATOM      9  H   UNL     1      45.095   1.773  10.887  0.00  0.00    +0.000 HD
BRANCH   8  11
ATOM     10  C   UNL     1      44.104   4.377   9.101  0.00  0.00    +0.000 C 
ATOM     11  C   UNL     1      44.643   2.952   9.290  0.00  0.00    +0.000 C 
BRANCH  11  12
ATOM     12  C   UNL     1      45.670   2.613   8.216  0.00  0.00    +0.000 A 
ATOM     13  C   UNL     1      46.049   3.577   7.266  0.00  0.00    +0.000 A 
ATOM     14  C   UNL     1      46.955   3.261   6.250  0.00  0.00    +0.000 A 
ATOM     15  C   UNL     1      47.501   1.982   6.172  0.00  0.00    +0.000 A 
ATOM     16  C   UNL     1      47.151   1.021   7.116  0.00  0.00    +0.000 A 
ATOM     17  C   UNL     1      46.243   1.333   8.132  0.00  0.00    +0.000 A 
ENDBRANCH  11  12
ENDBRANCH   8  11
ENDBRANCH   7   8
ENDBRANCH   1   7
BRANCH   4  18
ATOM     18  C   UNL     1      48.584   6.892  14.206  0.00  0.00    +0.000 C 
BRANCH  18  19
ATOM     19  N   UNL     1      48.306   7.023  15.613  0.00  0.00    +0.000 N 
ATOM     20  C   UNL     1      49.061   6.450  16.592  0.00  0.00    +0.000 C 
ATOM     21  O   UNL     1      50.137   5.896  16.374  0.00  0.00    +0.000 OA
ATOM     22  H   UNL     1      47.449   7.504  15.845  0.00  0.00    +0.000 HD
BRANCH  20  23
ATOM     23  C   UNL     1      48.523   6.593  17.947  0.00  0.00    +0.000 A 
ATOM     24  C   UNL     1      48.161   5.486  18.697  0.00  0.00    +0.000 A 
ATOM     25  S   UNL     1      47.627   5.887  20.270  0.00  0.00    +0.000 S 
ATOM     26  C   UNL     1      47.818   7.554  19.976  0.00  0.00    +0.000 A 
ATOM     27  N   UNL     1      47.538   8.476  20.933  0.00  0.00    +0.000 NA
ATOM     28  C   UNL     1      47.710   9.704  20.559  0.00  0.00    +0.000 A 
ATOM     29  N   UNL     1      48.123  10.112  19.309  0.00  0.00    +0.000 N 
ATOM     30  C   UNL     1      48.275  11.515  18.995  0.00  0.00    +0.000 C 
ATOM     31  C   UNL     1      48.401   9.195  18.300  0.00  0.00    +0.000 A 
ATOM     32  O   UNL     1      48.747   9.539  17.174  0.00  0.00    +0.000 OA
ATOM     33  C   UNL     1      48.266   7.803  18.693  0.00  0.00    +0.000 A 
ENDBRANCH  20  23
ENDBRANCH  18  19
ENDBRANCH   4  18
TORSDOF 7
ENDMDL
MODEL 4
REMARK VINA RESULT:    -7.744      2.837      9.288
REMARK INTER + INTRA:         -12.107
REMARK INTER:                 -10.531
REMARK INTRA:                  -1.576
REMARK UNBOUND:                -1.195
REMARK  Name = 
REMARK  9 active torsions:
REMARK  status: ('A' for Active; 'I' for Inactive)
REMARK    1  A    between atoms: C_1  and  C_2
REMARK    2  A    between atoms: C_2  and  N_3
REMARK    3  A    between atoms: C_2  and  C_26
REMARK    4  A    between atoms: N_3  and  C_4
REMARK    5  A    between atoms: C_4  and  C_5
REMARK    6  A    between atoms: C_8  and  C_9
REMARK    7  A    between atoms: C_9  and  N_10
REMARK    8  A    between atoms: C_11  and  C_13
REMARK    9  A    between atoms: N_19  and  C_20
REMARK                            x       y       z     vdW  Elec       q    Type
REMARK                         _______ _______ _______ _____ _____    ______ ____
ROOT
ATOM      1  C   UNL     1      48.721   7.835  15.883  0.00  0.00    +0.000 A 
ATOM      2  C   UNL     1      48.006   8.910  15.355  0.00  0.00    +0.000 A 
ATOM      3  C   UNL     1      47.589   8.875  14.030  0.00  0.00    +0.000 A 
ATOM      4  C   UNL     1      47.886   7.755  13.261  0.00  0.00    +0.000 A 
ATOM      5  N   UNL     1      48.590   6.699  13.744  0.00  0.00    +0.000 NA
ATOM      6  C   UNL     1      48.986   6.763  15.037  0.00  0.00    +0.000 A 
ENDROOT
BRANCH   1   7
ATOM      7  C   UNL     1      49.113   7.806  17.332  0.00  0.00    +0.000 C 
BRANCH   7   8
ATOM      8  N   UNL     1      48.016   7.392  18.203  0.00  0.00    +0.000 NA
ATOM      9  H   UNL     1      47.235   7.078  17.625  0.00  0.00    +0.000 HD
BRANCH   8  11
ATOM     10  C   UNL     1      47.448   6.157  20.299  0.00  0.00    +0.000 C 
ATOM     11  C   UNL     1      48.393   6.280  19.096  0.00  0.00    +0.000 C 
BRANCH  11  12
ATOM     12  C   UNL     1      48.441   4.976  18.307  0.00  0.00    +0.000 A 
ATOM     13  C   UNL     1      49.649   4.274  18.167  0.00  0.00    +0.000 A 
ATOM     14  C   UNL     1      49.712   3.103  17.408  0.00  0.00    +0.000 A 
ATOM     15  C   UNL     1      48.568   2.613  16.783  0.00  0.00    +0.000 A 
ATOM     16  C   UNL     1      47.357   3.286  16.926  0.00  0.00    +0.000 A 
ATOM     17  C   UNL     1      47.294   4.459  17.683  0.00  0.00    +0.000 A 
ENDBRANCH  11  12
ENDBRANCH   8  11
ENDBRANCH   7   8
ENDBRANCH   1   7
BRANCH   4  18
ATOM     18  C   UNL     1      47.470   7.716  11.813  0.00  0.00    +0.000 C 
BRANCH  18  19
ATOM     19  N   UNL     1      46.724   6.521  11.514  0.00  0.00    +0.000 N 
ATOM     20  C   UNL     1      45.364   6.477  11.428  0.00  0.00    +0.000 C 
ATOM     21  O   UNL     1      44.656   7.483  11.447  0.00  0.00    +0.000 OA
ATOM     22  H   UNL     1      47.267   5.672  11.454  0.00  0.00    +0.000 HD
BRANCH  20  23
ATOM     23  C   UNL     1      44.802   5.136  11.253  0.00  0.00    +0.000 A 
ATOM     24  C   UNL     1      44.044   4.539  12.246  0.00  0.00    +0.000 A 
ATOM     25  S   UNL     1      43.433   3.007  11.795  0.00  0.00    +0.000 S 
ATOM     26  C   UNL     1      44.207   3.077  10.280  0.00  0.00    +0.000 A 
ATOM     27  N   UNL     1      44.087   2.069   9.379  0.00  0.00    +0.000 NA
ATOM     28  C   UNL     1      44.747   2.251   8.280  0.00  0.00    +0.000 A 
ATOM     29  N   UNL     1      45.536   3.344   7.990  0.00  0.00    +0.000 N 
ATOM     30  C   UNL     1      46.239   3.443   6.730  0.00  0.00    +0.000 C 
ATOM     31  C   UNL     1      45.695   4.387   8.897  0.00  0.00    +0.000 A 
ATOM     32  O   UNL     1      46.412   5.356   8.667  0.00  0.00    +0.000 OA
ATOM     33  C   UNL     1      44.933   4.243  10.125  0.00  0.00    +0.000 A 
ENDBRANCH  20  23
ENDBRANCH  18  19
ENDBRANCH   4  18
TORSDOF 7
ENDMDL
MODEL 5
REMARK VINA RESULT:    -7.417      3.982      5.590
REMARK INTER + INTRA:         -11.647
REMARK INTER:                 -10.510
REMARK INTRA:                  -1.137
REMARK UNBOUND:                -1.195
REMARK  Name = 
REMARK  9 active torsions:
REMARK  status: ('A' for Active; 'I' for Inactive)
REMARK    1  A    between atoms: C_1  and  C_2
REMARK    2  A    between atoms: C_2  and  N_3
REMARK    3  A    between atoms: C_2  and  C_26
REMARK    4  A    between atoms: N_3  and  C_4
REMARK    5  A    between atoms: C_4  and  C_5
REMARK    6  A    between atoms: C_8  and  C_9
REMARK    7  A    between atoms: C_9  and  N_10
REMARK    8  A    between atoms: C_11  and  C_13
REMARK    9  A    between atoms: N_19  and  C_20
REMARK                            x       y       z     vdW  Elec       q    Type
REMARK                         _______ _______ _______ _____ _____    ______ ____
ROOT
ATOM      1  C   UNL     1      45.545   4.287  12.546  0.00  0.00    +0.000 A 
ATOM      2  C   UNL     1      45.468   5.664  12.335  0.00  0.00    +0.000 A 
ATOM      3  C   UNL     1      46.393   6.506  12.940  0.00  0.00    +0.000 A 
ATOM      4  C   UNL     1      47.388   5.950  13.737  0.00  0.00    +0.000 A 
ATOM      5  N   UNL     1      47.481   4.616  13.970  0.00  0.00    +0.000 NA
ATOM      6  C   UNL     1      46.564   3.820  13.370  0.00  0.00    +0.000 A 
ENDROOT
BRANCH   1   7
ATOM      7  C   UNL     1      44.613   3.345  11.842  0.00  0.00    +0.000 C 
BRANCH   7   8
ATOM      8  N   UNL     1      45.258   2.632  10.742  0.00  0.00    +0.000 NA
ATOM      9  H   UNL     1      45.216   1.629  10.929  0.00  0.00    +0.000 HD
BRANCH   8  11
ATOM     10  C   UNL     1      44.075   4.318   9.327  0.00  0.00    +0.000 C 
ATOM     11  C   UNL     1      44.599   2.880   9.446  0.00  0.00    +0.000 C 
BRANCH  11  12
ATOM     12  C   UNL     1      45.561   2.557   8.307  0.00  0.00    +0.000 A 
ATOM     13  C   UNL     1      46.208   1.312   8.255  0.00  0.00    +0.000 A 
ATOM     14  C   UNL     1      47.126   1.025   7.241  0.00  0.00    +0.000 A 
ATOM     15  C   UNL     1      47.404   1.975   6.261  0.00  0.00    +0.000 A 
ATOM     16  C   UNL     1      46.758   3.208   6.287  0.00  0.00    +0.000 A 
ATOM     17  C   UNL     1      45.842   3.497   7.302  0.00  0.00    +0.000 A 
ENDBRANCH  11  12
ENDBRANCH   8  11
ENDBRANCH   7   8
ENDBRANCH   1   7
BRANCH   4  18
ATOM     18  C   UNL     1      48.379   6.852  14.426  0.00  0.00    +0.000 C 
BRANCH  18  19
ATOM     19  N   UNL     1      49.560   7.043  13.625  0.00  0.00    +0.000 N 
ATOM     20  C   UNL     1      49.710   8.054  12.723  0.00  0.00    +0.000 C 
ATOM     21  O   UNL     1      48.914   8.986  12.620  0.00  0.00    +0.000 OA
ATOM     22  H   UNL     1      50.260   6.320  13.702  0.00  0.00    +0.000 HD
BRANCH  20  23
ATOM     23  C   UNL     1      50.930   7.983  11.916  0.00  0.00    +0.000 A 
ATOM     24  C   UNL     1      50.912   7.464  10.632  0.00  0.00    +0.000 A 
ATOM     25  S   UNL     1      52.432   7.546   9.854  0.00  0.00    +0.000 S 
ATOM     26  C   UNL     1      53.167   8.231  11.229  0.00  0.00    +0.000 A 
ATOM     27  N   UNL     1      54.483   8.562  11.234  0.00  0.00    +0.000 NA
ATOM     28  C   UNL     1      54.908   9.053  12.355  0.00  0.00    +0.000 A 
ATOM     29  N   UNL     1      54.147   9.236  13.490  0.00  0.00    +0.000 N 
ATOM     30  C   UNL     1      54.725   9.787  14.695  0.00  0.00    +0.000 C 
ATOM     31  C   UNL     1      52.799   8.891  13.524  0.00  0.00    +0.000 A 
ATOM     32  O   UNL     1      52.111   9.024  14.533  0.00  0.00    +0.000 OA
ATOM     33  C   UNL     1      52.272   8.380  12.272  0.00  0.00    +0.000 A 
ENDBRANCH  20  23
ENDBRANCH  18  19
ENDBRANCH   4  18
TORSDOF 7
ENDMDL
MODEL 6
REMARK VINA RESULT:    -6.987      4.868      9.791
REMARK INTER + INTRA:         -11.041
REMARK INTER:                  -9.989
REMARK INTRA:                  -1.052
REMARK UNBOUND:                -1.195
REMARK  Name = 
REMARK  9 active torsions:
REMARK  status: ('A' for Active; 'I' for Inactive)
REMARK    1  A    between atoms: C_1  and  C_2
REMARK    2  A    between atoms: C_2  and  N_3
REMARK    3  A    between atoms: C_2  and  C_26
REMARK    4  A    between atoms: N_3  and  C_4
REMARK    5  A    between atoms: C_4  and  C_5
REMARK    6  A    between atoms: C_8  and  C_9
REMARK    7  A    between atoms: C_9  and  N_10
REMARK    8  A    between atoms: C_11  and  C_13
REMARK    9  A    between atoms: N_19  and  C_20
REMARK                            x       y       z     vdW  Elec       q    Type
REMARK                         _______ _______ _______ _____ _____    ______ ____
ROOT
ATOM      1  C   UNL     1      51.511   3.314  18.101  0.00  0.00    +0.000 A 
ATOM      2  C   UNL     1      50.934   2.264  17.388  0.00  0.00    +0.000 A 
ATOM      3  C   UNL     1      49.583   2.309  17.067  0.00  0.00    +0.000 A 
ATOM      4  C   UNL     1      48.836   3.416  17.458  0.00  0.00    +0.000 A 
ATOM      5  N   UNL     1      49.368   4.448  18.162  0.00  0.00    +0.000 NA
ATOM      6  C   UNL     1      50.686   4.374  18.463  0.00  0.00    +0.000 A 
ENDROOT
BRANCH   1   7
ATOM      7  C   UNL     1      52.984   3.334  18.390  0.00  0.00    +0.000 C 
BRANCH   7   8
ATOM      8  N   UNL     1      53.400   2.240  19.264  0.00  0.00    +0.000 NA
ATOM      9  H   UNL     1      52.842   1.413  19.047  0.00  0.00    +0.000 HD
BRANCH   8  11
ATOM     10  C   UNL     1      55.508   1.566  20.424  0.00  0.00    +0.000 C 
ATOM     11  C   UNL     1      54.821   1.886  19.089  0.00  0.00    +0.000 C 
BRANCH  11  12
ATOM     12  C   UNL     1      54.948   0.717  18.119  0.00  0.00    +0.000 A 
ATOM     13  C   UNL     1      54.795  -0.603  18.575  0.00  0.00    +0.000 A 
ATOM     14  C   UNL     1      54.955  -1.683  17.703  0.00  0.00    +0.000 A 
ATOM     15  C   UNL     1      55.262  -1.461  16.363  0.00  0.00    +0.000 A 
ATOM     16  C   UNL     1      55.399  -0.158  15.890  0.00  0.00    +0.000 A 
ATOM     17  C   UNL     1      55.242   0.924  16.762  0.00  0.00    +0.000 A 
ENDBRANCH  11  12
ENDBRANCH   8  11
ENDBRANCH   7   8
ENDBRANCH   1   7
BRANCH   4  18
ATOM     18  C   UNL     1      47.363   3.465  17.146  0.00  0.00    +0.000 C 
BRANCH  18  19
ATOM     19  N   UNL     1      47.067   4.481  16.169  0.00  0.00    +0.000 N 
ATOM     20  C   UNL     1      47.245   4.317  14.828  0.00  0.00    +0.000 C 
ATOM     21  O   UNL     1      47.528   3.236  14.314  0.00  0.00    +0.000 OA
ATOM     22  H   UNL     1      46.795   5.379  16.542  0.00  0.00    +0.000 HD
BRANCH  20  23
ATOM     23  C   UNL     1      47.015   5.521  14.025  0.00  0.00    +0.000 A 
ATOM     24  C   UNL     1      47.910   6.577  14.042  0.00  0.00    +0.000 A 
ATOM     25  S   UNL     1      47.477   7.841  12.977  0.00  0.00    +0.000 S 
ATOM     26  C   UNL     1      46.054   7.035  12.501  0.00  0.00    +0.000 A 
ATOM     27  N   UNL     1      45.209   7.575  11.586  0.00  0.00    +0.000 NA
ATOM     28  C   UNL     1      44.159   6.858  11.338  0.00  0.00    +0.000 A 
ATOM     29  N   UNL     1      43.855   5.650  11.929  0.00  0.00    +0.000 N 
ATOM     30  C   UNL     1      42.646   4.935  11.584  0.00  0.00    +0.000 C 
ATOM     31  C   UNL     1      44.690   5.077  12.884  0.00  0.00    +0.000 A 
ATOM     32  O   UNL     1      44.424   4.015  13.439  0.00  0.00    +0.000 OA
ATOM     33  C   UNL     1      45.903   5.827  13.156  0.00  0.00    +0.000 A 
ENDBRANCH  20  23
ENDBRANCH  18  19
ENDBRANCH   4  18
TORSDOF 7
ENDMDL
MODEL 7
REMARK VINA RESULT:    -6.849      2.828      3.845
REMARK INTER + INTRA:         -10.846
REMARK INTER:                  -9.600
REMARK INTRA:                  -1.246
REMARK UNBOUND:                -1.195
REMARK  Name = 
REMARK  9 active torsions:
REMARK  status: ('A' for Active; 'I' for Inactive)
REMARK    1  A    between atoms: C_1  and  C_2
REMARK    2  A    between atoms: C_2  and  N_3
REMARK    3  A    between atoms: C_2  and  C_26
REMARK    4  A    between atoms: N_3  and  C_4
REMARK    5  A    between atoms: C_4  and  C_5
REMARK    6  A    between atoms: C_8  and  C_9
REMARK    7  A    between atoms: C_9  and  N_10
REMARK    8  A    between atoms: C_11  and  C_13
REMARK    9  A    between atoms: N_19  and  C_20
REMARK                            x       y       z     vdW  Elec       q    Type
REMARK                         _______ _______ _______ _____ _____    ______ ____
ROOT
ATOM      1  C   UNL     1      46.348   7.734  12.346  0.00  0.00    +0.000 A 
ATOM      2  C   UNL     1      47.358   6.981  11.748  0.00  0.00    +0.000 A 
ATOM      3  C   UNL     1      48.689   7.296  11.992  0.00  0.00    +0.000 A 
ATOM      4  C   UNL     1      48.983   8.356  12.844  0.00  0.00    +0.000 A 
ATOM      5  N   UNL     1      48.021   9.114  13.431  0.00  0.00    +0.000 NA
ATOM      6  C   UNL     1      46.734   8.786  13.171  0.00  0.00    +0.000 A 
ENDROOT
BRANCH   1   7
ATOM      7  C   UNL     1      44.903   7.368  12.167  0.00  0.00    +0.000 C 
BRANCH   7   8
ATOM      8  N   UNL     1      44.661   6.616  10.939  0.00  0.00    +0.000 NA
ATOM      9  H   UNL     1      45.520   6.601  10.386  0.00  0.00    +0.000 HD
BRANCH   8  11
ATOM     10  C   UNL     1      42.752   5.074  11.406  0.00  0.00    +0.000 C 
ATOM     11  C   UNL     1      44.266   5.219  11.201  0.00  0.00    +0.000 C 
BRANCH  11  12
ATOM     12  C   UNL     1      44.749   4.323  10.065  0.00  0.00    +0.000 A 
ATOM     13  C   UNL     1      44.421   2.958  10.050  0.00  0.00    +0.000 A 
ATOM     14  C   UNL     1      44.897   2.120   9.037  0.00  0.00    +0.000 A 
ATOM     15  C   UNL     1      45.701   2.636   8.024  0.00  0.00    +0.000 A 
ATOM     16  C   UNL     1      46.020   3.991   8.014  0.00  0.00    +0.000 A 
ATOM     17  C   UNL     1      45.547   4.829   9.027  0.00  0.00    +0.000 A 
ENDBRANCH  11  12
ENDBRANCH   8  11
ENDBRANCH   7   8
ENDBRANCH   1   7
BRANCH   4  18
ATOM     18  C   UNL     1      50.421   8.731  13.094  0.00  0.00    +0.000 C 
BRANCH  18  19
ATOM     19  N   UNL     1      51.058   7.799  13.987  0.00  0.00    +0.000 N 
ATOM     20  C   UNL     1      51.183   7.999  15.330  0.00  0.00    +0.000 C 
ATOM     21  O   UNL     1      50.629   8.921  15.927  0.00  0.00    +0.000 OA
ATOM     22  H   UNL     1      51.498   7.004  13.547  0.00  0.00    +0.000 HD
BRANCH  20  23
ATOM     23  C   UNL     1      51.986   6.993  16.030  0.00  0.00    +0.000 A 
ATOM     24  C   UNL     1      53.369   7.064  16.048  0.00  0.00    +0.000 A 
ATOM     25  S   UNL     1      54.091   5.829  16.983  0.00  0.00    +0.000 S 
ATOM     26  C   UNL     1      52.579   5.136  17.347  0.00  0.00    +0.000 A 
ATOM     27  N   UNL     1      52.478   4.032  18.131  0.00  0.00    +0.000 NA
ATOM     28  C   UNL     1      51.268   3.606  18.304  0.00  0.00    +0.000 A 
ATOM     29  N   UNL     1      50.134   4.167  17.757  0.00  0.00    +0.000 N 
ATOM     30  C   UNL     1      48.826   3.604  18.009  0.00  0.00    +0.000 C 
ATOM     31  C   UNL     1      50.202   5.288  16.934  0.00  0.00    +0.000 A 
ATOM     32  O   UNL     1      49.207   5.788  16.418  0.00  0.00    +0.000 OA
ATOM     33  C   UNL     1      51.539   5.825  16.753  0.00  0.00    +0.000 A 
ENDBRANCH  20  23
ENDBRANCH  18  19
ENDBRANCH   4  18
TORSDOF 7
ENDMDL
MODEL 8
REMARK VINA RESULT:    -5.673      2.127      3.506
REMARK INTER + INTRA:          -9.189
REMARK INTER:                  -7.930
REMARK INTRA:                  -1.259
REMARK UNBOUND:                -1.195
REMARK  Name = 
REMARK  9 active torsions:
REMARK  status: ('A' for Active; 'I' for Inactive)
REMARK    1  A    between atoms: C_1  and  C_2
REMARK    2  A    between atoms: C_2  and  N_3
REMARK    3  A    between atoms: C_2  and  C_26
REMARK    4  A    between atoms: N_3  and  C_4
REMARK    5  A    between atoms: C_4  and  C_5
REMARK    6  A    between atoms: C_8  and  C_9
REMARK    7  A    between atoms: C_9  and  N_10
REMARK    8  A    between atoms: C_11  and  C_13
REMARK    9  A    between atoms: N_19  and  C_20
REMARK                            x       y       z     vdW  Elec       q    Type
REMARK                         _______ _______ _______ _____ _____    ______ ____
ROOT
ATOM      1  C   UNL     1      47.119   7.920  12.611  0.00  0.00    +0.000 A 
ATOM      2  C   UNL     1      48.014   6.974  13.109  0.00  0.00    +0.000 A 
ATOM      3  C   UNL     1      49.044   7.376  13.951  0.00  0.00    +0.000 A 
ATOM      4  C   UNL     1      49.150   8.722  14.287  0.00  0.00    +0.000 A 
ATOM      5  N   UNL     1      48.301   9.667  13.809  0.00  0.00    +0.000 NA
ATOM      6  C   UNL     1      47.309   9.246  12.988  0.00  0.00    +0.000 A 
ENDROOT
BRANCH   1   7
ATOM      7  C   UNL     1      45.948   7.506  11.767  0.00  0.00    +0.000 C 
BRANCH   7   8
ATOM      8  N   UNL     1      46.183   6.254  11.054  0.00  0.00    +0.000 NA
ATOM      9  H   UNL     1      47.001   5.792  11.458  0.00  0.00    +0.000 HD
BRANCH   8  11
ATOM     10  C   UNL     1      43.696   6.061  11.188  0.00  0.00    +0.000 C 
ATOM     11  C   UNL     1      45.042   5.324  11.155  0.00  0.00    +0.000 C 
BRANCH  11  12
ATOM     12  C   UNL     1      45.086   4.324  10.005  0.00  0.00    +0.000 A 
ATOM     13  C   UNL     1      44.582   3.024  10.174  0.00  0.00    +0.000 A 
ATOM     14  C   UNL     1      44.660   2.088   9.139  0.00  0.00    +0.000 A 
ATOM     15  C   UNL     1      45.236   2.438   7.921  0.00  0.00    +0.000 A 
ATOM     16  C   UNL     1      45.724   3.728   7.730  0.00  0.00    +0.000 A 
ATOM     17  C   UNL     1      45.649   4.665   8.764  0.00  0.00    +0.000 A 
ENDBRANCH  11  12
ENDBRANCH   8  11
ENDBRANCH   7   8
ENDBRANCH   1   7
BRANCH   4  18
ATOM     18  C   UNL     1      50.281   9.179  15.173  0.00  0.00    +0.000 C 
BRANCH  18  19
ATOM     19  N   UNL     1      50.287   8.468  16.424  0.00  0.00    +0.000 N 
ATOM     20  C   UNL     1      49.656   8.908  17.550  0.00  0.00    +0.000 C 
ATOM     21  O   UNL     1      48.896   9.875  17.560  0.00  0.00    +0.000 OA
ATOM     22  H   UNL     1      50.870   7.644  16.455  0.00  0.00    +0.000 HD
BRANCH  20  23
ATOM     23  C   UNL     1      49.905   8.103  18.749  0.00  0.00    +0.000 A 
ATOM     24  C   UNL     1      50.607   8.617  19.826  0.00  0.00    +0.000 A 
ATOM     25  S   UNL     1      50.713   7.528  21.139  0.00  0.00    +0.000 S 
ATOM     26  C   UNL     1      49.867   6.321  20.285  0.00  0.00    +0.000 A 
ATOM     27  N   UNL     1      49.603   5.114  20.847  0.00  0.00    +0.000 NA
ATOM     28  C   UNL     1      48.971   4.290  20.072  0.00  0.00    +0.000 A 
ATOM     29  N   UNL     1      48.585   4.546  18.774  0.00  0.00    +0.000 N 
ATOM     30  C   UNL     1      47.889   3.547  17.992  0.00  0.00    +0.000 C 
ATOM     31  C   UNL     1      48.856   5.766  18.162  0.00  0.00    +0.000 A 
ATOM     32  O   UNL     1      48.543   6.003  16.999  0.00  0.00    +0.000 OA
ATOM     33  C   UNL     1      49.523   6.735  19.013  0.00  0.00    +0.000 A 
ENDBRANCH  20  23
ENDBRANCH  18  19
ENDBRANCH   4  18
TORSDOF 7
ENDMDL
