MODEL 1
REMARK VINA RESULT:    -8.214      0.000      0.000
REMARK INTER + INTRA:          -9.283
REMARK INTER:                  -9.654
REMARK INTRA:                   0.371
REMARK UNBOUND:                 0.371
REMARK  Name = 
REMARK  3 active torsions:
REMARK  status: ('A' for Active; 'I' for Inactive)
REMARK    1  A    between atoms: C_2  and  C_4
REMARK    2  A    between atoms: N_8  and  C_9
REMARK    3  A    between atoms: C_9  and  C_10
REMARK                            x       y       z     vdW  Elec       q    Type
REMARK                         _______ _______ _______ _____ _____    ______ ____
ROOT
ATOM      1  C   UNL     1      46.357   2.115   7.894  0.00  0.00    +0.000 A 
ATOM      2  C   UNL     1      46.410   3.409   7.385  0.00  0.00    +0.000 A 
ATOM      3  C   UNL     1      45.683   4.411   8.026  0.00  0.00    +0.000 A 
ATOM      4  C   UNL     1      44.946   4.119   9.179  0.00  0.00    +0.000 A 
ATOM      5  N   UNL     1      44.302   5.204   9.793  0.00  0.00    +0.000 N 
ATOM      6  N   UNL     1      44.886   2.865   9.671  0.00  0.00    +0.000 NA
ATOM      7  C   UNL     1      45.568   1.892   9.011  0.00  0.00    +0.000 A 
ATOM      8  H   UNL     1      43.591   5.581   9.165  0.00  0.00    +0.000 HD
ENDROOT
BRANCH   1  10
ATOM      9  N   UNL     1      46.726  -0.274   7.648  0.00  0.00    +0.000 N 
ATOM     10  C   UNL     1      47.078   0.990   7.265  0.00  0.00    +0.000 C 
ATOM     11  O   UNL     1      47.937   1.179   6.415  0.00  0.00    +0.000 OA
ATOM     12  H   UNL     1      47.167  -1.037   7.149  0.00  0.00    +0.000 HD
ATOM     13  H   UNL     1      45.867  -0.478   8.142  0.00  0.00    +0.000 HD
ENDBRANCH   1  10
BRANCH   5  14
ATOM     14  C   UNL     1      43.859   5.259  11.216  0.00  0.00    +0.000 C 
ATOM     15  C   UNL     1      42.757   4.245  11.541  0.00  0.00    +0.000 C 
ATOM     16  C   UNL     1      42.500   5.702  11.723  0.00  0.00    +0.000 C 
BRANCH  14  17
ATOM     17  C   UNL     1      45.057   5.355  12.207  0.00  0.00    +0.000 A 
ATOM     18  N   UNL     1      45.665   6.564  12.339  0.00  0.00    +0.000 NA
ATOM     19  C   UNL     1      46.751   6.625  13.133  0.00  0.00    +0.000 A 
ATOM     20  C   UNL     1      47.266   5.543  13.800  0.00  0.00    +0.000 A 
ATOM     21  C   UNL     1      46.585   4.365  13.625  0.00  0.00    +0.000 A 
ATOM     22  N   UNL     1      45.495   4.246  12.846  0.00  0.00    +0.000 NA
ENDBRANCH  14  17
ENDBRANCH   5  14
TORSDOF 3
ENDMDL
MODEL 2
REMARK VINA RESULT:    -7.290      1.523      1.929
REMARK INTER + INTRA:          -8.197
REMARK INTER:                  -7.817
REMARK INTRA:                  -0.380
REMARK UNBOUND:                 0.371
REMARK  Name = 
REMARK  3 active torsions:
REMARK  status: ('A' for Active; 'I' for Inactive)
REMARK    1  A    between atoms: C_2  and  C_4
REMARK    2  A    between atoms: N_8  and  C_9
REMARK    3  A    between atoms: C_9  and  C_10
REMARK                            x       y       z     vdW  Elec       q    Type
REMARK                         _______ _______ _______ _____ _____    ______ ____
ROOT
ATOM      1  C   UNL     1      46.378   3.065   7.552  0.00  0.00    +0.000 A 
ATOM      2  C   UNL     1      45.791   2.045   8.295  0.00  0.00    +0.000 A 
ATOM      3  C   UNL     1      45.219   2.358   9.527  0.00  0.00    +0.000 A 
ATOM      4  C   UNL     1      45.208   3.681   9.983  0.00  0.00    +0.000 A 
ATOM      5  N   UNL     1      44.551   3.910  11.201  0.00  0.00    +0.000 N 
ATOM      6  N   UNL     1      45.782   4.671   9.270  0.00  0.00    +0.000 NA
ATOM      7  C   UNL     1      46.371   4.342   8.089  0.00  0.00    +0.000 A 
ATOM      8  H   UNL     1      45.040   3.421  11.952  0.00  0.00    +0.000 HD
ENDROOT
BRANCH   1  10
ATOM      9  N   UNL     1      48.364   2.539   6.254  0.00  0.00    +0.000 N 
ATOM     10  C   UNL     1      47.026   2.819   6.248  0.00  0.00    +0.000 C 
ATOM     11  O   UNL     1      46.386   2.836   5.206  0.00  0.00    +0.000 OA
ATOM     12  H   UNL     1      48.777   2.289   5.364  0.00  0.00    +0.000 HD
ATOM     13  H   UNL     1      48.864   2.268   7.090  0.00  0.00    +0.000 HD
ENDBRANCH   1  10
BRANCH   5  14
ATOM     14  C   UNL     1      44.010   5.221  11.664  0.00  0.00    +0.000 C 
ATOM     15  C   UNL     1      42.705   5.086  12.454  0.00  0.00    +0.000 C 
ATOM     16  C   UNL     1      42.730   5.885  11.197  0.00  0.00    +0.000 C 
BRANCH  14  17
ATOM     17  C   UNL     1      45.116   6.141  12.260  0.00  0.00    +0.000 A 
ATOM     18  N   UNL     1      45.033   7.472  11.995  0.00  0.00    +0.000 NA
ATOM     19  C   UNL     1      46.034   8.254  12.443  0.00  0.00    +0.000 A 
ATOM     20  C   UNL     1      47.117   7.779  13.137  0.00  0.00    +0.000 A 
ATOM     21  C   UNL     1      47.117   6.427  13.373  0.00  0.00    +0.000 A 
ATOM     22  N   UNL     1      46.144   5.600  12.953  0.00  0.00    +0.000 NA
ENDBRANCH  14  17
ENDBRANCH   5  14
TORSDOF 3
ENDMDL
MODEL 3
REMARK VINA RESULT:    -7.228      2.973      6.338
REMARK INTER + INTRA:          -8.125
REMARK INTER:                  -7.865
REMARK INTRA:                  -0.260
REMARK UNBOUND:                 0.371
REMARK  Name = 
REMARK  3 active torsions:
REMARK  status: ('A' for Active; 'I' for Inactive)
REMARK    1  A    between atoms: C_2  and  C_4
REMARK    2  A    between atoms: N_8  and  C_9
REMARK    3  A    between atoms: C_9  and  C_10
REMARK                            x       y       z     vdW  Elec       q    Type
REMARK                         _______ _______ _______ _____ _____    ______ ____
ROOT
ATOM      1  C   UNL     1      47.404   4.722  15.194  0.00  0.00    +0.000 A 
ATOM      2  C   UNL     1      47.398   5.981  14.601  0.00  0.00    +0.000 A 
ATOM      3  C   UNL     1      46.848   6.120  13.328  0.00  0.00    +0.000 A 
ATOM      4  C   UNL     1      46.282   5.015  12.681  0.00  0.00    +0.000 A 
ATOM      5  N   UNL     1      45.692   5.266  11.433  0.00  0.00    +0.000 N 
ATOM      6  N   UNL     1      46.292   3.792  13.249  0.00  0.00    +0.000 NA
ATOM      7  C   UNL     1      46.868   3.666  14.473  0.00  0.00    +0.000 A 
ATOM      8  H   UNL     1      46.407   5.568  10.770  0.00  0.00    +0.000 HD
ENDROOT
BRANCH   1  10
ATOM      9  N   UNL     1      47.259   4.885  17.614  0.00  0.00    +0.000 N 
ATOM     10  C   UNL     1      47.986   4.481  16.529  0.00  0.00    +0.000 C 
ATOM     11  O   UNL     1      49.063   3.916  16.662  0.00  0.00    +0.000 OA
ATOM     12  H   UNL     1      47.629   4.638  18.524  0.00  0.00    +0.000 HD
ATOM     13  H   UNL     1      46.276   5.115  17.560  0.00  0.00    +0.000 HD
ENDBRANCH   1  10
BRANCH   5  14
ATOM     14  C   UNL     1      44.660   4.414  10.773  0.00  0.00    +0.000 C 
ATOM     15  C   UNL     1      43.293   5.098  10.673  0.00  0.00    +0.000 C 
ATOM     16  C   UNL     1      43.428   3.820  11.427  0.00  0.00    +0.000 C 
BRANCH  14  17
ATOM     17  C   UNL     1      45.203   3.707   9.496  0.00  0.00    +0.000 A 
ATOM     18  N   UNL     1      45.250   2.349   9.504  0.00  0.00    +0.000 NA
ATOM     19  C   UNL     1      45.795   1.744   8.432  0.00  0.00    +0.000 A 
ATOM     20  C   UNL     1      46.300   2.422   7.352  0.00  0.00    +0.000 A 
ATOM     21  C   UNL     1      46.200   3.789   7.417  0.00  0.00    +0.000 A 
ATOM     22  N   UNL     1      45.664   4.446   8.460  0.00  0.00    +0.000 NA
ENDBRANCH  14  17
ENDBRANCH   5  14
TORSDOF 3
ENDMDL
MODEL 4
REMARK VINA RESULT:    -7.210      3.060      6.486
REMARK INTER + INTRA:          -8.103
REMARK INTER:                  -7.923
REMARK INTRA:                  -0.180
REMARK UNBOUND:                 0.371
REMARK  Name = 
REMARK  3 active torsions:
REMARK  status: ('A' for Active; 'I' for Inactive)
REMARK    1  A    between atoms: C_2  and  C_4
REMARK    2  A    between atoms: N_8  and  C_9
REMARK    3  A    between atoms: C_9  and  C_10
REMARK                            x       y       z     vdW  Elec       q    Type
REMARK                         _______ _______ _______ _____ _____    ______ ____
ROOT
ATOM      1  C   UNL     1      47.004   8.163  12.988  0.00  0.00    +0.000 A 
ATOM      2  C   UNL     1      45.791   8.618  12.479  0.00  0.00    +0.000 A 
ATOM      3  C   UNL     1      45.032   7.757  11.687  0.00  0.00    +0.000 A 
ATOM      4  C   UNL     1      45.472   6.452  11.444  0.00  0.00    +0.000 A 
ATOM      5  N   UNL     1      44.609   5.638  10.693  0.00  0.00    +0.000 N 
ATOM      6  N   UNL     1      46.649   6.009  11.930  0.00  0.00    +0.000 NA
ATOM      7  C   UNL     1      47.396   6.873  12.667  0.00  0.00    +0.000 A 
ATOM      8  H   UNL     1      44.513   6.018   9.751  0.00  0.00    +0.000 HD
ENDROOT
BRANCH   1  10
ATOM      9  N   UNL     1      47.556   9.152  15.138  0.00  0.00    +0.000 N 
ATOM     10  C   UNL     1      47.881   9.014  13.817  0.00  0.00    +0.000 C 
ATOM     11  O   UNL     1      48.874   9.552  13.348  0.00  0.00    +0.000 OA
ATOM     12  H   UNL     1      48.211   9.668  15.713  0.00  0.00    +0.000 HD
ATOM     13  H   UNL     1      46.909   8.535  15.611  0.00  0.00    +0.000 HD
ENDBRANCH   1  10
BRANCH   5  14
ATOM     14  C   UNL     1      44.611   4.146  10.684  0.00  0.00    +0.000 C 
ATOM     15  C   UNL     1      43.282   3.543  11.147  0.00  0.00    +0.000 C 
ATOM     16  C   UNL     1      44.534   3.236  11.894  0.00  0.00    +0.000 C 
BRANCH  14  17
ATOM     17  C   UNL     1      45.250   3.562   9.389  0.00  0.00    +0.000 A 
ATOM     18  N   UNL     1      45.398   2.213   9.318  0.00  0.00    +0.000 NA
ATOM     19  C   UNL     1      46.024   1.717   8.234  0.00  0.00    +0.000 A 
ATOM     20  C   UNL     1      46.516   2.496   7.218  0.00  0.00    +0.000 A 
ATOM     21  C   UNL     1      46.313   3.845   7.361  0.00  0.00    +0.000 A 
ATOM     22  N   UNL     1      45.693   4.395   8.420  0.00  0.00    +0.000 NA
ENDBRANCH  14  17
ENDBRANCH   5  14
TORSDOF 3
ENDMDL
MODEL 5
REMARK VINA RESULT:    -6.487      4.426      6.700
REMARK INTER + INTRA:          -7.253
REMARK INTER:                  -7.089
REMARK INTRA:                  -0.164
REMARK UNBOUND:                 0.371
REMARK  Name = 
REMARK  3 active torsions:
REMARK  status: ('A' for Active; 'I' for Inactive)
REMARK    1  A    between atoms: C_2  and  C_4
REMARK    2  A    between atoms: N_8  and  C_9
REMARK    3  A    between atoms: C_9  and  C_10
REMARK                            x       y       z     vdW  Elec       q    Type
REMARK                         _______ _______ _______ _____ _____    ______ ____
ROOT
ATOM      1  C   UNL     1      45.990   5.464  12.238  0.00  0.00    +0.000 A 
ATOM      2  C   UNL     1      45.781   4.089  12.194  0.00  0.00    +0.000 A 
ATOM      3  C   UNL     1      46.350   3.292  13.186  0.00  0.00    +0.000 A 
ATOM      4  C   UNL     1      47.086   3.877  14.222  0.00  0.00    +0.000 A 
ATOM      5  N   UNL     1      47.563   3.003  15.212  0.00  0.00    +0.000 N 
ATOM      6  N   UNL     1      47.297   5.208  14.265  0.00  0.00    +0.000 NA
ATOM      7  C   UNL     1      46.769   5.966  13.268  0.00  0.00    +0.000 A 
ATOM      8  H   UNL     1      48.235   2.354  14.801  0.00  0.00    +0.000 HD
ENDROOT
BRANCH   1  10
ATOM      9  N   UNL     1      45.103   5.839  10.007  0.00  0.00    +0.000 N 
ATOM     10  C   UNL     1      45.442   6.378  11.216  0.00  0.00    +0.000 C 
ATOM     11  O   UNL     1      45.272   7.567  11.450  0.00  0.00    +0.000 OA
ATOM     12  H   UNL     1      44.651   6.459   9.346  0.00  0.00    +0.000 HD
ATOM     13  H   UNL     1      44.989   4.844   9.863  0.00  0.00    +0.000 HD
ENDBRANCH   1  10
BRANCH   5  14
ATOM     14  C   UNL     1      47.953   3.391  16.598  0.00  0.00    +0.000 C 
ATOM     15  C   UNL     1      46.922   2.970  17.651  0.00  0.00    +0.000 C 
ATOM     16  C   UNL     1      47.260   4.412  17.479  0.00  0.00    +0.000 C 
BRANCH  14  17
ATOM     17  C   UNL     1      49.450   3.085  16.900  0.00  0.00    +0.000 A 
ATOM     18  N   UNL     1      49.875   1.805  16.729  0.00  0.00    +0.000 NA
ATOM     19  C   UNL     1      51.148   1.527  17.068  0.00  0.00    +0.000 A 
ATOM     20  C   UNL     1      52.019   2.457  17.575  0.00  0.00    +0.000 A 
ATOM     21  C   UNL     1      51.516   3.726  17.703  0.00  0.00    +0.000 A 
ATOM     22  N   UNL     1      50.255   4.062  17.378  0.00  0.00    +0.000 NA
ENDBRANCH  14  17
ENDBRANCH   5  14
TORSDOF 3
ENDMDL
MODEL 6
REMARK VINA RESULT:    -6.246      6.252      8.869
REMARK INTER + INTRA:          -6.971
REMARK INTER:                  -6.646
REMARK INTRA:                  -0.324
REMARK UNBOUND:                 0.371
REMARK  Name = 
REMARK  3 active torsions:
REMARK  status: ('A' for Active; 'I' for Inactive)
REMARK    1  A    between atoms: C_2  and  C_4
REMARK    2  A    between atoms: N_8  and  C_9
REMARK    3  A    between atoms: C_9  and  C_10
REMARK                            x       y       z     vdW  Elec       q    Type
REMARK                         _______ _______ _______ _____ _____    ______ ____
ROOT
ATOM      1  C   UNL     1      52.481   1.626  17.763  0.00  0.00    +0.000 A 
ATOM      2  C   UNL     1      52.644   2.890  18.321  0.00  0.00    +0.000 A 
ATOM      3  C   UNL     1      51.650   3.846  18.117  0.00  0.00    +0.000 A 
ATOM      4  C   UNL     1      50.498   3.520  17.394  0.00  0.00    +0.000 A 
ATOM      5  N   UNL     1      49.523   4.525  17.299  0.00  0.00    +0.000 N 
ATOM      6  N   UNL     1      50.338   2.299  16.845  0.00  0.00    +0.000 NA
ATOM      7  C   UNL     1      51.335   1.391  17.020  0.00  0.00    +0.000 A 
ATOM      8  H   UNL     1      49.897   5.317  16.775  0.00  0.00    +0.000 HD
ENDROOT
BRANCH   1  10
ATOM      9  N   UNL     1      53.100  -0.601  18.514  0.00  0.00    +0.000 N 
ATOM     10  C   UNL     1      53.493   0.561  17.910  0.00  0.00    +0.000 C 
ATOM     11  O   UNL     1      54.631   0.701  17.484  0.00  0.00    +0.000 OA
ATOM     12  H   UNL     1      53.778  -1.352  18.533  0.00  0.00    +0.000 HD
ATOM     13  H   UNL     1      52.128  -0.849  18.645  0.00  0.00    +0.000 HD
ENDBRANCH   1  10
BRANCH   5  14
ATOM     14  C   UNL     1      48.077   4.308  17.004  0.00  0.00    +0.000 C 
ATOM     15  C   UNL     1      47.157   4.774  18.137  0.00  0.00    +0.000 C 
ATOM     16  C   UNL     1      47.145   3.346  17.715  0.00  0.00    +0.000 C 
BRANCH  14  17
ATOM     17  C   UNL     1      47.698   4.730  15.554  0.00  0.00    +0.000 A 
ATOM     18  N   UNL     1      48.275   5.857  15.058  0.00  0.00    +0.000 NA
ATOM     19  C   UNL     1      47.883   6.264  13.836  0.00  0.00    +0.000 A 
ATOM     20  C   UNL     1      46.943   5.610  13.082  0.00  0.00    +0.000 A 
ATOM     21  C   UNL     1      46.420   4.475  13.649  0.00  0.00    +0.000 A 
ATOM     22  N   UNL     1      46.775   4.020  14.863  0.00  0.00    +0.000 NA
ENDBRANCH  14  17
ENDBRANCH   5  14
TORSDOF 3
ENDMDL
MODEL 7
REMARK VINA RESULT:    -6.195      3.460      5.342
REMARK INTER + INTRA:          -6.910
REMARK INTER:                  -6.522
REMARK INTRA:                  -0.388
REMARK UNBOUND:                 0.371
REMARK  Name = 
REMARK  3 active torsions:
REMARK  status: ('A' for Active; 'I' for Inactive)
REMARK    1  A    between atoms: C_2  and  C_4
REMARK    2  A    between atoms: N_8  and  C_9
REMARK    3  A    between atoms: C_9  and  C_10
REMARK                            x       y       z     vdW  Elec       q    Type
REMARK                         _______ _______ _______ _____ _____    ______ ____
ROOT
ATOM      1  C   UNL     1      44.794   4.484  11.666  0.00  0.00    +0.000 A 
ATOM      2  C   UNL     1      44.375   5.692  11.119  0.00  0.00    +0.000 A 
ATOM      3  C   UNL     1      45.141   6.834  11.349  0.00  0.00    +0.000 A 
ATOM      4  C   UNL     1      46.326   6.750  12.088  0.00  0.00    +0.000 A 
ATOM      5  N   UNL     1      47.064   7.938  12.210  0.00  0.00    +0.000 N 
ATOM      6  N   UNL     1      46.732   5.583  12.627  0.00  0.00    +0.000 NA
ATOM      7  C   UNL     1      45.953   4.487  12.426  0.00  0.00    +0.000 A 
ATOM      8  H   UNL     1      46.523   8.625  12.736  0.00  0.00    +0.000 HD
ENDROOT
BRANCH   1  10
ATOM      9  N   UNL     1      43.738   2.512  12.615  0.00  0.00    +0.000 N 
ATOM     10  C   UNL     1      44.033   3.231  11.491  0.00  0.00    +0.000 C 
ATOM     11  O   UNL     1      43.655   2.865  10.387  0.00  0.00    +0.000 OA
ATOM     12  H   UNL     1      43.144   1.701  12.491  0.00  0.00    +0.000 HD
ATOM     13  H   UNL     1      43.805   2.900  13.547  0.00  0.00    +0.000 HD
ENDBRANCH   1  10
BRANCH   5  14
ATOM     14  C   UNL     1      48.519   8.027  12.527  0.00  0.00    +0.000 C 
ATOM     15  C   UNL     1      49.244   9.106  11.717  0.00  0.00    +0.000 C 
ATOM     16  C   UNL     1      49.668   7.683  11.600  0.00  0.00    +0.000 C 
BRANCH  14  17
ATOM     17  C   UNL     1      48.796   7.975  14.058  0.00  0.00    +0.000 A 
ATOM     18  N   UNL     1      49.533   6.932  14.526  0.00  0.00    +0.000 NA
ATOM     19  C   UNL     1      49.702   6.846  15.859  0.00  0.00    +0.000 A 
ATOM     20  C   UNL     1      49.171   7.741  16.752  0.00  0.00    +0.000 A 
ATOM     21  C   UNL     1      48.454   8.770  16.197  0.00  0.00    +0.000 A 
ATOM     22  N   UNL     1      48.254   8.908  14.875  0.00  0.00    +0.000 NA
ENDBRANCH  14  17
ENDBRANCH   5  14
TORSDOF 3
ENDMDL
MODEL 8
REMARK VINA RESULT:    -5.983      4.838      8.224
REMARK INTER + INTRA:          -6.662
REMARK INTER:                  -6.708
REMARK INTRA:                   0.046
REMARK UNBOUND:                 0.371
REMARK  Name = 
REMARK  3 active torsions:
REMARK  status: ('A' for Active; 'I' for Inactive)
REMARK    1  A    between atoms: C_2  and  C_4
REMARK    2  A    between atoms: N_8  and  C_9
REMARK    3  A    between atoms: C_9  and  C_10
REMARK                            x       y       z     vdW  Elec       q    Type
REMARK                         _______ _______ _______ _____ _____    ______ ____
ROOT
ATOM      1  C   UNL     1      48.723   4.231  18.508  0.00  0.00    +0.000 A 
ATOM      2  C   UNL     1      48.884   3.060  17.775  0.00  0.00    +0.000 A 
ATOM      3  C   UNL     1      48.252   2.951  16.538  0.00  0.00    +0.000 A 
ATOM      4  C   UNL     1      47.500   4.019  16.035  0.00  0.00    +0.000 A 
ATOM      5  N   UNL     1      46.958   3.844  14.753  0.00  0.00    +0.000 N 
ATOM      6  N   UNL     1      47.335   5.153  16.745  0.00  0.00    +0.000 NA
ATOM      7  C   UNL     1      47.926   5.228  17.967  0.00  0.00    +0.000 A 
ATOM      8  H   UNL     1      46.278   3.083  14.769  0.00  0.00    +0.000 HD
ENDROOT
BRANCH   1  10
ATOM      9  N   UNL     1      48.587   4.095  20.931  0.00  0.00    +0.000 N 
ATOM     10  C   UNL     1      49.339   4.422  19.837  0.00  0.00    +0.000 C 
ATOM     11  O   UNL     1      50.485   4.830  19.955  0.00  0.00    +0.000 OA
ATOM     12  H   UNL     1      49.049   4.150  21.830  0.00  0.00    +0.000 HD
ATOM     13  H   UNL     1      47.752   3.527  20.872  0.00  0.00    +0.000 HD
ENDBRANCH   1  10
BRANCH   5  14
ATOM     14  C   UNL     1      46.532   4.938  13.833  0.00  0.00    +0.000 C 
ATOM     15  C   UNL     1      47.670   5.452  12.945  0.00  0.00    +0.000 C 
ATOM     16  C   UNL     1      46.982   6.385  13.881  0.00  0.00    +0.000 C 
BRANCH  14  17
ATOM     17  C   UNL     1      45.168   4.637  13.144  0.00  0.00    +0.000 A 
ATOM     18  N   UNL     1      44.974   3.382  12.659  0.00  0.00    +0.000 NA
ATOM     19  C   UNL     1      43.828   3.147  11.993  0.00  0.00    +0.000 A 
ATOM     20  C   UNL     1      42.864   4.100  11.780  0.00  0.00    +0.000 A 
ATOM     21  C   UNL     1      43.131   5.335  12.315  0.00  0.00    +0.000 A 
ATOM     22  N   UNL     1      44.256   5.625  12.990  0.00  0.00    +0.000 NA
ENDBRANCH  14  17
ENDBRANCH   5  14
TORSDOF 3
ENDMDL
MODEL 9
REMARK VINA RESULT:    -5.921      2.817      5.962
REMARK INTER + INTRA:          -6.588
REMARK INTER:                  -7.053
REMARK INTRA:                   0.465
REMARK UNBOUND:                 0.371
REMARK  Name = 
REMARK  3 active torsions:
REMARK  status: ('A' for Active; 'I' for Inactive)
REMARK    1  A    between atoms: C_2  and  C_4
REMARK    2  A    between atoms: N_8  and  C_9
REMARK    3  A    between atoms: C_9  and  C_10
REMARK                            x       y       z     vdW  Elec       q    Type
REMARK                         _______ _______ _______ _____ _____    ______ ____
ROOT
ATOM      1  C   UNL     1      48.295   7.000  13.263  0.00  0.00    +0.000 A 
ATOM      2  C   UNL     1      48.000   5.891  14.050  0.00  0.00    +0.000 A 
ATOM      3  C   UNL     1      46.760   5.272  13.899  0.00  0.00    +0.000 A 
ATOM      4  C   UNL     1      45.850   5.743  12.946  0.00  0.00    +0.000 A 
ATOM      5  N   UNL     1      44.656   5.016  12.819  0.00  0.00    +0.000 N 
ATOM      6  N   UNL     1      46.129   6.822  12.186  0.00  0.00    +0.000 NA
ATOM      7  C   UNL     1      47.326   7.437  12.374  0.00  0.00    +0.000 A 
ATOM      8  H   UNL     1      44.122   5.080  13.686  0.00  0.00    +0.000 HD
ENDROOT
BRANCH   1  10
ATOM      9  N   UNL     1      50.426   7.355  14.375  0.00  0.00    +0.000 N 
ATOM     10  C   UNL     1      49.575   7.728  13.373  0.00  0.00    +0.000 C 
ATOM     11  O   UNL     1      49.876   8.611  12.582  0.00  0.00    +0.000 OA
ATOM     12  H   UNL     1      51.334   7.802  14.388  0.00  0.00    +0.000 HD
ATOM     13  H   UNL     1      50.333   6.481  14.877  0.00  0.00    +0.000 HD
ENDBRANCH   1  10
BRANCH   5  14
ATOM     14  C   UNL     1      43.763   5.016  11.625  0.00  0.00    +0.000 C 
ATOM     15  C   UNL     1      43.178   6.397  11.314  0.00  0.00    +0.000 C 
ATOM     16  C   UNL     1      42.266   5.259  11.617  0.00  0.00    +0.000 C 
BRANCH  14  17
ATOM     17  C   UNL     1      44.361   4.208  10.436  0.00  0.00    +0.000 A 
ATOM     18  N   UNL     1      45.191   4.869   9.585  0.00  0.00    +0.000 NA
ATOM     19  C   UNL     1      45.642   4.191   8.513  0.00  0.00    +0.000 A 
ATOM     20  C   UNL     1      45.306   2.889   8.240  0.00  0.00    +0.000 A 
ATOM     21  C   UNL     1      44.477   2.292   9.156  0.00  0.00    +0.000 A 
ATOM     22  N   UNL     1      43.998   2.919  10.244  0.00  0.00    +0.000 NA
ENDBRANCH  14  17
ENDBRANCH   5  14
TORSDOF 3
ENDMDL
