MODEL 1
REMARK VINA RESULT:    -8.147      0.000      0.000
REMARK INTER + INTRA:         -12.145
REMARK INTER:                 -11.004
REMARK INTRA:                  -1.141
REMARK UNBOUND:                -1.141
REMARK  Name = 
REMARK  6 active torsions:
REMARK  status: ('A' for Active; 'I' for Inactive)
REMARK    1  A    between atoms: C_2  and  C_25
REMARK    2  A    between atoms: N_3  and  C_4
REMARK    3  A    between atoms: C_4  and  C_5
REMARK    4  A    between atoms: C_8  and  C_9
REMARK    5  A    between atoms: C_9  and  N_10
REMARK    6  A    between atoms: C_11  and  C_13
REMARK                            x       y       z     vdW  Elec       q    Type
REMARK                         _______ _______ _______ _____ _____    ______ ____
ROOT
ATOM      1  C   UNL     1      44.808   5.663  10.895  0.00  0.00    +0.000 A 
ATOM      2  C   UNL     1      44.205   6.217  12.033  0.00  0.00    +0.000 A 
ATOM      3  C   UNL     1      44.932   7.042  12.900  0.00  0.00    +0.000 A 
ATOM      4  C   UNL     1      46.273   7.352  12.634  0.00  0.00    +0.000 A 
ATOM      5  C   UNL     1      46.877   6.790  11.501  0.00  0.00    +0.000 A 
ATOM      6  C   UNL     1      46.149   5.968  10.633  0.00  0.00    +0.000 A 
ENDROOT
BRANCH   1   7
ATOM      7  C   UNL     1      44.017   4.784   9.958  0.00  0.00    +0.000 C 
BRANCH   7  10
ATOM      8  O   UNL     1      45.101   2.209   9.736  0.00  0.00    +0.000 OA
ATOM      9  C   UNL     1      45.318   3.024   8.843  0.00  0.00    +0.000 C 
ATOM     10  N   UNL     1      44.833   4.306   8.872  0.00  0.00    +0.000 N 
ATOM     11  H   UNL     1      44.911   4.880   8.046  0.00  0.00    +0.000 HD
BRANCH   9  12
ATOM     12  C   UNL     1      46.102   2.696   7.667  0.00  0.00    +0.000 A 
ATOM     13  C   UNL     1      46.265   3.357   6.459  0.00  0.00    +0.000 A 
ATOM     14  C   UNL     1      47.157   2.602   5.657  0.00  0.00    +0.000 A 
ATOM     15  C   UNL     1      47.525   1.498   6.387  0.00  0.00    +0.000 A 
ATOM     16  N   UNL     1      46.891   1.565   7.600  0.00  0.00    +0.000 N 
ATOM     17  H   UNL     1      46.977   0.892   8.353  0.00  0.00    +0.000 HD
ENDBRANCH   9  12
ENDBRANCH   7  10
ENDBRANCH   1   7
BRANCH   4  18
ATOM     18  C   UNL     1      47.071   8.230  13.567  0.00  0.00    +0.000 C 
BRANCH  18  19
ATOM     19  N   UNL     1      47.551   7.478  14.697  0.00  0.00    +0.000 N 
ATOM     20  C   UNL     1      48.781   6.871  14.699  0.00  0.00    +0.000 C 
ATOM     21  O   UNL     1      49.566   6.974  13.762  0.00  0.00    +0.000 OA
ATOM     22  H   UNL     1      46.848   7.160  15.354  0.00  0.00    +0.000 HD
BRANCH  20  23
ATOM     23  C   UNL     1      49.135   6.143  15.927  0.00  0.00    +0.000 A 
ATOM     24  C   UNL     1      50.241   6.529  16.673  0.00  0.00    +0.000 A 
ATOM     25  S   UNL     1      50.443   5.629  18.109  0.00  0.00    +0.000 S 
ATOM     26  C   UNL     1      49.096   4.653  17.752  0.00  0.00    +0.000 A 
ATOM     27  N   UNL     1      48.715   3.648  18.587  0.00  0.00    +0.000 NA
ATOM     28  C   UNL     1      47.698   2.967  18.174  0.00  0.00    +0.000 A 
ATOM     29  N   UNL     1      47.025   3.200  17.004  0.00  0.00    +0.000 N 
ATOM     30  C   UNL     1      47.357   4.217  16.142  0.00  0.00    +0.000 A 
ATOM     31  O   UNL     1      46.715   4.416  15.118  0.00  0.00    +0.000 OA
ATOM     32  C   UNL     1      48.496   5.013  16.560  0.00  0.00    +0.000 A 
ATOM     33  H   UNL     1      46.234   2.633  16.736  0.00  0.00    +0.000 HD
ENDBRANCH  20  23
ENDBRANCH  18  19
ENDBRANCH   4  18
TORSDOF 6
ENDMDL
MODEL 2
REMARK VINA RESULT:    -7.701      1.120      1.273
REMARK INTER + INTRA:         -11.543
REMARK INTER:                 -10.931
REMARK INTRA:                  -0.612
REMARK UNBOUND:                -1.141
REMARK  Name = 
REMARK  6 active torsions:
REMARK  status: ('A' for Active; 'I' for Inactive)
REMARK    1  A    between atoms: C_2  and  C_25
REMARK    2  A    between atoms: N_3  and  C_4
REMARK    3  A    between atoms: C_4  and  C_5
REMARK    4  A    between atoms: C_8  and  C_9
REMARK    5  A    between atoms: C_9  and  N_10
REMARK    6  A    between atoms: C_11  and  C_13
REMARK                            x       y       z     vdW  Elec       q    Type
REMARK                         _______ _______ _______ _____ _____    ______ ____
ROOT
ATOM      1  C   UNL     1      44.721   5.106  11.375  0.00  0.00    +0.000 A 
ATOM      2  C   UNL     1      45.797   4.696  12.175  0.00  0.00    +0.000 A 
ATOM      3  C   UNL     1      46.594   5.636  12.841  0.00  0.00    +0.000 A 
ATOM      4  C   UNL     1      46.317   7.006  12.741  0.00  0.00    +0.000 A 
ATOM      5  C   UNL     1      45.247   7.415  11.933  0.00  0.00    +0.000 A 
ATOM      6  C   UNL     1      44.449   6.476  11.270  0.00  0.00    +0.000 A 
ENDROOT
BRANCH   1   7
ATOM      7  C   UNL     1      43.859   4.090  10.668  0.00  0.00    +0.000 C 
BRANCH   7  10
ATOM      8  O   UNL     1      45.157   4.750   8.274  0.00  0.00    +0.000 OA
ATOM      9  C   UNL     1      45.258   3.605   8.708  0.00  0.00    +0.000 C 
ATOM     10  N   UNL     1      44.653   3.193   9.868  0.00  0.00    +0.000 N 
ATOM     11  H   UNL     1      44.894   2.294  10.256  0.00  0.00    +0.000 HD
BRANCH   9  12
ATOM     12  C   UNL     1      46.041   2.585   8.035  0.00  0.00    +0.000 A 
ATOM     13  C   UNL     1      46.971   2.669   7.010  0.00  0.00    +0.000 A 
ATOM     14  C   UNL     1      47.450   1.364   6.737  0.00  0.00    +0.000 A 
ATOM     15  C   UNL     1      46.810   0.507   7.600  0.00  0.00    +0.000 A 
ATOM     16  N   UNL     1      45.967   1.252   8.385  0.00  0.00    +0.000 N 
ATOM     17  H   UNL     1      45.370   0.894   9.121  0.00  0.00    +0.000 HD
ENDBRANCH   9  12
ENDBRANCH   7  10
ENDBRANCH   1   7
BRANCH   4  18
ATOM     18  C   UNL     1      47.176   8.029  13.444  0.00  0.00    +0.000 C 
BRANCH  18  19
ATOM     19  N   UNL     1      47.604   7.545  14.730  0.00  0.00    +0.000 N 
ATOM     20  C   UNL     1      48.847   7.000  14.929  0.00  0.00    +0.000 C 
ATOM     21  O   UNL     1      49.687   6.938  14.036  0.00  0.00    +0.000 OA
ATOM     22  H   UNL     1      46.869   7.342  15.398  0.00  0.00    +0.000 HD
BRANCH  20  23
ATOM     23  C   UNL     1      49.141   6.555  16.299  0.00  0.00    +0.000 A 
ATOM     24  C   UNL     1      49.875   7.366  17.154  0.00  0.00    +0.000 A 
ATOM     25  S   UNL     1      50.041   6.727  18.727  0.00  0.00    +0.000 S 
ATOM     26  C   UNL     1      49.189   5.316  18.303  0.00  0.00    +0.000 A 
ATOM     27  N   UNL     1      48.981   4.321  19.209  0.00  0.00    +0.000 NA
ATOM     28  C   UNL     1      48.351   3.296  18.740  0.00  0.00    +0.000 A 
ATOM     29  N   UNL     1      47.908   3.174  17.449  0.00  0.00    +0.000 N 
ATOM     30  C   UNL     1      48.075   4.160  16.507  0.00  0.00    +0.000 A 
ATOM     31  O   UNL     1      47.641   4.030  15.369  0.00  0.00    +0.000 OA
ATOM     32  C   UNL     1      48.778   5.336  16.983  0.00  0.00    +0.000 A 
ATOM     33  H   UNL     1      47.420   2.345  17.142  0.00  0.00    +0.000 HD
ENDBRANCH  20  23
ENDBRANCH  18  19
ENDBRANCH   4  18
TORSDOF 6
ENDMDL
MODEL 3
REMARK VINA RESULT:    -7.359      2.312      3.836
REMARK INTER + INTRA:         -11.082
REMARK INTER:                 -10.055
REMARK INTRA:                  -1.027
REMARK UNBOUND:                -1.141
REMARK  Name = 
REMARK  6 active torsions:
REMARK  status: ('A' for Active; 'I' for Inactive)
REMARK    1  A    between atoms: C_2  and  C_25
REMARK    2  A    between atoms: N_3  and  C_4
REMARK    3  A    between atoms: C_4  and  C_5
REMARK    4  A    between atoms: C_8  and  C_9
REMARK    5  A    between atoms: C_9  and  N_10
REMARK    6  A    between atoms: C_11  and  C_13
REMARK                            x       y       z     vdW  Elec       q    Type
REMARK                         _______ _______ _______ _____ _____    ______ ____
ROOT
ATOM      1  C   UNL     1      44.792   4.411  11.440  0.00  0.00    +0.000 A 
ATOM      2  C   UNL     1      45.317   3.269  12.061  0.00  0.00    +0.000 A 
ATOM      3  C   UNL     1      46.040   3.371  13.256  0.00  0.00    +0.000 A 
ATOM      4  C   UNL     1      46.234   4.616  13.869  0.00  0.00    +0.000 A 
ATOM      5  C   UNL     1      45.717   5.758  13.242  0.00  0.00    +0.000 A 
ATOM      6  C   UNL     1      44.992   5.656  12.050  0.00  0.00    +0.000 A 
ENDROOT
BRANCH   1   7
ATOM      7  C   UNL     1      44.005   4.295  10.158  0.00  0.00    +0.000 C 
BRANCH   7  10
ATOM      8  O   UNL     1      46.005   5.262   8.450  0.00  0.00    +0.000 OA
ATOM      9  C   UNL     1      45.687   4.077   8.381  0.00  0.00    +0.000 C 
ATOM     10  N   UNL     1      44.716   3.520   9.173  0.00  0.00    +0.000 N 
ATOM     11  H   UNL     1      44.604   2.518   9.183  0.00  0.00    +0.000 HD
BRANCH   9  12
ATOM     12  C   UNL     1      46.322   3.154   7.459  0.00  0.00    +0.000 A 
ATOM     13  C   UNL     1      46.775   3.322   6.159  0.00  0.00    +0.000 A 
ATOM     14  C   UNL     1      47.329   2.093   5.720  0.00  0.00    +0.000 A 
ATOM     15  C   UNL     1      47.209   1.200   6.757  0.00  0.00    +0.000 A 
ATOM     16  N   UNL     1      46.607   1.849   7.804  0.00  0.00    +0.000 N 
ATOM     17  H   UNL     1      46.395   1.446   8.710  0.00  0.00    +0.000 HD
ENDBRANCH   9  12
ENDBRANCH   7  10
ENDBRANCH   1   7
BRANCH   4  18
ATOM     18  C   UNL     1      47.022   4.740  15.151  0.00  0.00    +0.000 C 
BRANCH  18  19
ATOM     19  N   UNL     1      47.809   5.945  15.156  0.00  0.00    +0.000 N 
ATOM     20  C   UNL     1      48.943   6.073  15.917  0.00  0.00    +0.000 C 
ATOM     21  O   UNL     1      49.383   5.153  16.599  0.00  0.00    +0.000 OA
ATOM     22  H   UNL     1      47.345   6.784  14.826  0.00  0.00    +0.000 HD
BRANCH  20  23
ATOM     23  C   UNL     1      49.644   7.361  15.812  0.00  0.00    +0.000 A 
ATOM     24  C   UNL     1      49.958   8.080  16.959  0.00  0.00    +0.000 A 
ATOM     25  S   UNL     1      50.848   9.503  16.649  0.00  0.00    +0.000 S 
ATOM     26  C   UNL     1      50.791   9.240  14.969  0.00  0.00    +0.000 A 
ATOM     27  N   UNL     1      51.365  10.116  14.100  0.00  0.00    +0.000 NA
ATOM     28  C   UNL     1      51.215   9.808  12.855  0.00  0.00    +0.000 A 
ATOM     29  N   UNL     1      50.544   8.704  12.398  0.00  0.00    +0.000 N 
ATOM     30  C   UNL     1      49.970   7.780  13.237  0.00  0.00    +0.000 A 
ATOM     31  O   UNL     1      49.403   6.788  12.795  0.00  0.00    +0.000 OA
ATOM     32  C   UNL     1      50.110   8.079  14.649  0.00  0.00    +0.000 A 
ATOM     33  H   UNL     1      50.462   8.517  11.409  0.00  0.00    +0.000 HD
ENDBRANCH  20  23
ENDBRANCH  18  19
ENDBRANCH   4  18
TORSDOF 6
ENDMDL
MODEL 4
REMARK VINA RESULT:    -6.940      3.755      8.347
REMARK INTER + INTRA:         -10.515
REMARK INTER:                  -9.470
REMARK INTRA:                  -1.044
REMARK UNBOUND:                -1.141
REMARK  Name = 
REMARK  6 active torsions:
REMARK  status: ('A' for Active; 'I' for Inactive)
REMARK    1  A    between atoms: C_2  and  C_25
REMARK    2  A    between atoms: N_3  and  C_4
REMARK    3  A    between atoms: C_4  and  C_5
REMARK    4  A    between atoms: C_8  and  C_9
REMARK    5  A    between atoms: C_9  and  N_10
REMARK    6  A    between atoms: C_11  and  C_13
REMARK                            x       y       z     vdW  Elec       q    Type
REMARK                         _______ _______ _______ _____ _____    ______ ____
ROOT
ATOM      1  C   UNL     1      49.636   4.629  17.599  0.00  0.00    +0.000 A 
ATOM      2  C   UNL     1      50.441   5.700  17.187  0.00  0.00    +0.000 A 
ATOM      3  C   UNL     1      50.023   6.557  16.161  0.00  0.00    +0.000 A 
ATOM      4  C   UNL     1      48.780   6.376  15.541  0.00  0.00    +0.000 A 
ATOM      5  C   UNL     1      47.980   5.299  15.948  0.00  0.00    +0.000 A 
ATOM      6  C   UNL     1      48.396   4.444  16.975  0.00  0.00    +0.000 A 
ENDROOT
BRANCH   1   7
ATOM      7  C   UNL     1      50.086   3.715  18.712  0.00  0.00    +0.000 C 
BRANCH   7  10
ATOM      8  O   UNL     1      50.509   1.411  17.174  0.00  0.00    +0.000 OA
ATOM      9  C   UNL     1      51.480   1.992  17.652  0.00  0.00    +0.000 C 
ATOM     10  N   UNL     1      51.366   3.122  18.420  0.00  0.00    +0.000 N 
ATOM     11  H   UNL     1      52.197   3.643  18.656  0.00  0.00    +0.000 HD
BRANCH   9  12
ATOM     12  C   UNL     1      52.841   1.540  17.433  0.00  0.00    +0.000 A 
ATOM     13  C   UNL     1      54.051   2.215  17.478  0.00  0.00    +0.000 A 
ATOM     14  C   UNL     1      55.086   1.290  17.196  0.00  0.00    +0.000 A 
ATOM     15  C   UNL     1      54.494   0.068  16.988  0.00  0.00    +0.000 A 
ATOM     16  N   UNL     1      53.140   0.225  17.140  0.00  0.00    +0.000 N 
ATOM     17  H   UNL     1      52.445  -0.507  17.054  0.00  0.00    +0.000 HD
ENDBRANCH   9  12
ENDBRANCH   7  10
ENDBRANCH   1   7
BRANCH   4  18
ATOM     18  C   UNL     1      48.324   7.285  14.426  0.00  0.00    +0.000 C 
BRANCH  18  19
ATOM     19  N   UNL     1      47.080   6.828  13.864  0.00  0.00    +0.000 N 
ATOM     20  C   UNL     1      46.907   6.660  12.514  0.00  0.00    +0.000 C 
ATOM     21  O   UNL     1      47.815   6.839  11.708  0.00  0.00    +0.000 OA
ATOM     22  H   UNL     1      46.261   6.924  14.453  0.00  0.00    +0.000 HD
BRANCH  20  23
ATOM     23  C   UNL     1      45.583   6.180  12.092  0.00  0.00    +0.000 A 
ATOM     24  C   UNL     1      44.665   7.063  11.538  0.00  0.00    +0.000 A 
ATOM     25  S   UNL     1      43.219   6.313  11.026  0.00  0.00    +0.000 S 
ATOM     26  C   UNL     1      43.746   4.794  11.583  0.00  0.00    +0.000 A 
ATOM     27  N   UNL     1      42.959   3.690  11.463  0.00  0.00    +0.000 NA
ATOM     28  C   UNL     1      43.471   2.613  11.959  0.00  0.00    +0.000 A 
ATOM     29  N   UNL     1      44.699   2.538  12.563  0.00  0.00    +0.000 N 
ATOM     30  C   UNL     1      45.537   3.619  12.686  0.00  0.00    +0.000 A 
ATOM     31  O   UNL     1      46.642   3.510  13.205  0.00  0.00    +0.000 OA
ATOM     32  C   UNL     1      45.009   4.856  12.144  0.00  0.00    +0.000 A 
ATOM     33  H   UNL     1      45.045   1.664  12.931  0.00  0.00    +0.000 HD
ENDBRANCH  20  23
ENDBRANCH  18  19
ENDBRANCH   4  18
TORSDOF 6
ENDMDL
MODEL 5
REMARK VINA RESULT:    -6.772      2.645      3.749
REMARK INTER + INTRA:         -10.289
REMARK INTER:                  -9.321
REMARK INTRA:                  -0.968
REMARK UNBOUND:                -1.141
REMARK  Name = 
REMARK  6 active torsions:
REMARK  status: ('A' for Active; 'I' for Inactive)
REMARK    1  A    between atoms: C_2  and  C_25
REMARK    2  A    between atoms: N_3  and  C_4
REMARK    3  A    between atoms: C_4  and  C_5
REMARK    4  A    between atoms: C_8  and  C_9
REMARK    5  A    between atoms: C_9  and  N_10
REMARK    6  A    between atoms: C_11  and  C_13
REMARK                            x       y       z     vdW  Elec       q    Type
REMARK                         _______ _______ _______ _____ _____    ______ ____
ROOT
ATOM      1  C   UNL     1      45.706   4.978  11.847  0.00  0.00    +0.000 A 
ATOM      2  C   UNL     1      45.726   3.697  12.418  0.00  0.00    +0.000 A 
ATOM      3  C   UNL     1      46.364   3.469  13.644  0.00  0.00    +0.000 A 
ATOM      4  C   UNL     1      46.977   4.521  14.336  0.00  0.00    +0.000 A 
ATOM      5  C   UNL     1      46.965   5.799  13.760  0.00  0.00    +0.000 A 
ATOM      6  C   UNL     1      46.325   6.028  12.537  0.00  0.00    +0.000 A 
ENDROOT
BRANCH   1   7
ATOM      7  C   UNL     1      45.008   5.221  10.532  0.00  0.00    +0.000 C 
BRANCH   7  10
ATOM      8  O   UNL     1      44.195   2.828   9.320  0.00  0.00    +0.000 OA
ATOM      9  C   UNL     1      45.210   3.386   8.910  0.00  0.00    +0.000 C 
ATOM     10  N   UNL     1      45.683   4.556   9.447  0.00  0.00    +0.000 N 
ATOM     11  H   UNL     1      46.427   5.048   8.975  0.00  0.00    +0.000 HD
BRANCH   9  12
ATOM     12  C   UNL     1      45.994   2.861   7.808  0.00  0.00    +0.000 A 
ATOM     13  C   UNL     1      46.713   1.684   7.673  0.00  0.00    +0.000 A 
ATOM     14  C   UNL     1      47.287   1.661   6.377  0.00  0.00    +0.000 A 
ATOM     15  C   UNL     1      46.908   2.819   5.744  0.00  0.00    +0.000 A 
ATOM     16  N   UNL     1      46.122   3.535   6.611  0.00  0.00    +0.000 N 
ATOM     17  H   UNL     1      45.688   4.430   6.417  0.00  0.00    +0.000 HD
ENDBRANCH   9  12
ENDBRANCH   7  10
ENDBRANCH   1   7
BRANCH   4  18
ATOM     18  C   UNL     1      47.679   4.285  15.652  0.00  0.00    +0.000 C 
BRANCH  18  19
ATOM     19  N   UNL     1      47.525   5.417  16.528  0.00  0.00    +0.000 N 
ATOM     20  C   UNL     1      48.483   5.765  17.446  0.00  0.00    +0.000 C 
ATOM     21  O   UNL     1      49.549   5.166  17.542  0.00  0.00    +0.000 OA
ATOM     22  H   UNL     1      46.579   5.758  16.655  0.00  0.00    +0.000 HD
BRANCH  20  23
ATOM     23  C   UNL     1      48.185   6.949  18.265  0.00  0.00    +0.000 A 
ATOM     24  C   UNL     1      47.909   6.809  19.619  0.00  0.00    +0.000 A 
ATOM     25  S   UNL     1      47.677   8.295  20.425  0.00  0.00    +0.000 S 
ATOM     26  C   UNL     1      47.878   9.173  18.981  0.00  0.00    +0.000 A 
ATOM     27  N   UNL     1      47.785  10.531  18.965  0.00  0.00    +0.000 NA
ATOM     28  C   UNL     1      47.924  11.062  17.796  0.00  0.00    +0.000 A 
ATOM     29  N   UNL     1      48.150  10.360  16.641  0.00  0.00    +0.000 N 
ATOM     30  C   UNL     1      48.275   8.992  16.612  0.00  0.00    +0.000 A 
ATOM     31  O   UNL     1      48.506   8.398  15.566  0.00  0.00    +0.000 OA
ATOM     32  C   UNL     1      48.126   8.345  17.902  0.00  0.00    +0.000 A 
ATOM     33  H   UNL     1      48.252  10.834  15.755  0.00  0.00    +0.000 HD
ENDBRANCH  20  23
ENDBRANCH  18  19
ENDBRANCH   4  18
TORSDOF 6
ENDMDL
MODEL 6
REMARK VINA RESULT:    -6.767      1.976      2.593
REMARK INTER + INTRA:         -10.281
REMARK INTER:                  -9.533
REMARK INTRA:                  -0.748
REMARK UNBOUND:                -1.141
REMARK  Name = 
REMARK  6 active torsions:
REMARK  status: ('A' for Active; 'I' for Inactive)
REMARK    1  A    between atoms: C_2  and  C_25
REMARK    2  A    between atoms: N_3  and  C_4
REMARK    3  A    between atoms: C_4  and  C_5
REMARK    4  A    between atoms: C_8  and  C_9
REMARK    5  A    between atoms: C_9  and  N_10
REMARK    6  A    between atoms: C_11  and  C_13
REMARK                            x       y       z     vdW  Elec       q    Type
REMARK                         _______ _______ _______ _____ _____    ______ ____
ROOT
ATOM      1  C   UNL     1      45.251   5.805  11.376  0.00  0.00    +0.000 A 
ATOM      2  C   UNL     1      46.046   5.106  12.295  0.00  0.00    +0.000 A 
ATOM      3  C   UNL     1      46.869   5.791  13.198  0.00  0.00    +0.000 A 
ATOM      4  C   UNL     1      46.896   7.192  13.217  0.00  0.00    +0.000 A 
ATOM      5  C   UNL     1      46.109   7.890  12.291  0.00  0.00    +0.000 A 
ATOM      6  C   UNL     1      45.284   7.205  11.391  0.00  0.00    +0.000 A 
ENDROOT
BRANCH   1   7
ATOM      7  C   UNL     1      44.358   5.063  10.413  0.00  0.00    +0.000 C 
BRANCH   7  10
ATOM      8  O   UNL     1      44.376   2.348   9.718  0.00  0.00    +0.000 OA
ATOM      9  C   UNL     1      45.062   3.133   9.066  0.00  0.00    +0.000 C 
ATOM     10  N   UNL     1      45.117   4.475   9.339  0.00  0.00    +0.000 N 
ATOM     11  H   UNL     1      45.571   5.092   8.682  0.00  0.00    +0.000 HD
BRANCH   9  12
ATOM     12  C   UNL     1      45.867   2.707   7.937  0.00  0.00    +0.000 A 
ATOM     13  C   UNL     1      46.167   3.332   6.737  0.00  0.00    +0.000 A 
ATOM     14  C   UNL     1      47.013   2.475   5.989  0.00  0.00    +0.000 A 
ATOM     15  C   UNL     1      47.218   1.346   6.745  0.00  0.00    +0.000 A 
ATOM     16  N   UNL     1      46.530   1.497   7.921  0.00  0.00    +0.000 N 
ATOM     17  H   UNL     1      46.501   0.827   8.681  0.00  0.00    +0.000 HD
ENDBRANCH   9  12
ENDBRANCH   7  10
ENDBRANCH   1   7
BRANCH   4  18
ATOM     18  C   UNL     1      47.788   7.942  14.177  0.00  0.00    +0.000 C 
BRANCH  18  19
ATOM     19  N   UNL     1      48.295   7.065  15.200  0.00  0.00    +0.000 N 
ATOM     20  C   UNL     1      48.999   7.533  16.280  0.00  0.00    +0.000 C 
ATOM     21  O   UNL     1      49.196   8.730  16.467  0.00  0.00    +0.000 OA
ATOM     22  H   UNL     1      48.380   6.087  14.949  0.00  0.00    +0.000 HD
BRANCH  20  23
ATOM     23  C   UNL     1      49.446   6.517  17.244  0.00  0.00    +0.000 A 
ATOM     24  C   UNL     1      48.564   6.020  18.194  0.00  0.00    +0.000 A 
ATOM     25  S   UNL     1      49.231   4.786  19.166  0.00  0.00    +0.000 S 
ATOM     26  C   UNL     1      50.741   4.917  18.392  0.00  0.00    +0.000 A 
ATOM     27  N   UNL     1      51.791   4.134  18.762  0.00  0.00    +0.000 NA
ATOM     28  C   UNL     1      52.884   4.365  18.114  0.00  0.00    +0.000 A 
ATOM     29  N   UNL     1      53.023   5.306  17.126  0.00  0.00    +0.000 N 
ATOM     30  C   UNL     1      51.986   6.101  16.703  0.00  0.00    +0.000 A 
ATOM     31  O   UNL     1      52.137   6.912  15.797  0.00  0.00    +0.000 OA
ATOM     32  C   UNL     1      50.733   5.882  17.401  0.00  0.00    +0.000 A 
ATOM     33  H   UNL     1      53.905   5.438  16.654  0.00  0.00    +0.000 HD
ENDBRANCH  20  23
ENDBRANCH  18  19
ENDBRANCH   4  18
TORSDOF 6
ENDMDL
MODEL 7
REMARK VINA RESULT:    -6.673      3.210      8.628
REMARK INTER + INTRA:         -10.155
REMARK INTER:                  -9.280
REMARK INTRA:                  -0.875
REMARK UNBOUND:                -1.141
REMARK  Name = 
REMARK  6 active torsions:
REMARK  status: ('A' for Active; 'I' for Inactive)
REMARK    1  A    between atoms: C_2  and  C_25
REMARK    2  A    between atoms: N_3  and  C_4
REMARK    3  A    between atoms: C_4  and  C_5
REMARK    4  A    between atoms: C_8  and  C_9
REMARK    5  A    between atoms: C_9  and  N_10
REMARK    6  A    between atoms: C_11  and  C_13
REMARK                            x       y       z     vdW  Elec       q    Type
REMARK                         _______ _______ _______ _____ _____    ______ ____
ROOT
ATOM      1  C   UNL     1      50.312   7.052  15.653  0.00  0.00    +0.000 A 
ATOM      2  C   UNL     1      50.783   7.749  14.531  0.00  0.00    +0.000 A 
ATOM      3  C   UNL     1      49.964   7.940  13.411  0.00  0.00    +0.000 A 
ATOM      4  C   UNL     1      48.648   7.460  13.399  0.00  0.00    +0.000 A 
ATOM      5  C   UNL     1      48.182   6.755  14.517  0.00  0.00    +0.000 A 
ATOM      6  C   UNL     1      48.999   6.566  15.637  0.00  0.00    +0.000 A 
ENDROOT
BRANCH   1   7
ATOM      7  C   UNL     1      51.195   6.858  16.862  0.00  0.00    +0.000 C 
BRANCH   7  10
ATOM      8  O   UNL     1      50.079   4.922  18.554  0.00  0.00    +0.000 OA
ATOM      9  C   UNL     1      51.023   4.608  17.832  0.00  0.00    +0.000 C 
ATOM     10  N   UNL     1      51.632   5.490  16.978  0.00  0.00    +0.000 N 
ATOM     11  H   UNL     1      52.295   5.142  16.301  0.00  0.00    +0.000 HD
BRANCH   9  12
ATOM     12  C   UNL     1      51.569   3.263  17.809  0.00  0.00    +0.000 A 
ATOM     13  C   UNL     1      51.037   2.064  17.364  0.00  0.00    +0.000 A 
ATOM     14  C   UNL     1      52.004   1.047  17.565  0.00  0.00    +0.000 A 
ATOM     15  C   UNL     1      53.109   1.642  18.124  0.00  0.00    +0.000 A 
ATOM     16  N   UNL     1      52.842   2.980  18.262  0.00  0.00    +0.000 N 
ATOM     17  H   UNL     1      53.476   3.676  18.638  0.00  0.00    +0.000 HD
ENDBRANCH   9  12
ENDBRANCH   7  10
ENDBRANCH   1   7
BRANCH   4  18
ATOM     18  C   UNL     1      47.760   7.649  12.193  0.00  0.00    +0.000 C 
BRANCH  18  19
ATOM     19  N   UNL     1      47.001   6.456  11.920  0.00  0.00    +0.000 N 
ATOM     20  C   UNL     1      45.638   6.478  11.764  0.00  0.00    +0.000 C 
ATOM     21  O   UNL     1      44.990   7.519  11.795  0.00  0.00    +0.000 OA
ATOM     22  H   UNL     1      47.453   5.578  12.146  0.00  0.00    +0.000 HD
BRANCH  20  23
ATOM     23  C   UNL     1      45.005   5.181  11.484  0.00  0.00    +0.000 A 
ATOM     24  C   UNL     1      44.273   4.534  12.471  0.00  0.00    +0.000 A 
ATOM     25  S   UNL     1      43.538   3.089  11.939  0.00  0.00    +0.000 S 
ATOM     26  C   UNL     1      44.222   3.246  10.389  0.00  0.00    +0.000 A 
ATOM     27  N   UNL     1      43.998   2.313   9.423  0.00  0.00    +0.000 NA
ATOM     28  C   UNL     1      44.607   2.543   8.308  0.00  0.00    +0.000 A 
ATOM     29  N   UNL     1      45.419   3.621   8.068  0.00  0.00    +0.000 N 
ATOM     30  C   UNL     1      45.655   4.599   9.003  0.00  0.00    +0.000 A 
ATOM     31  O   UNL     1      46.363   5.565   8.746  0.00  0.00    +0.000 OA
ATOM     32  C   UNL     1      44.993   4.388  10.277  0.00  0.00    +0.000 A 
ATOM     33  H   UNL     1      45.867   3.746   7.172  0.00  0.00    +0.000 HD
ENDBRANCH  20  23
ENDBRANCH  18  19
ENDBRANCH   4  18
TORSDOF 6
ENDMDL
MODEL 8
REMARK VINA RESULT:    -6.661      2.339      3.184
REMARK INTER + INTRA:         -10.139
REMARK INTER:                  -9.320
REMARK INTRA:                  -0.819
REMARK UNBOUND:                -1.141
REMARK  Name = 
REMARK  6 active torsions:
REMARK  status: ('A' for Active; 'I' for Inactive)
REMARK    1  A    between atoms: C_2  and  C_25
REMARK    2  A    between atoms: N_3  and  C_4
REMARK    3  A    between atoms: C_4  and  C_5
REMARK    4  A    between atoms: C_8  and  C_9
REMARK    5  A    between atoms: C_9  and  N_10
REMARK    6  A    between atoms: C_11  and  C_13
REMARK                            x       y       z     vdW  Elec       q    Type
REMARK                         _______ _______ _______ _____ _____    ______ ____
ROOT
ATOM      1  C   UNL     1      44.724   3.622  11.808  0.00  0.00    +0.000 A 
ATOM      2  C   UNL     1      45.854   3.101  12.455  0.00  0.00    +0.000 A 
ATOM      3  C   UNL     1      46.538   3.852  13.420  0.00  0.00    +0.000 A 
ATOM      4  C   UNL     1      46.091   5.131  13.777  0.00  0.00    +0.000 A 
ATOM      5  C   UNL     1      44.968   5.655  13.123  0.00  0.00    +0.000 A 
ATOM      6  C   UNL     1      44.283   4.904  12.161  0.00  0.00    +0.000 A 
ENDROOT
BRANCH   1   7
ATOM      7  C   UNL     1      43.985   2.806  10.777  0.00  0.00    +0.000 C 
BRANCH   7  10
ATOM      8  O   UNL     1      44.766   4.398   8.607  0.00  0.00    +0.000 OA
ATOM      9  C   UNL     1      45.192   3.248   8.683  0.00  0.00    +0.000 C 
ATOM     10  N   UNL     1      44.858   2.398   9.706  0.00  0.00    +0.000 N 
ATOM     11  H   UNL     1      45.354   1.524   9.802  0.00  0.00    +0.000 HD
BRANCH   9  12
ATOM     12  C   UNL     1      46.100   2.688   7.699  0.00  0.00    +0.000 A 
ATOM     13  C   UNL     1      46.799   1.492   7.672  0.00  0.00    +0.000 A 
ATOM     14  C   UNL     1      47.538   1.437   6.463  0.00  0.00    +0.000 A 
ATOM     15  C   UNL     1      47.275   2.596   5.774  0.00  0.00    +0.000 A 
ATOM     16  N   UNL     1      46.402   3.342   6.522  0.00  0.00    +0.000 N 
ATOM     17  H   UNL     1      46.020   4.245   6.264  0.00  0.00    +0.000 HD
ENDBRANCH   9  12
ENDBRANCH   7  10
ENDBRANCH   1   7
BRANCH   4  18
ATOM     18  C   UNL     1      46.827   5.954  14.807  0.00  0.00    +0.000 C 
BRANCH  18  19
ATOM     19  N   UNL     1      47.940   5.222  15.352  0.00  0.00    +0.000 N 
ATOM     20  C   UNL     1      47.838   4.495  16.511  0.00  0.00    +0.000 C 
ATOM     21  O   UNL     1      46.782   4.383  17.125  0.00  0.00    +0.000 OA
ATOM     22  H   UNL     1      48.859   5.500  15.029  0.00  0.00    +0.000 HD
BRANCH  20  23
ATOM     23  C   UNL     1      49.059   3.797  16.939  0.00  0.00    +0.000 A 
ATOM     24  C   UNL     1      49.136   2.412  16.856  0.00  0.00    +0.000 A 
ATOM     25  S   UNL     1      50.657   1.785  17.311  0.00  0.00    +0.000 S 
ATOM     26  C   UNL     1      51.244   3.336  17.693  0.00  0.00    +0.000 A 
ATOM     27  N   UNL     1      52.508   3.513  18.165  0.00  0.00    +0.000 NA
ATOM     28  C   UNL     1      52.807   4.738  18.446  0.00  0.00    +0.000 A 
ATOM     29  N   UNL     1      51.958   5.804  18.294  0.00  0.00    +0.000 N 
ATOM     30  C   UNL     1      50.683   5.677  17.800  0.00  0.00    +0.000 A 
ATOM     31  O   UNL     1      49.961   6.655  17.650  0.00  0.00    +0.000 OA
ATOM     32  C   UNL     1      50.297   4.318  17.469  0.00  0.00    +0.000 A 
ATOM     33  H   UNL     1      52.252   6.740  18.530  0.00  0.00    +0.000 HD
ENDBRANCH  20  23
ENDBRANCH  18  19
ENDBRANCH   4  18
TORSDOF 6
ENDMDL
MODEL 9
REMARK VINA RESULT:    -6.527      3.018      4.242
REMARK INTER + INTRA:          -9.957
REMARK INTER:                  -9.083
REMARK INTRA:                  -0.874
REMARK UNBOUND:                -1.141
REMARK  Name = 
REMARK  6 active torsions:
REMARK  status: ('A' for Active; 'I' for Inactive)
REMARK    1  A    between atoms: C_2  and  C_25
REMARK    2  A    between atoms: N_3  and  C_4
REMARK    3  A    between atoms: C_4  and  C_5
REMARK    4  A    between atoms: C_8  and  C_9
REMARK    5  A    between atoms: C_9  and  N_10
REMARK    6  A    between atoms: C_11  and  C_13
REMARK                            x       y       z     vdW  Elec       q    Type
REMARK                         _______ _______ _______ _____ _____    ______ ____
ROOT
ATOM      1  C   UNL     1      44.926   4.634  11.414  0.00  0.00    +0.000 A 
ATOM      2  C   UNL     1      45.494   3.690  12.282  0.00  0.00    +0.000 A 
ATOM      3  C   UNL     1      46.328   4.093  13.333  0.00  0.00    +0.000 A 
ATOM      4  C   UNL     1      46.594   5.451  13.552  0.00  0.00    +0.000 A 
ATOM      5  C   UNL     1      46.034   6.393  12.678  0.00  0.00    +0.000 A 
ATOM      6  C   UNL     1      45.198   5.990  11.630  0.00  0.00    +0.000 A 
ENDROOT
BRANCH   1   7
ATOM      7  C   UNL     1      44.019   4.196  10.291  0.00  0.00    +0.000 C 
BRANCH   7  10
ATOM      8  O   UNL     1      45.815   5.187   8.380  0.00  0.00    +0.000 OA
ATOM      9  C   UNL     1      45.597   3.978   8.421  0.00  0.00    +0.000 C 
ATOM     10  N   UNL     1      44.732   3.407   9.318  0.00  0.00    +0.000 N 
ATOM     11  H   UNL     1      44.709   2.403   9.409  0.00  0.00    +0.000 HD
BRANCH   9  12
ATOM     12  C   UNL     1      46.252   3.041   7.526  0.00  0.00    +0.000 A 
ATOM     13  C   UNL     1      46.701   3.179   6.222  0.00  0.00    +0.000 A 
ATOM     14  C   UNL     1      47.280   1.949   5.820  0.00  0.00    +0.000 A 
ATOM     15  C   UNL     1      47.178   1.085   6.883  0.00  0.00    +0.000 A 
ATOM     16  N   UNL     1      46.563   1.753   7.911  0.00  0.00    +0.000 N 
ATOM     17  H   UNL     1      46.359   1.373   8.828  0.00  0.00    +0.000 HD
ENDBRANCH   9  12
ENDBRANCH   7  10
ENDBRANCH   1   7
BRANCH   4  18
ATOM     18  C   UNL     1      47.502   5.896  14.673  0.00  0.00    +0.000 C 
BRANCH  18  19
ATOM     19  N   UNL     1      48.641   6.612  14.160  0.00  0.00    +0.000 N 
ATOM     20  C   UNL     1      48.755   7.974  14.266  0.00  0.00    +0.000 C 
ATOM     21  O   UNL     1      47.921   8.660  14.848  0.00  0.00    +0.000 OA
ATOM     22  H   UNL     1      49.196   6.128  13.464  0.00  0.00    +0.000 HD
BRANCH  20  23
ATOM     23  C   UNL     1      49.978   8.561  13.699  0.00  0.00    +0.000 A 
ATOM     24  C   UNL     1      49.902   9.401  12.595  0.00  0.00    +0.000 A 
ATOM     25  S   UNL     1      51.408  10.058  12.133  0.00  0.00    +0.000 S 
ATOM     26  C   UNL     1      52.222   9.195  13.354  0.00  0.00    +0.000 A 
ATOM     27  N   UNL     1      53.570   9.296  13.507  0.00  0.00    +0.000 NA
ATOM     28  C   UNL     1      54.057   8.560  14.450  0.00  0.00    +0.000 A 
ATOM     29  N   UNL     1      53.319   7.733  15.256  0.00  0.00    +0.000 N 
ATOM     30  C   UNL     1      51.954   7.616  15.154  0.00  0.00    +0.000 A 
ATOM     31  O   UNL     1      51.321   6.890  15.910  0.00  0.00    +0.000 OA
ATOM     32  C   UNL     1      51.356   8.424  14.107  0.00  0.00    +0.000 A 
ATOM     33  H   UNL     1      53.759   7.182  15.979  0.00  0.00    +0.000 HD
ENDBRANCH  20  23
ENDBRANCH  18  19
ENDBRANCH   4  18
TORSDOF 6
ENDMDL
