MODEL 1
REMARK VINA RESULT:    -8.533      0.000      0.000
REMARK INTER + INTRA:         -12.539
REMARK INTER:                 -11.526
REMARK INTRA:                  -1.013
REMARK UNBOUND:                -1.013
REMARK  Name = 
REMARK  6 active torsions:
REMARK  status: ('A' for Active; 'I' for Inactive)
REMARK    1  A    between atoms: C_2  and  C_25
REMARK    2  A    between atoms: N_3  and  C_4
REMARK    3  A    between atoms: C_4  and  C_5
REMARK    4  A    between atoms: C_8  and  C_9
REMARK    5  A    between atoms: C_9  and  N_10
REMARK    6  A    between atoms: C_11  and  C_13
REMARK                            x       y       z     vdW  Elec       q    Type
REMARK                         _______ _______ _______ _____ _____    ______ ____
ROOT
ATOM      1  C   UNL     1      44.954   6.234  11.240  0.00  0.00    +0.000 A 
ATOM      2  C   UNL     1      44.535   7.495  11.662  0.00  0.00    +0.000 A 
ATOM      3  C   UNL     1      45.354   8.231  12.518  0.00  0.00    +0.000 A 
ATOM      4  C   UNL     1      46.586   7.708  12.919  0.00  0.00    +0.000 A 
ATOM      5  C   UNL     1      46.918   6.441  12.452  0.00  0.00    +0.000 A 
ATOM      6  N   UNL     1      46.142   5.701  11.626  0.00  0.00    +0.000 NA
ENDROOT
BRANCH   1   7
ATOM      7  C   UNL     1      44.084   5.405  10.322  0.00  0.00    +0.000 C 
BRANCH   7  10
ATOM      8  O   UNL     1      44.335   2.581  10.202  0.00  0.00    +0.000 OA
ATOM      9  C   UNL     1      44.902   3.276   9.364  0.00  0.00    +0.000 C 
ATOM     10  N   UNL     1      44.846   4.651   9.353  0.00  0.00    +0.000 N 
ATOM     11  H   UNL     1      45.263   5.129   8.559  0.00  0.00    +0.000 HD
BRANCH   9  12
ATOM     12  C   UNL     1      45.723   2.663   8.269  0.00  0.00    +0.000 A 
ATOM     13  C   UNL     1      46.010   3.411   7.131  0.00  0.00    +0.000 A 
ATOM     14  C   UNL     1      46.752   2.815   6.119  0.00  0.00    +0.000 A 
ATOM     15  C   UNL     1      47.179   1.499   6.273  0.00  0.00    +0.000 A 
ATOM     16  C   UNL     1      46.846   0.828   7.442  0.00  0.00    +0.000 A 
ATOM     17  N   UNL     1      46.132   1.375   8.450  0.00  0.00    +0.000 NA
ENDBRANCH   9  12
ENDBRANCH   7  10
ENDBRANCH   1   7
BRANCH   4  18
ATOM     18  C   UNL     1      47.499   8.452  13.848  0.00  0.00    +0.000 C 
BRANCH  18  19
ATOM     19  N   UNL     1      47.851   7.647  14.991  0.00  0.00    +0.000 N 
ATOM     20  C   UNL     1      49.074   7.034  15.089  0.00  0.00    +0.000 C 
ATOM     21  O   UNL     1      49.946   7.185  14.238  0.00  0.00    +0.000 OA
ATOM     22  H   UNL     1      47.090   7.330  15.584  0.00  0.00    +0.000 HD
BRANCH  20  23
ATOM     23  C   UNL     1      49.308   6.231  16.297  0.00  0.00    +0.000 A 
ATOM     24  C   UNL     1      50.342   6.570  17.160  0.00  0.00    +0.000 A 
ATOM     25  S   UNL     1      50.438   5.572  18.539  0.00  0.00    +0.000 S 
ATOM     26  C   UNL     1      49.132   4.619  18.009  0.00  0.00    +0.000 A 
ATOM     27  N   UNL     1      48.702   3.554  18.737  0.00  0.00    +0.000 NA
ATOM     28  C   UNL     1      47.725   2.901  18.201  0.00  0.00    +0.000 A 
ATOM     29  N   UNL     1      47.137   3.219  17.005  0.00  0.00    +0.000 N 
ATOM     30  C   UNL     1      47.520   4.301  16.249  0.00  0.00    +0.000 A 
ATOM     31  O   UNL     1      46.946   4.584  15.202  0.00  0.00    +0.000 OA
ATOM     32  C   UNL     1      48.621   5.065  16.803  0.00  0.00    +0.000 A 
ATOM     33  H   UNL     1      46.370   2.670  16.642  0.00  0.00    +0.000 HD
ENDBRANCH  20  23
ENDBRANCH  18  19
ENDBRANCH   4  18
TORSDOF 6
ENDMDL
MODEL 2
REMARK VINA RESULT:    -7.928      1.805      2.244
REMARK INTER + INTRA:         -11.721
REMARK INTER:                 -10.844
REMARK INTRA:                  -0.877
REMARK UNBOUND:                -1.013
REMARK  Name = 
REMARK  6 active torsions:
REMARK  status: ('A' for Active; 'I' for Inactive)
REMARK    1  A    between atoms: C_2  and  C_25
REMARK    2  A    between atoms: N_3  and  C_4
REMARK    3  A    between atoms: C_4  and  C_5
REMARK    4  A    between atoms: C_8  and  C_9
REMARK    5  A    between atoms: C_9  and  N_10
REMARK    6  A    between atoms: C_11  and  C_13
REMARK                            x       y       z     vdW  Elec       q    Type
REMARK                         _______ _______ _______ _____ _____    ______ ____
ROOT
ATOM      1  C   UNL     1      44.859   5.061  11.911  0.00  0.00    +0.000 A 
ATOM      2  C   UNL     1      45.939   5.048  12.793  0.00  0.00    +0.000 A 
ATOM      3  C   UNL     1      46.494   6.260  13.202  0.00  0.00    +0.000 A 
ATOM      4  C   UNL     1      45.950   7.463  12.746  0.00  0.00    +0.000 A 
ATOM      5  C   UNL     1      44.876   7.377  11.866  0.00  0.00    +0.000 A 
ATOM      6  N   UNL     1      44.319   6.217  11.445  0.00  0.00    +0.000 NA
ENDROOT
BRANCH   1   7
ATOM      7  C   UNL     1      44.241   3.764  11.439  0.00  0.00    +0.000 C 
BRANCH   7  10
ATOM      8  O   UNL     1      44.130   4.344   8.663  0.00  0.00    +0.000 OA
ATOM      9  C   UNL     1      44.896   3.477   9.071  0.00  0.00    +0.000 C 
ATOM     10  N   UNL     1      45.006   3.121  10.395  0.00  0.00    +0.000 N 
ATOM     11  H   UNL     1      45.742   2.466  10.644  0.00  0.00    +0.000 HD
BRANCH   9  12
ATOM     12  C   UNL     1      45.785   2.716   8.132  0.00  0.00    +0.000 A 
ATOM     13  C   UNL     1      46.252   3.338   6.979  0.00  0.00    +0.000 A 
ATOM     14  C   UNL     1      47.054   2.607   6.112  0.00  0.00    +0.000 A 
ATOM     15  C   UNL     1      47.360   1.284   6.422  0.00  0.00    +0.000 A 
ATOM     16  C   UNL     1      46.851   0.744   7.594  0.00  0.00    +0.000 A 
ATOM     17  N   UNL     1      46.072   1.425   8.464  0.00  0.00    +0.000 NA
ENDBRANCH   9  12
ENDBRANCH   7  10
ENDBRANCH   1   7
BRANCH   4  18
ATOM     18  C   UNL     1      46.516   8.793  13.145  0.00  0.00    +0.000 C 
BRANCH  18  19
ATOM     19  N   UNL     1      46.994   8.773  14.505  0.00  0.00    +0.000 N 
ATOM     20  C   UNL     1      48.329   8.664  14.795  0.00  0.00    +0.000 C 
ATOM     21  O   UNL     1      49.185   8.634  13.914  0.00  0.00    +0.000 OA
ATOM     22  H   UNL     1      46.312   8.573  15.230  0.00  0.00    +0.000 HD
BRANCH  20  23
ATOM     23  C   UNL     1      48.689   8.642  16.219  0.00  0.00    +0.000 A 
ATOM     24  C   UNL     1      48.845   9.837  16.909  0.00  0.00    +0.000 A 
ATOM     25  S   UNL     1      49.206   9.631  18.563  0.00  0.00    +0.000 S 
ATOM     26  C   UNL     1      49.216   7.937  18.407  0.00  0.00    +0.000 A 
ATOM     27  N   UNL     1      49.485   7.137  19.474  0.00  0.00    +0.000 NA
ATOM     28  C   UNL     1      49.492   5.873  19.205  0.00  0.00    +0.000 A 
ATOM     29  N   UNL     1      49.250   5.338  17.967  0.00  0.00    +0.000 N 
ATOM     30  C   UNL     1      48.947   6.104  16.868  0.00  0.00    +0.000 A 
ATOM     31  O   UNL     1      48.694   5.593  15.782  0.00  0.00    +0.000 OA
ATOM     32  C   UNL     1      48.935   7.534  17.113  0.00  0.00    +0.000 A 
ATOM     33  H   UNL     1      49.264   4.338  17.824  0.00  0.00    +0.000 HD
ENDBRANCH  20  23
ENDBRANCH  18  19
ENDBRANCH   4  18
TORSDOF 6
ENDMDL
MODEL 3
REMARK VINA RESULT:    -7.271      3.200      8.590
REMARK INTER + INTRA:         -10.834
REMARK INTER:                  -9.906
REMARK INTRA:                  -0.928
REMARK UNBOUND:                -1.013
REMARK  Name = 
REMARK  6 active torsions:
REMARK  status: ('A' for Active; 'I' for Inactive)
REMARK    1  A    between atoms: C_2  and  C_25
REMARK    2  A    between atoms: N_3  and  C_4
REMARK    3  A    between atoms: C_4  and  C_5
REMARK    4  A    between atoms: C_8  and  C_9
REMARK    5  A    between atoms: C_9  and  N_10
REMARK    6  A    between atoms: C_11  and  C_13
REMARK                            x       y       z     vdW  Elec       q    Type
REMARK                         _______ _______ _______ _____ _____    ______ ____
ROOT
ATOM      1  C   UNL     1      50.087   7.460  15.232  0.00  0.00    +0.000 A 
ATOM      2  C   UNL     1      50.221   8.571  14.400  0.00  0.00    +0.000 A 
ATOM      3  C   UNL     1      49.357   8.713  13.315  0.00  0.00    +0.000 A 
ATOM      4  C   UNL     1      48.360   7.760  13.092  0.00  0.00    +0.000 A 
ATOM      5  C   UNL     1      48.306   6.684  13.971  0.00  0.00    +0.000 A 
ATOM      6  N   UNL     1      49.133   6.515  15.029  0.00  0.00    +0.000 NA
ENDROOT
BRANCH   1   7
ATOM      7  C   UNL     1      51.015   7.270  16.411  0.00  0.00    +0.000 C 
BRANCH   7  10
ATOM      8  O   UNL     1      50.167   5.591  18.535  0.00  0.00    +0.000 OA
ATOM      9  C   UNL     1      50.918   5.145  17.674  0.00  0.00    +0.000 C 
ATOM     10  N   UNL     1      51.390   5.889  16.617  0.00  0.00    +0.000 N 
ATOM     11  H   UNL     1      51.923   5.402  15.903  0.00  0.00    +0.000 HD
BRANCH   9  12
ATOM     12  C   UNL     1      51.397   3.724  17.715  0.00  0.00    +0.000 A 
ATOM     13  C   UNL     1      52.638   3.437  18.275  0.00  0.00    +0.000 A 
ATOM     14  C   UNL     1      53.071   2.117  18.280  0.00  0.00    +0.000 A 
ATOM     15  C   UNL     1      52.257   1.133  17.727  0.00  0.00    +0.000 A 
ATOM     16  C   UNL     1      51.034   1.509  17.189  0.00  0.00    +0.000 A 
ATOM     17  N   UNL     1      50.577   2.781  17.171  0.00  0.00    +0.000 NA
ENDBRANCH   9  12
ENDBRANCH   7  10
ENDBRANCH   1   7
BRANCH   4  18
ATOM     18  C   UNL     1      47.413   7.858  11.933  0.00  0.00    +0.000 C 
BRANCH  18  19
ATOM     19  N   UNL     1      46.748   6.602  11.692  0.00  0.00    +0.000 N 
ATOM     20  C   UNL     1      45.382   6.516  11.609  0.00  0.00    +0.000 C 
ATOM     21  O   UNL     1      44.664   7.510  11.679  0.00  0.00    +0.000 OA
ATOM     22  H   UNL     1      47.287   5.756  11.852  0.00  0.00    +0.000 HD
BRANCH  20  23
ATOM     23  C   UNL     1      44.823   5.178  11.373  0.00  0.00    +0.000 A 
ATOM     24  C   UNL     1      44.082   4.556  12.369  0.00  0.00    +0.000 A 
ATOM     25  S   UNL     1      43.460   3.036  11.911  0.00  0.00    +0.000 S 
ATOM     26  C   UNL     1      44.202   3.130  10.383  0.00  0.00    +0.000 A 
ATOM     27  N   UNL     1      44.080   2.119   9.482  0.00  0.00    +0.000 NA
ATOM     28  C   UNL     1      44.721   2.309   8.376  0.00  0.00    +0.000 A 
ATOM     29  N   UNL     1      45.468   3.421   8.089  0.00  0.00    +0.000 N 
ATOM     30  C   UNL     1      45.596   4.479   8.957  0.00  0.00    +0.000 A 
ATOM     31  O   UNL     1      46.239   5.479   8.654  0.00  0.00    +0.000 OA
ATOM     32  C   UNL     1      44.902   4.312  10.219  0.00  0.00    +0.000 A 
ATOM     33  H   UNL     1      45.941   3.512   7.201  0.00  0.00    +0.000 HD
ENDBRANCH  20  23
ENDBRANCH  18  19
ENDBRANCH   4  18
TORSDOF 6
ENDMDL
MODEL 4
REMARK VINA RESULT:    -7.120      3.907      5.222
REMARK INTER + INTRA:         -10.630
REMARK INTER:                  -9.918
REMARK INTRA:                  -0.713
REMARK UNBOUND:                -1.013
REMARK  Name = 
REMARK  6 active torsions:
REMARK  status: ('A' for Active; 'I' for Inactive)
REMARK    1  A    between atoms: C_2  and  C_25
REMARK    2  A    between atoms: N_3  and  C_4
REMARK    3  A    between atoms: C_4  and  C_5
REMARK    4  A    between atoms: C_8  and  C_9
REMARK    5  A    between atoms: C_9  and  N_10
REMARK    6  A    between atoms: C_11  and  C_13
REMARK                            x       y       z     vdW  Elec       q    Type
REMARK                         _______ _______ _______ _____ _____    ______ ____
ROOT
ATOM      1  C   UNL     1      44.567   4.796  11.871  0.00  0.00    +0.000 A 
ATOM      2  C   UNL     1      45.604   4.817  12.802  0.00  0.00    +0.000 A 
ATOM      3  C   UNL     1      46.099   6.046  13.239  0.00  0.00    +0.000 A 
ATOM      4  C   UNL     1      45.537   7.231  12.759  0.00  0.00    +0.000 A 
ATOM      5  C   UNL     1      44.509   7.112  11.830  0.00  0.00    +0.000 A 
ATOM      6  N   UNL     1      44.011   5.935  11.382  0.00  0.00    +0.000 NA
ENDROOT
BRANCH   1   7
ATOM      7  C   UNL     1      44.015   3.482  11.368  0.00  0.00    +0.000 C 
BRANCH   7  10
ATOM      8  O   UNL     1      44.189   4.246   8.641  0.00  0.00    +0.000 OA
ATOM      9  C   UNL     1      44.875   3.317   9.054  0.00  0.00    +0.000 C 
ATOM     10  N   UNL     1      44.846   2.871  10.356  0.00  0.00    +0.000 N 
ATOM     11  H   UNL     1      45.525   2.165  10.623  0.00  0.00    +0.000 HD
BRANCH   9  12
ATOM     12  C   UNL     1      45.813   2.576   8.149  0.00  0.00    +0.000 A 
ATOM     13  C   UNL     1      46.383   3.238   7.066  0.00  0.00    +0.000 A 
ATOM     14  C   UNL     1      47.230   2.525   6.228  0.00  0.00    +0.000 A 
ATOM     15  C   UNL     1      47.478   1.181   6.494  0.00  0.00    +0.000 A 
ATOM     16  C   UNL     1      46.867   0.602   7.596  0.00  0.00    +0.000 A 
ATOM     17  N   UNL     1      46.042   1.263   8.438  0.00  0.00    +0.000 NA
ENDBRANCH   9  12
ENDBRANCH   7  10
ENDBRANCH   1   7
BRANCH   4  18
ATOM     18  C   UNL     1      46.039   8.578  13.186  0.00  0.00    +0.000 C 
BRANCH  18  19
ATOM     19  N   UNL     1      47.151   9.004  12.373  0.00  0.00    +0.000 N 
ATOM     20  C   UNL     1      48.183   9.741  12.897  0.00  0.00    +0.000 C 
ATOM     21  O   UNL     1      48.237  10.025  14.090  0.00  0.00    +0.000 OA
ATOM     22  H   UNL     1      47.024   8.978  11.366  0.00  0.00    +0.000 HD
BRANCH  20  23
ATOM     23  C   UNL     1      49.251  10.125  11.964  0.00  0.00    +0.000 A 
ATOM     24  C   UNL     1      49.041  11.162  11.066  0.00  0.00    +0.000 A 
ATOM     25  S   UNL     1      50.400  11.516  10.098  0.00  0.00    +0.000 S 
ATOM     26  C   UNL     1      51.303  10.261  10.810  0.00  0.00    +0.000 A 
ATOM     27  N   UNL     1      52.577  10.003  10.412  0.00  0.00    +0.000 NA
ATOM     28  C   UNL     1      53.132   9.003  11.013  0.00  0.00    +0.000 A 
ATOM     29  N   UNL     1      52.528   8.241  11.979  0.00  0.00    +0.000 N 
ATOM     30  C   UNL     1      51.254   8.483  12.432  0.00  0.00    +0.000 A 
ATOM     31  O   UNL     1      50.756   7.809  13.328  0.00  0.00    +0.000 OA
ATOM     32  C   UNL     1      50.581   9.591  11.782  0.00  0.00    +0.000 A 
ATOM     33  H   UNL     1      53.020   7.475  12.416  0.00  0.00    +0.000 HD
ENDBRANCH  20  23
ENDBRANCH  18  19
ENDBRANCH   4  18
TORSDOF 6
ENDMDL
MODEL 5
REMARK VINA RESULT:    -6.987      3.572      4.987
REMARK INTER + INTRA:         -10.451
REMARK INTER:                  -9.390
REMARK INTRA:                  -1.061
REMARK UNBOUND:                -1.013
REMARK  Name = 
REMARK  6 active torsions:
REMARK  status: ('A' for Active; 'I' for Inactive)
REMARK    1  A    between atoms: C_2  and  C_25
REMARK    2  A    between atoms: N_3  and  C_4
REMARK    3  A    between atoms: C_4  and  C_5
REMARK    4  A    between atoms: C_8  and  C_9
REMARK    5  A    between atoms: C_9  and  N_10
REMARK    6  A    between atoms: C_11  and  C_13
REMARK                            x       y       z     vdW  Elec       q    Type
REMARK                         _______ _______ _______ _____ _____    ______ ____
ROOT
ATOM      1  C   UNL     1      45.224   6.450  11.609  0.00  0.00    +0.000 A 
ATOM      2  C   UNL     1      44.835   7.734  11.988  0.00  0.00    +0.000 A 
ATOM      3  C   UNL     1      45.666   8.474  12.829  0.00  0.00    +0.000 A 
ATOM      4  C   UNL     1      46.880   7.932  13.257  0.00  0.00    +0.000 A 
ATOM      5  C   UNL     1      47.182   6.643  12.831  0.00  0.00    +0.000 A 
ATOM      6  N   UNL     1      46.394   5.897  12.021  0.00  0.00    +0.000 NA
ENDROOT
BRANCH   1   7
ATOM      7  C   UNL     1      44.340   5.616  10.708  0.00  0.00    +0.000 C 
BRANCH   7  10
ATOM      8  O   UNL     1      43.873   2.941   9.886  0.00  0.00    +0.000 OA
ATOM      9  C   UNL     1      44.778   3.585   9.366  0.00  0.00    +0.000 C 
ATOM     10  N   UNL     1      45.085   4.881   9.711  0.00  0.00    +0.000 N 
ATOM     11  H   UNL     1      45.784   5.361   9.151  0.00  0.00    +0.000 HD
BRANCH   9  12
ATOM     12  C   UNL     1      45.645   2.990   8.296  0.00  0.00    +0.000 A 
ATOM     13  C   UNL     1      46.047   1.663   8.402  0.00  0.00    +0.000 A 
ATOM     14  C   UNL     1      46.868   1.140   7.411  0.00  0.00    +0.000 A 
ATOM     15  C   UNL     1      47.262   1.955   6.354  0.00  0.00    +0.000 A 
ATOM     16  C   UNL     1      46.813   3.268   6.328  0.00  0.00    +0.000 A 
ATOM     17  N   UNL     1      46.010   3.810   7.270  0.00  0.00    +0.000 NA
ENDBRANCH   9  12
ENDBRANCH   7  10
ENDBRANCH   1   7
BRANCH   4  18
ATOM     18  C   UNL     1      47.805   8.679  14.171  0.00  0.00    +0.000 C 
BRANCH  18  19
ATOM     19  N   UNL     1      49.124   8.797  13.600  0.00  0.00    +0.000 N 
ATOM     20  C   UNL     1      49.521   9.930  12.938  0.00  0.00    +0.000 C 
ATOM     21  O   UNL     1      48.797  10.918  12.849  0.00  0.00    +0.000 OA
ATOM     22  H   UNL     1      49.647   7.937  13.466  0.00  0.00    +0.000 HD
BRANCH  20  23
ATOM     23  C   UNL     1      50.885   9.924  12.390  0.00  0.00    +0.000 A 
ATOM     24  C   UNL     1      51.719  11.013  12.605  0.00  0.00    +0.000 A 
ATOM     25  S   UNL     1      53.282  10.818  11.952  0.00  0.00    +0.000 S 
ATOM     26  C   UNL     1      52.885   9.291  11.314  0.00  0.00    +0.000 A 
ATOM     27  N   UNL     1      53.794   8.572  10.603  0.00  0.00    +0.000 NA
ATOM     28  C   UNL     1      53.349   7.446  10.151  0.00  0.00    +0.000 A 
ATOM     29  N   UNL     1      52.077   6.974  10.349  0.00  0.00    +0.000 N 
ATOM     30  C   UNL     1      51.135   7.653  11.084  0.00  0.00    +0.000 A 
ATOM     31  O   UNL     1      50.018   7.185  11.278  0.00  0.00    +0.000 OA
ATOM     32  C   UNL     1      51.582   8.930  11.608  0.00  0.00    +0.000 A 
ATOM     33  H   UNL     1      51.792   6.081   9.974  0.00  0.00    +0.000 HD
ENDBRANCH  20  23
ENDBRANCH  18  19
ENDBRANCH   4  18
TORSDOF 6
ENDMDL
MODEL 6
REMARK VINA RESULT:    -6.976      4.855      9.573
REMARK INTER + INTRA:         -10.435
REMARK INTER:                  -9.339
REMARK INTRA:                  -1.096
REMARK UNBOUND:                -1.013
REMARK  Name = 
REMARK  6 active torsions:
REMARK  status: ('A' for Active; 'I' for Inactive)
REMARK    1  A    between atoms: C_2  and  C_25
REMARK    2  A    between atoms: N_3  and  C_4
REMARK    3  A    between atoms: C_4  and  C_5
REMARK    4  A    between atoms: C_8  and  C_9
REMARK    5  A    between atoms: C_9  and  N_10
REMARK    6  A    between atoms: C_11  and  C_13
REMARK                            x       y       z     vdW  Elec       q    Type
REMARK                         _______ _______ _______ _____ _____    ______ ____
ROOT
ATOM      1  C   UNL     1      51.278   2.929  17.795  0.00  0.00    +0.000 A 
ATOM      2  C   UNL     1      50.525   1.943  17.160  0.00  0.00    +0.000 A 
ATOM      3  C   UNL     1      49.190   2.203  16.850  0.00  0.00    +0.000 A 
ATOM      4  C   UNL     1      48.637   3.449  17.155  0.00  0.00    +0.000 A 
ATOM      5  C   UNL     1      49.463   4.368  17.792  0.00  0.00    +0.000 A 
ATOM      6  N   UNL     1      50.759   4.143  18.112  0.00  0.00    +0.000 NA
ENDROOT
BRANCH   1   7
ATOM      7  C   UNL     1      52.725   2.675  18.156  0.00  0.00    +0.000 C 
BRANCH   7  10
ATOM      8  O   UNL     1      54.774   1.147  16.923  0.00  0.00    +0.000 OA
ATOM      9  C   UNL     1      54.038   0.618  17.749  0.00  0.00    +0.000 C 
ATOM     10  N   UNL     1      53.012   1.277  18.386  0.00  0.00    +0.000 N 
ATOM     11  H   UNL     1      52.527   0.781  19.128  0.00  0.00    +0.000 HD
BRANCH   9  12
ATOM     12  C   UNL     1      54.201  -0.824  18.130  0.00  0.00    +0.000 A 
ATOM     13  C   UNL     1      55.020  -1.644  17.361  0.00  0.00    +0.000 A 
ATOM     14  C   UNL     1      55.137  -2.982  17.719  0.00  0.00    +0.000 A 
ATOM     15  C   UNL     1      54.435  -3.454  18.824  0.00  0.00    +0.000 A 
ATOM     16  C   UNL     1      53.640  -2.565  19.533  0.00  0.00    +0.000 A 
ATOM     17  N   UNL     1      53.505  -1.257  19.220  0.00  0.00    +0.000 NA
ENDBRANCH   9  12
ENDBRANCH   7  10
ENDBRANCH   1   7
BRANCH   4  18
ATOM     18  C   UNL     1      47.205   3.777  16.855  0.00  0.00    +0.000 C 
BRANCH  18  19
ATOM     19  N   UNL     1      47.100   4.732  15.781  0.00  0.00    +0.000 N 
ATOM     20  C   UNL     1      47.134   4.342  14.467  0.00  0.00    +0.000 C 
ATOM     21  O   UNL     1      47.199   3.160  14.142  0.00  0.00    +0.000 OA
ATOM     22  H   UNL     1      47.269   5.706  16.012  0.00  0.00    +0.000 HD
BRANCH  20  23
ATOM     23  C   UNL     1      47.031   5.412  13.465  0.00  0.00    +0.000 A 
ATOM     24  C   UNL     1      46.036   5.356  12.498  0.00  0.00    +0.000 A 
ATOM     25  S   UNL     1      46.022   6.702  11.451  0.00  0.00    +0.000 S 
ATOM     26  C   UNL     1      47.377   7.384  12.220  0.00  0.00    +0.000 A 
ATOM     27  N   UNL     1      47.907   8.561  11.791  0.00  0.00    +0.000 NA
ATOM     28  C   UNL     1      48.953   8.946  12.445  0.00  0.00    +0.000 A 
ATOM     29  N   UNL     1      49.514   8.261  13.490  0.00  0.00    +0.000 N 
ATOM     30  C   UNL     1      48.998   7.084  13.975  0.00  0.00    +0.000 A 
ATOM     31  O   UNL     1      49.499   6.516  14.940  0.00  0.00    +0.000 OA
ATOM     32  C   UNL     1      47.826   6.602  13.270  0.00  0.00    +0.000 A 
ATOM     33  H   UNL     1      50.331   8.620  13.966  0.00  0.00    +0.000 HD
ENDBRANCH  20  23
ENDBRANCH  18  19
ENDBRANCH   4  18
TORSDOF 6
ENDMDL
MODEL 7
REMARK VINA RESULT:    -6.950      4.923      9.519
REMARK INTER + INTRA:         -10.400
REMARK INTER:                  -9.585
REMARK INTRA:                  -0.815
REMARK UNBOUND:                -1.013
REMARK  Name = 
REMARK  6 active torsions:
REMARK  status: ('A' for Active; 'I' for Inactive)
REMARK    1  A    between atoms: C_2  and  C_25
REMARK    2  A    between atoms: N_3  and  C_4
REMARK    3  A    between atoms: C_4  and  C_5
REMARK    4  A    between atoms: C_8  and  C_9
REMARK    5  A    between atoms: C_9  and  N_10
REMARK    6  A    between atoms: C_11  and  C_13
REMARK                            x       y       z     vdW  Elec       q    Type
REMARK                         _______ _______ _______ _____ _____    ______ ____
ROOT
ATOM      1  C   UNL     1      51.398   2.868  17.769  0.00  0.00    +0.000 A 
ATOM      2  C   UNL     1      50.693   1.890  17.069  0.00  0.00    +0.000 A 
ATOM      3  C   UNL     1      49.340   2.090  16.800  0.00  0.00    +0.000 A 
ATOM      4  C   UNL     1      48.718   3.272  17.210  0.00  0.00    +0.000 A 
ATOM      5  C   UNL     1      49.499   4.188  17.906  0.00  0.00    +0.000 A 
ATOM      6  N   UNL     1      50.812   4.019  18.188  0.00  0.00    +0.000 NA
ENDROOT
BRANCH   1   7
ATOM      7  C   UNL     1      52.863   2.676  18.088  0.00  0.00    +0.000 C 
BRANCH   7  10
ATOM      8  O   UNL     1      54.921   1.429  16.583  0.00  0.00    +0.000 OA
ATOM      9  C   UNL     1      54.273   0.768  17.388  0.00  0.00    +0.000 C 
ATOM     10  N   UNL     1      53.251   1.285  18.150  0.00  0.00    +0.000 N 
ATOM     11  H   UNL     1      52.846   0.683  18.860  0.00  0.00    +0.000 HD
BRANCH   9  12
ATOM     12  C   UNL     1      54.549  -0.691  17.601  0.00  0.00    +0.000 A 
ATOM     13  C   UNL     1      54.346  -1.247  18.860  0.00  0.00    +0.000 A 
ATOM     14  C   UNL     1      54.631  -2.595  19.040  0.00  0.00    +0.000 A 
ATOM     15  C   UNL     1      55.108  -3.339  17.964  0.00  0.00    +0.000 A 
ATOM     16  C   UNL     1      55.281  -2.702  16.744  0.00  0.00    +0.000 A 
ATOM     17  N   UNL     1      55.010  -1.395  16.528  0.00  0.00    +0.000 NA
ENDBRANCH   9  12
ENDBRANCH   7  10
ENDBRANCH   1   7
BRANCH   4  18
ATOM     18  C   UNL     1      47.263   3.533  16.958  0.00  0.00    +0.000 C 
BRANCH  18  19
ATOM     19  N   UNL     1      47.080   4.562  15.965  0.00  0.00    +0.000 N 
ATOM     20  C   UNL     1      47.113   4.280  14.624  0.00  0.00    +0.000 C 
ATOM     21  O   UNL     1      47.243   3.133  14.204  0.00  0.00    +0.000 OA
ATOM     22  H   UNL     1      47.194   5.523  16.271  0.00  0.00    +0.000 HD
BRANCH  20  23
ATOM     23  C   UNL     1      46.926   5.417  13.712  0.00  0.00    +0.000 A 
ATOM     24  C   UNL     1      47.979   6.290  13.474  0.00  0.00    +0.000 A 
ATOM     25  S   UNL     1      47.611   7.518  12.349  0.00  0.00    +0.000 S 
ATOM     26  C   UNL     1      46.014   6.957  12.177  0.00  0.00    +0.000 A 
ATOM     27  N   UNL     1      45.135   7.590  11.354  0.00  0.00    +0.000 NA
ATOM     28  C   UNL     1      43.949   7.078  11.345  0.00  0.00    +0.000 A 
ATOM     29  N   UNL     1      43.564   5.987  12.080  0.00  0.00    +0.000 N 
ATOM     30  C   UNL     1      44.425   5.300  12.902  0.00  0.00    +0.000 A 
ATOM     31  O   UNL     1      44.061   4.302  13.516  0.00  0.00    +0.000 OA
ATOM     32  C   UNL     1      45.770   5.840  12.957  0.00  0.00    +0.000 A 
ATOM     33  H   UNL     1      42.621   5.631  12.023  0.00  0.00    +0.000 HD
ENDBRANCH  20  23
ENDBRANCH  18  19
ENDBRANCH   4  18
TORSDOF 6
ENDMDL
MODEL 8
REMARK VINA RESULT:    -6.693      3.799      8.811
REMARK INTER + INTRA:         -10.053
REMARK INTER:                  -9.198
REMARK INTRA:                  -0.855
REMARK UNBOUND:                -1.013
REMARK  Name = 
REMARK  6 active torsions:
REMARK  status: ('A' for Active; 'I' for Inactive)
REMARK    1  A    between atoms: C_2  and  C_25
REMARK    2  A    between atoms: N_3  and  C_4
REMARK    3  A    between atoms: C_4  and  C_5
REMARK    4  A    between atoms: C_8  and  C_9
REMARK    5  A    between atoms: C_9  and  N_10
REMARK    6  A    between atoms: C_11  and  C_13
REMARK                            x       y       z     vdW  Elec       q    Type
REMARK                         _______ _______ _______ _____ _____    ______ ____
ROOT
ATOM      1  C   UNL     1      49.012   5.011  17.380  0.00  0.00    +0.000 A 
ATOM      2  C   UNL     1      47.969   4.466  16.633  0.00  0.00    +0.000 A 
ATOM      3  C   UNL     1      47.606   5.072  15.431  0.00  0.00    +0.000 A 
ATOM      4  C   UNL     1      48.304   6.196  14.982  0.00  0.00    +0.000 A 
ATOM      5  C   UNL     1      49.326   6.672  15.795  0.00  0.00    +0.000 A 
ATOM      6  N   UNL     1      49.698   6.109  16.969  0.00  0.00    +0.000 NA
ENDROOT
BRANCH   1   7
ATOM      7  C   UNL     1      49.423   4.384  18.693  0.00  0.00    +0.000 C 
BRANCH   7  10
ATOM      8  O   UNL     1      50.631   2.394  17.071  0.00  0.00    +0.000 OA
ATOM      9  C   UNL     1      51.314   3.011  17.881  0.00  0.00    +0.000 C 
ATOM     10  N   UNL     1      50.811   3.982  18.717  0.00  0.00    +0.000 N 
ATOM     11  H   UNL     1      51.476   4.506  19.278  0.00  0.00    +0.000 HD
BRANCH   9  12
ATOM     12  C   UNL     1      52.782   2.741  18.031  0.00  0.00    +0.000 A 
ATOM     13  C   UNL     1      53.695   3.750  17.740  0.00  0.00    +0.000 A 
ATOM     14  C   UNL     1      55.050   3.470  17.864  0.00  0.00    +0.000 A 
ATOM     15  C   UNL     1      55.447   2.198  18.269  0.00  0.00    +0.000 A 
ATOM     16  C   UNL     1      54.468   1.253  18.538  0.00  0.00    +0.000 A 
ATOM     17  N   UNL     1      53.141   1.489  18.435  0.00  0.00    +0.000 NA
ENDBRANCH   9  12
ENDBRANCH   7  10
ENDBRANCH   1   7
BRANCH   4  18
ATOM     18  C   UNL     1      47.947   6.894  13.703  0.00  0.00    +0.000 C 
BRANCH  18  19
ATOM     19  N   UNL     1      47.265   6.007  12.794  0.00  0.00    +0.000 N 
ATOM     20  C   UNL     1      46.359   6.476  11.878  0.00  0.00    +0.000 C 
ATOM     21  O   UNL     1      46.127   7.675  11.749  0.00  0.00    +0.000 OA
ATOM     22  H   UNL     1      47.268   5.019  13.025  0.00  0.00    +0.000 HD
BRANCH  20  23
ATOM     23  C   UNL     1      45.721   5.471  11.016  0.00  0.00    +0.000 A 
ATOM     24  C   UNL     1      45.835   5.575   9.636  0.00  0.00    +0.000 A 
ATOM     25  S   UNL     1      45.086   4.298   8.789  0.00  0.00    +0.000 S 
ATOM     26  C   UNL     1      44.539   3.587  10.235  0.00  0.00    +0.000 A 
ATOM     27  N   UNL     1      43.798   2.446  10.217  0.00  0.00    +0.000 NA
ATOM     28  C   UNL     1      43.422   2.035  11.382  0.00  0.00    +0.000 A 
ATOM     29  N   UNL     1      43.725   2.660  12.564  0.00  0.00    +0.000 N 
ATOM     30  C   UNL     1      44.493   3.797  12.633  0.00  0.00    +0.000 A 
ATOM     31  O   UNL     1      44.781   4.309  13.710  0.00  0.00    +0.000 OA
ATOM     32  C   UNL     1      44.934   4.306  11.349  0.00  0.00    +0.000 A 
ATOM     33  H   UNL     1      43.406   2.282  13.446  0.00  0.00    +0.000 HD
ENDBRANCH  20  23
ENDBRANCH  18  19
ENDBRANCH   4  18
TORSDOF 6
ENDMDL
MODEL 9
REMARK VINA RESULT:    -6.498      3.611      4.918
REMARK INTER + INTRA:          -9.790
REMARK INTER:                  -8.723
REMARK INTRA:                  -1.067
REMARK UNBOUND:                -1.013
REMARK  Name = 
REMARK  6 active torsions:
REMARK  status: ('A' for Active; 'I' for Inactive)
REMARK    1  A    between atoms: C_2  and  C_25
REMARK    2  A    between atoms: N_3  and  C_4
REMARK    3  A    between atoms: C_4  and  C_5
REMARK    4  A    between atoms: C_8  and  C_9
REMARK    5  A    between atoms: C_9  and  N_10
REMARK    6  A    between atoms: C_11  and  C_13
REMARK                            x       y       z     vdW  Elec       q    Type
REMARK                         _______ _______ _______ _____ _____    ______ ____
ROOT
ATOM      1  C   UNL     1      45.520   5.072  12.131  0.00  0.00    +0.000 A 
ATOM      2  C   UNL     1      46.102   4.405  13.207  0.00  0.00    +0.000 A 
ATOM      3  C   UNL     1      47.046   5.070  13.989  0.00  0.00    +0.000 A 
ATOM      4  C   UNL     1      47.376   6.396  13.699  0.00  0.00    +0.000 A 
ATOM      5  C   UNL     1      46.749   6.979  12.604  0.00  0.00    +0.000 A 
ATOM      6  N   UNL     1      45.834   6.357  11.823  0.00  0.00    +0.000 NA
ENDROOT
BRANCH   1   7
ATOM      7  C   UNL     1      44.502   4.376  11.257  0.00  0.00    +0.000 C 
BRANCH   7  10
ATOM      8  O   UNL     1      45.336   5.092   8.641  0.00  0.00    +0.000 OA
ATOM      9  C   UNL     1      45.489   3.939   9.031  0.00  0.00    +0.000 C 
ATOM     10  N   UNL     1      45.103   3.500  10.277  0.00  0.00    +0.000 N 
ATOM     11  H   UNL     1      45.367   2.556  10.543  0.00  0.00    +0.000 HD
BRANCH   9  12
ATOM     12  C   UNL     1      46.116   2.895   8.156  0.00  0.00    +0.000 A 
ATOM     13  C   UNL     1      46.724   3.278   6.964  0.00  0.00    +0.000 A 
ATOM     14  C   UNL     1      47.277   2.291   6.158  0.00  0.00    +0.000 A 
ATOM     15  C   UNL     1      47.204   0.961   6.564  0.00  0.00    +0.000 A 
ATOM     16  C   UNL     1      46.579   0.670   7.767  0.00  0.00    +0.000 A 
ATOM     17  N   UNL     1      46.034   1.602   8.581  0.00  0.00    +0.000 NA
ENDBRANCH   9  12
ENDBRANCH   7  10
ENDBRANCH   1   7
BRANCH   4  18
ATOM     18  C   UNL     1      48.394   7.154  14.499  0.00  0.00    +0.000 C 
BRANCH  18  19
ATOM     19  N   UNL     1      49.632   7.293  13.775  0.00  0.00    +0.000 N 
ATOM     20  C   UNL     1      49.970   8.465  13.148  0.00  0.00    +0.000 C 
ATOM     21  O   UNL     1      49.263   9.467  13.220  0.00  0.00    +0.000 OA
ATOM     22  H   UNL     1      50.114   6.437  13.516  0.00  0.00    +0.000 HD
BRANCH  20  23
ATOM     23  C   UNL     1      51.253   8.477  12.431  0.00  0.00    +0.000 A 
ATOM     24  C   UNL     1      51.270   8.639  11.053  0.00  0.00    +0.000 A 
ATOM     25  S   UNL     1      52.840   8.687  10.388  0.00  0.00    +0.000 S 
ATOM     26  C   UNL     1      53.553   8.444  11.914  0.00  0.00    +0.000 A 
ATOM     27  N   UNL     1      54.904   8.364  12.050  0.00  0.00    +0.000 NA
ATOM     28  C   UNL     1      55.306   8.144  13.258  0.00  0.00    +0.000 A 
ATOM     29  N   UNL     1      54.479   8.002  14.342  0.00  0.00    +0.000 N 
ATOM     30  C   UNL     1      53.112   8.103  14.256  0.00  0.00    +0.000 A 
ATOM     31  O   UNL     1      52.401   8.012  15.252  0.00  0.00    +0.000 OA
ATOM     32  C   UNL     1      52.606   8.340  12.918  0.00  0.00    +0.000 A 
ATOM     33  H   UNL     1      54.858   7.838  15.264  0.00  0.00    +0.000 HD
ENDBRANCH  20  23
ENDBRANCH  18  19
ENDBRANCH   4  18
TORSDOF 6
ENDMDL
