MODEL 1
REMARK VINA RESULT:    -8.183      0.000      0.000
REMARK INTER + INTRA:         -10.899
REMARK INTER:                 -10.575
REMARK INTRA:                  -0.323
REMARK UNBOUND:                -0.323
REMARK  Name = 
REMARK  5 active torsions:
REMARK  status: ('A' for Active; 'I' for Inactive)
REMARK    1  A    between atoms: C_2  and  C_17
REMARK    2  A    between atoms: N_3  and  C_4
REMARK    3  A    between atoms: C_4  and  C_5
REMARK    4  A    between atoms: C_8  and  C_9
REMARK    5  A    between atoms: C_9  and  N_10
REMARK                            x       y       z     vdW  Elec       q    Type
REMARK                         _______ _______ _______ _____ _____    ______ ____
ROOT
ATOM      1  O   UNL     1      46.803   3.244  13.925  0.00  0.00    +0.000 OA
ATOM      2  C   UNL     1      46.576   4.397  14.284  0.00  0.00    +0.000 C 
ATOM      3  N   UNL     1      45.469   5.107  13.905  0.00  0.00    +0.000 N 
ATOM      4  H   UNL     1      45.314   6.032  14.279  0.00  0.00    +0.000 HD
ENDROOT
BRANCH   2   5
ATOM      5  C   UNL     1      47.516   5.140  15.126  0.00  0.00    +0.000 A 
ATOM      6  C   UNL     1      48.259   6.188  14.607  0.00  0.00    +0.000 A 
ATOM      7  S   UNL     1      49.245   6.953  15.772  0.00  0.00    +0.000 S 
ATOM      8  C   UNL     1      48.740   5.877  16.992  0.00  0.00    +0.000 A 
ATOM      9  N   UNL     1      49.213   5.978  18.264  0.00  0.00    +0.000 NA
ATOM     10  C   UNL     1      48.763   5.075  19.072  0.00  0.00    +0.000 A 
ATOM     11  N   UNL     1      47.889   4.077  18.727  0.00  0.00    +0.000 N 
ATOM     12  C   UNL     1      47.361   3.953  17.465  0.00  0.00    +0.000 A 
ATOM     13  O   UNL     1      46.532   3.087  17.213  0.00  0.00    +0.000 OA
ATOM     14  C   UNL     1      47.832   4.947  16.517  0.00  0.00    +0.000 A 
ATOM     15  H   UNL     1      47.570   3.406  19.410  0.00  0.00    +0.000 HD
ENDBRANCH   2   5
BRANCH   3  16
ATOM     16  C   UNL     1      44.403   4.552  13.119  0.00  0.00    +0.000 C 
BRANCH  16  17
ATOM     17  C   UNL     1      44.775   4.501  11.664  0.00  0.00    +0.000 A 
ATOM     18  C   UNL     1      45.459   5.580  11.095  0.00  0.00    +0.000 A 
ATOM     19  C   UNL     1      45.860   5.541   9.763  0.00  0.00    +0.000 A 
ATOM     20  C   UNL     1      45.603   4.414   8.974  0.00  0.00    +0.000 A 
ATOM     21  C   UNL     1      44.847   3.366   9.522  0.00  0.00    +0.000 A 
ATOM     22  C   UNL     1      44.431   3.411  10.857  0.00  0.00    +0.000 A 
BRANCH  20  23
ATOM     23  C   UNL     1      46.151   4.329   7.565  0.00  0.00    +0.000 C 
BRANCH  23  24
ATOM     24  N   UNL     1      46.101   3.021   6.895  0.00  0.00    +0.000 NA
ATOM     25  C   UNL     1      46.801   1.936   7.582  0.00  0.00    +0.000 C 
ATOM     26  C   UNL     1      48.140   1.802   6.884  0.00  0.00    +0.000 C 
ATOM     27  C   UNL     1      47.840   2.186   5.447  0.00  0.00    +0.000 C 
ATOM     28  C   UNL     1      46.555   3.006   5.503  0.00  0.00    +0.000 C 
ENDBRANCH  23  24
ENDBRANCH  20  23
ENDBRANCH  16  17
ENDBRANCH   3  16
TORSDOF 5
ENDMDL
MODEL 2
REMARK VINA RESULT:    -7.408      2.141      3.334
REMARK INTER + INTRA:          -9.897
REMARK INTER:                  -9.235
REMARK INTRA:                  -0.662
REMARK UNBOUND:                -0.323
REMARK  Name = 
REMARK  5 active torsions:
REMARK  status: ('A' for Active; 'I' for Inactive)
REMARK    1  A    between atoms: C_2  and  C_17
REMARK    2  A    between atoms: N_3  and  C_4
REMARK    3  A    between atoms: C_4  and  C_5
REMARK    4  A    between atoms: C_8  and  C_9
REMARK    5  A    between atoms: C_9  and  N_10
REMARK                            x       y       z     vdW  Elec       q    Type
REMARK                         _______ _______ _______ _____ _____    ______ ____
ROOT
ATOM      1  O   UNL     1      46.535   4.137  14.135  0.00  0.00    +0.000 OA
ATOM      2  C   UNL     1      46.646   5.359  14.069  0.00  0.00    +0.000 C 
ATOM      3  N   UNL     1      45.687   6.181  13.541  0.00  0.00    +0.000 N 
ATOM      4  H   UNL     1      45.816   7.183  13.565  0.00  0.00    +0.000 HD
ENDROOT
BRANCH   2   5
ATOM      5  C   UNL     1      47.859   6.048  14.514  0.00  0.00    +0.000 A 
ATOM      6  C   UNL     1      48.307   5.924  15.820  0.00  0.00    +0.000 A 
ATOM      7  S   UNL     1      49.767   6.761  16.109  0.00  0.00    +0.000 S 
ATOM      8  C   UNL     1      49.817   7.349  14.511  0.00  0.00    +0.000 A 
ATOM      9  N   UNL     1      50.831   8.146  14.082  0.00  0.00    +0.000 NA
ATOM     10  C   UNL     1      50.719   8.539  12.856  0.00  0.00    +0.000 A 
ATOM     11  N   UNL     1      49.683   8.212  12.019  0.00  0.00    +0.000 N 
ATOM     12  C   UNL     1      48.653   7.385  12.396  0.00  0.00    +0.000 A 
ATOM     13  O   UNL     1      47.780   7.063  11.599  0.00  0.00    +0.000 OA
ATOM     14  C   UNL     1      48.734   6.913  13.767  0.00  0.00    +0.000 A 
ATOM     15  H   UNL     1      49.658   8.545  11.067  0.00  0.00    +0.000 HD
ENDBRANCH   2   5
BRANCH   3  16
ATOM     16  C   UNL     1      44.406   5.716  13.088  0.00  0.00    +0.000 C 
BRANCH  16  17
ATOM     17  C   UNL     1      44.540   4.906  11.830  0.00  0.00    +0.000 A 
ATOM     18  C   UNL     1      45.124   5.488  10.700  0.00  0.00    +0.000 A 
ATOM     19  C   UNL     1      45.306   4.748   9.536  0.00  0.00    +0.000 A 
ATOM     20  C   UNL     1      44.925   3.403   9.480  0.00  0.00    +0.000 A 
ATOM     21  C   UNL     1      44.267   2.842  10.585  0.00  0.00    +0.000 A 
ATOM     22  C   UNL     1      44.070   3.590  11.751  0.00  0.00    +0.000 A 
BRANCH  20  23
ATOM     23  C   UNL     1      45.239   2.572   8.253  0.00  0.00    +0.000 C 
BRANCH  23  24
ATOM     24  N   UNL     1      46.629   2.569   7.773  0.00  0.00    +0.000 NA
ATOM     25  C   UNL     1      46.958   3.605   6.795  0.00  0.00    +0.000 C 
ATOM     26  C   UNL     1      46.902   2.925   5.441  0.00  0.00    +0.000 C 
ATOM     27  C   UNL     1      47.342   1.503   5.730  0.00  0.00    +0.000 C 
ATOM     28  C   UNL     1      47.105   1.297   7.223  0.00  0.00    +0.000 C 
ENDBRANCH  23  24
ENDBRANCH  20  23
ENDBRANCH  16  17
ENDBRANCH   3  16
TORSDOF 5
ENDMDL
MODEL 3
REMARK VINA RESULT:    -7.387      3.936      8.665
REMARK INTER + INTRA:          -9.870
REMARK INTER:                  -9.487
REMARK INTRA:                  -0.383
REMARK UNBOUND:                -0.323
REMARK  Name = 
REMARK  5 active torsions:
REMARK  status: ('A' for Active; 'I' for Inactive)
REMARK    1  A    between atoms: C_2  and  C_17
REMARK    2  A    between atoms: N_3  and  C_4
REMARK    3  A    between atoms: C_4  and  C_5
REMARK    4  A    between atoms: C_8  and  C_9
REMARK    5  A    between atoms: C_9  and  N_10
REMARK                            x       y       z     vdW  Elec       q    Type
REMARK                         _______ _______ _______ _____ _____    ______ ____
ROOT
ATOM      1  O   UNL     1      47.357   3.025  14.183  0.00  0.00    +0.000 OA
ATOM      2  C   UNL     1      47.038   4.131  14.612  0.00  0.00    +0.000 C 
ATOM      3  N   UNL     1      46.882   4.413  15.942  0.00  0.00    +0.000 N 
ATOM      4  H   UNL     1      46.671   5.358  16.233  0.00  0.00    +0.000 HD
ENDROOT
BRANCH   2   5
ATOM      5  C   UNL     1      46.744   5.250  13.714  0.00  0.00    +0.000 A 
ATOM      6  C   UNL     1      47.679   6.249  13.496  0.00  0.00    +0.000 A 
ATOM      7  S   UNL     1      47.155   7.423  12.372  0.00  0.00    +0.000 S 
ATOM      8  C   UNL     1      45.647   6.654  12.181  0.00  0.00    +0.000 A 
ATOM      9  N   UNL     1      44.701   7.152  11.340  0.00  0.00    +0.000 NA
ATOM     10  C   UNL     1      43.598   6.479  11.322  0.00  0.00    +0.000 A 
ATOM     11  N   UNL     1      43.350   5.357  12.071  0.00  0.00    +0.000 N 
ATOM     12  C   UNL     1      44.283   4.800  12.910  0.00  0.00    +0.000 A 
ATOM     13  O   UNL     1      44.047   3.760  13.513  0.00  0.00    +0.000 OA
ATOM     14  C   UNL     1      45.545   5.518  12.964  0.00  0.00    +0.000 A 
ATOM     15  H   UNL     1      42.467   4.873  12.005  0.00  0.00    +0.000 HD
ENDBRANCH   2   5
BRANCH   3  16
ATOM     16  C   UNL     1      47.163   3.473  16.990  0.00  0.00    +0.000 C 
BRANCH  16  17
ATOM     17  C   UNL     1      48.643   3.301  17.178  0.00  0.00    +0.000 A 
ATOM     18  C   UNL     1      49.422   4.409  17.526  0.00  0.00    +0.000 A 
ATOM     19  C   UNL     1      50.788   4.272  17.755  0.00  0.00    +0.000 A 
ATOM     20  C   UNL     1      51.404   3.019  17.660  0.00  0.00    +0.000 A 
ATOM     21  C   UNL     1      50.638   1.923  17.234  0.00  0.00    +0.000 A 
ATOM     22  C   UNL     1      49.268   2.064  16.989  0.00  0.00    +0.000 A 
BRANCH  20  23
ATOM     23  C   UNL     1      52.863   2.856  18.031  0.00  0.00    +0.000 C 
BRANCH  23  24
ATOM     24  N   UNL     1      53.321   1.512  18.410  0.00  0.00    +0.000 NA
ATOM     25  C   UNL     1      54.560   1.466  19.187  0.00  0.00    +0.000 C 
ATOM     26  C   UNL     1      55.657   1.133  18.195  0.00  0.00    +0.000 C 
ATOM     27  C   UNL     1      54.964   0.254  17.170  0.00  0.00    +0.000 C 
ATOM     28  C   UNL     1      53.476   0.562  17.306  0.00  0.00    +0.000 C 
ENDBRANCH  23  24
ENDBRANCH  20  23
ENDBRANCH  16  17
ENDBRANCH   3  16
TORSDOF 5
ENDMDL
MODEL 4
REMARK VINA RESULT:    -7.191      3.179      4.363
REMARK INTER + INTRA:          -9.616
REMARK INTER:                  -8.529
REMARK INTRA:                  -1.087
REMARK UNBOUND:                -0.323
REMARK  Name = 
REMARK  5 active torsions:
REMARK  status: ('A' for Active; 'I' for Inactive)
REMARK    1  A    between atoms: C_2  and  C_17
REMARK    2  A    between atoms: N_3  and  C_4
REMARK    3  A    between atoms: C_4  and  C_5
REMARK    4  A    between atoms: C_8  and  C_9
REMARK    5  A    between atoms: C_9  and  N_10
REMARK                            x       y       z     vdW  Elec       q    Type
REMARK                         _______ _______ _______ _____ _____    ______ ____
ROOT
ATOM      1  O   UNL     1      50.079   7.212  14.233  0.00  0.00    +0.000 OA
ATOM      2  C   UNL     1      49.142   7.125  15.022  0.00  0.00    +0.000 C 
ATOM      3  N   UNL     1      47.965   7.809  14.882  0.00  0.00    +0.000 N 
ATOM      4  H   UNL     1      47.212   7.651  15.538  0.00  0.00    +0.000 HD
ENDROOT
BRANCH   2   5
ATOM      5  C   UNL     1      49.227   6.302  16.231  0.00  0.00    +0.000 A 
ATOM      6  C   UNL     1      50.126   6.610  17.239  0.00  0.00    +0.000 A 
ATOM      7  S   UNL     1      50.017   5.558  18.579  0.00  0.00    +0.000 S 
ATOM      8  C   UNL     1      48.798   4.633  17.830  0.00  0.00    +0.000 A 
ATOM      9  N   UNL     1      48.246   3.556  18.450  0.00  0.00    +0.000 NA
ATOM     10  C   UNL     1      47.356   2.936  17.748  0.00  0.00    +0.000 A 
ATOM     11  N   UNL     1      46.969   3.289  16.481  0.00  0.00    +0.000 N 
ATOM     12  C   UNL     1      47.475   4.385  15.826  0.00  0.00    +0.000 A 
ATOM     13  O   UNL     1      47.056   4.706  14.720  0.00  0.00    +0.000 OA
ATOM     14  C   UNL     1      48.479   5.121  16.575  0.00  0.00    +0.000 A 
ATOM     15  H   UNL     1      46.261   2.765  15.989  0.00  0.00    +0.000 HD
ENDBRANCH   2   5
BRANCH   3  16
ATOM     16  C   UNL     1      47.658   8.634  13.749  0.00  0.00    +0.000 C 
BRANCH  16  17
ATOM     17  C   UNL     1      46.725   7.930  12.805  0.00  0.00    +0.000 A 
ATOM     18  C   UNL     1      47.156   6.768  12.157  0.00  0.00    +0.000 A 
ATOM     19  C   UNL     1      46.298   6.067  11.315  0.00  0.00    +0.000 A 
ATOM     20  C   UNL     1      44.983   6.500  11.116  0.00  0.00    +0.000 A 
ATOM     21  C   UNL     1      44.575   7.708  11.703  0.00  0.00    +0.000 A 
ATOM     22  C   UNL     1      45.442   8.422  12.537  0.00  0.00    +0.000 A 
BRANCH  20  23
ATOM     23  C   UNL     1      44.020   5.665  10.298  0.00  0.00    +0.000 C 
BRANCH  23  24
ATOM     24  N   UNL     1      43.162   4.715  11.021  0.00  0.00    +0.000 NA
ATOM     25  C   UNL     1      42.836   5.085  12.398  0.00  0.00    +0.000 C 
ATOM     26  C   UNL     1      43.784   4.290  13.274  0.00  0.00    +0.000 C 
ATOM     27  C   UNL     1      44.001   3.004  12.500  0.00  0.00    +0.000 C 
ATOM     28  C   UNL     1      43.639   3.331  11.055  0.00  0.00    +0.000 C 
ENDBRANCH  23  24
ENDBRANCH  20  23
ENDBRANCH  16  17
ENDBRANCH   3  16
TORSDOF 5
ENDMDL
MODEL 5
REMARK VINA RESULT:    -7.155      4.019      8.790
REMARK INTER + INTRA:          -9.570
REMARK INTER:                  -8.759
REMARK INTRA:                  -0.810
REMARK UNBOUND:                -0.323
REMARK  Name = 
REMARK  5 active torsions:
REMARK  status: ('A' for Active; 'I' for Inactive)
REMARK    1  A    between atoms: C_2  and  C_17
REMARK    2  A    between atoms: N_3  and  C_4
REMARK    3  A    between atoms: C_4  and  C_5
REMARK    4  A    between atoms: C_8  and  C_9
REMARK    5  A    between atoms: C_9  and  N_10
REMARK                            x       y       z     vdW  Elec       q    Type
REMARK                         _______ _______ _______ _____ _____    ______ ____
ROOT
ATOM      1  O   UNL     1      47.164   3.052  13.995  0.00  0.00    +0.000 OA
ATOM      2  C   UNL     1      46.821   4.130  14.473  0.00  0.00    +0.000 C 
ATOM      3  N   UNL     1      46.771   4.384  15.818  0.00  0.00    +0.000 N 
ATOM      4  H   UNL     1      46.533   5.309  16.145  0.00  0.00    +0.000 HD
ENDROOT
BRANCH   2   5
ATOM      5  C   UNL     1      46.382   5.243  13.629  0.00  0.00    +0.000 A 
ATOM      6  C   UNL     1      47.204   6.337  13.412  0.00  0.00    +0.000 A 
ATOM      7  S   UNL     1      46.522   7.489  12.352  0.00  0.00    +0.000 S 
ATOM      8  C   UNL     1      45.091   6.580  12.189  0.00  0.00    +0.000 A 
ATOM      9  N   UNL     1      44.067   7.007  11.402  0.00  0.00    +0.000 NA
ATOM     10  C   UNL     1      43.035   6.228  11.401  0.00  0.00    +0.000 A 
ATOM     11  N   UNL     1      42.930   5.064  12.117  0.00  0.00    +0.000 N 
ATOM     12  C   UNL     1      43.947   4.576  12.900  0.00  0.00    +0.000 A 
ATOM     13  O   UNL     1      43.839   3.498  13.473  0.00  0.00    +0.000 OA
ATOM     14  C   UNL     1      45.133   5.414  12.933  0.00  0.00    +0.000 A 
ATOM     15  H   UNL     1      42.097   4.496  12.066  0.00  0.00    +0.000 HD
ENDBRANCH   2   5
BRANCH   3  16
ATOM     16  C   UNL     1      47.200   3.447  16.817  0.00  0.00    +0.000 C 
BRANCH  16  17
ATOM     17  C   UNL     1      48.660   3.620  17.128  0.00  0.00    +0.000 A 
ATOM     18  C   UNL     1      49.492   2.497  17.155  0.00  0.00    +0.000 A 
ATOM     19  C   UNL     1      50.857   2.631  17.391  0.00  0.00    +0.000 A 
ATOM     20  C   UNL     1      51.425   3.894  17.588  0.00  0.00    +0.000 A 
ATOM     21  C   UNL     1      50.579   5.013  17.641  0.00  0.00    +0.000 A 
ATOM     22  C   UNL     1      49.204   4.876  17.418  0.00  0.00    +0.000 A 
BRANCH  20  23
ATOM     23  C   UNL     1      52.926   4.043  17.721  0.00  0.00    +0.000 C 
BRANCH  23  24
ATOM     24  N   UNL     1      53.477   5.406  17.708  0.00  0.00    +0.000 NA
ATOM     25  C   UNL     1      54.155   5.798  16.473  0.00  0.00    +0.000 C 
ATOM     26  C   UNL     1      55.637   5.624  16.744  0.00  0.00    +0.000 C 
ATOM     27  C   UNL     1      55.775   5.931  18.223  0.00  0.00    +0.000 C 
ATOM     28  C   UNL     1      54.382   5.733  18.813  0.00  0.00    +0.000 C 
ENDBRANCH  23  24
ENDBRANCH  20  23
ENDBRANCH  16  17
ENDBRANCH   3  16
TORSDOF 5
ENDMDL
MODEL 6
REMARK VINA RESULT:    -6.964      1.978      2.969
REMARK INTER + INTRA:          -9.323
REMARK INTER:                  -8.483
REMARK INTRA:                  -0.840
REMARK UNBOUND:                -0.323
REMARK  Name = 
REMARK  5 active torsions:
REMARK  status: ('A' for Active; 'I' for Inactive)
REMARK    1  A    between atoms: C_2  and  C_17
REMARK    2  A    between atoms: N_3  and  C_4
REMARK    3  A    between atoms: C_4  and  C_5
REMARK    4  A    between atoms: C_8  and  C_9
REMARK    5  A    between atoms: C_9  and  N_10
REMARK                            x       y       z     vdW  Elec       q    Type
REMARK                         _______ _______ _______ _____ _____    ______ ____
ROOT
ATOM      1  O   UNL     1      49.649   7.211  13.752  0.00  0.00    +0.000 OA
ATOM      2  C   UNL     1      48.797   7.199  14.636  0.00  0.00    +0.000 C 
ATOM      3  N   UNL     1      47.471   7.459  14.417  0.00  0.00    +0.000 N 
ATOM      4  H   UNL     1      46.811   7.380  15.178  0.00  0.00    +0.000 HD
ENDROOT
BRANCH   2   5
ATOM      5  C   UNL     1      49.143   6.947  16.036  0.00  0.00    +0.000 A 
ATOM      6  C   UNL     1      49.871   7.873  16.766  0.00  0.00    +0.000 A 
ATOM      7  S   UNL     1      50.113   7.406  18.390  0.00  0.00    +0.000 S 
ATOM      8  C   UNL     1      49.290   5.934  18.152  0.00  0.00    +0.000 A 
ATOM      9  N   UNL     1      49.130   5.041  19.166  0.00  0.00    +0.000 NA
ATOM     10  C   UNL     1      48.513   3.957  18.829  0.00  0.00    +0.000 A 
ATOM     11  N   UNL     1      48.043   3.680  17.571  0.00  0.00    +0.000 N 
ATOM     12  C   UNL     1      48.153   4.562  16.523  0.00  0.00    +0.000 A 
ATOM     13  O   UNL     1      47.663   4.305  15.430  0.00  0.00    +0.000 OA
ATOM     14  C   UNL     1      48.838   5.800  16.852  0.00  0.00    +0.000 A 
ATOM     15  H   UNL     1      47.561   2.815  17.374  0.00  0.00    +0.000 HD
ENDBRANCH   2   5
BRANCH   3  16
ATOM     16  C   UNL     1      46.913   7.687  13.114  0.00  0.00    +0.000 C 
BRANCH  16  17
ATOM     17  C   UNL     1      46.099   6.507  12.662  0.00  0.00    +0.000 A 
ATOM     18  C   UNL     1      44.781   6.706  12.238  0.00  0.00    +0.000 A 
ATOM     19  C   UNL     1      44.019   5.642  11.768  0.00  0.00    +0.000 A 
ATOM     20  C   UNL     1      44.564   4.354  11.692  0.00  0.00    +0.000 A 
ATOM     21  C   UNL     1      45.857   4.140  12.191  0.00  0.00    +0.000 A 
ATOM     22  C   UNL     1      46.618   5.208  12.679  0.00  0.00    +0.000 A 
BRANCH  20  23
ATOM     23  C   UNL     1      43.771   3.227  11.064  0.00  0.00    +0.000 C 
BRANCH  23  24
ATOM     24  N   UNL     1      43.835   3.083   9.603  0.00  0.00    +0.000 NA
ATOM     25  C   UNL     1      44.506   1.877   9.119  0.00  0.00    +0.000 C 
ATOM     26  C   UNL     1      45.911   2.310   8.745  0.00  0.00    +0.000 C 
ATOM     27  C   UNL     1      45.736   3.740   8.271  0.00  0.00    +0.000 C 
ATOM     28  C   UNL     1      44.421   4.215   8.881  0.00  0.00    +0.000 C 
ENDBRANCH  23  24
ENDBRANCH  20  23
ENDBRANCH  16  17
ENDBRANCH   3  16
TORSDOF 5
ENDMDL
MODEL 7
REMARK VINA RESULT:    -6.894      3.146      8.628
REMARK INTER + INTRA:          -9.233
REMARK INTER:                  -8.235
REMARK INTRA:                  -0.998
REMARK UNBOUND:                -0.323
REMARK  Name = 
REMARK  5 active torsions:
REMARK  status: ('A' for Active; 'I' for Inactive)
REMARK    1  A    between atoms: C_2  and  C_17
REMARK    2  A    between atoms: N_3  and  C_4
REMARK    3  A    between atoms: C_4  and  C_5
REMARK    4  A    between atoms: C_8  and  C_9
REMARK    5  A    between atoms: C_9  and  N_10
REMARK                            x       y       z     vdW  Elec       q    Type
REMARK                         _______ _______ _______ _____ _____    ______ ____
ROOT
ATOM      1  O   UNL     1      45.670   7.919  11.643  0.00  0.00    +0.000 OA
ATOM      2  C   UNL     1      46.271   6.859  11.487  0.00  0.00    +0.000 C 
ATOM      3  N   UNL     1      47.571   6.660  11.868  0.00  0.00    +0.000 N 
ATOM      4  H   UNL     1      47.991   5.748  11.761  0.00  0.00    +0.000 HD
ENDROOT
BRANCH   2   5
ATOM      5  C   UNL     1      45.651   5.711  10.822  0.00  0.00    +0.000 A 
ATOM      6  C   UNL     1      45.792   5.520   9.457  0.00  0.00    +0.000 A 
ATOM      7  S   UNL     1      45.039   4.092   8.899  0.00  0.00    +0.000 S 
ATOM      8  C   UNL     1      44.466   3.714  10.458  0.00  0.00    +0.000 A 
ATOM      9  N   UNL     1      43.731   2.593  10.689  0.00  0.00    +0.000 NA
ATOM     10  C   UNL     1      43.341   2.454  11.913  0.00  0.00    +0.000 A 
ATOM     11  N   UNL     1      43.613   3.335  12.929  0.00  0.00    +0.000 N 
ATOM     12  C   UNL     1      44.376   4.463  12.752  0.00  0.00    +0.000 A 
ATOM     13  O   UNL     1      44.652   5.191  13.698  0.00  0.00    +0.000 OA
ATOM     14  C   UNL     1      44.843   4.664  11.391  0.00  0.00    +0.000 A 
ATOM     15  H   UNL     1      43.285   3.164  13.867  0.00  0.00    +0.000 HD
ENDBRANCH   2   5
BRANCH   3  16
ATOM     16  C   UNL     1      48.348   7.639  12.576  0.00  0.00    +0.000 C 
BRANCH  16  17
ATOM     17  C   UNL     1      48.749   7.131  13.932  0.00  0.00    +0.000 A 
ATOM     18  C   UNL     1      47.924   6.214  14.590  0.00  0.00    +0.000 A 
ATOM     19  C   UNL     1      48.293   5.689  15.825  0.00  0.00    +0.000 A 
ATOM     20  C   UNL     1      49.504   6.055  16.422  0.00  0.00    +0.000 A 
ATOM     21  C   UNL     1      50.293   7.035  15.800  0.00  0.00    +0.000 A 
ATOM     22  C   UNL     1      49.915   7.574  14.566  0.00  0.00    +0.000 A 
BRANCH  20  23
ATOM     23  C   UNL     1      49.955   5.386  17.704  0.00  0.00    +0.000 C 
BRANCH  23  24
ATOM     24  N   UNL     1      49.445   5.931  18.970  0.00  0.00    +0.000 NA
ATOM     25  C   UNL     1      48.329   5.196  19.566  0.00  0.00    +0.000 C 
ATOM     26  C   UNL     1      47.079   5.966  19.185  0.00  0.00    +0.000 C 
ATOM     27  C   UNL     1      47.544   7.408  19.127  0.00  0.00    +0.000 C 
ATOM     28  C   UNL     1      49.057   7.343  18.940  0.00  0.00    +0.000 C 
ENDBRANCH  23  24
ENDBRANCH  20  23
ENDBRANCH  16  17
ENDBRANCH   3  16
TORSDOF 5
ENDMDL
MODEL 8
REMARK VINA RESULT:    -6.858      3.145      8.618
REMARK INTER + INTRA:          -9.187
REMARK INTER:                  -8.065
REMARK INTRA:                  -1.121
REMARK UNBOUND:                -0.323
REMARK  Name = 
REMARK  5 active torsions:
REMARK  status: ('A' for Active; 'I' for Inactive)
REMARK    1  A    between atoms: C_2  and  C_17
REMARK    2  A    between atoms: N_3  and  C_4
REMARK    3  A    between atoms: C_4  and  C_5
REMARK    4  A    between atoms: C_8  and  C_9
REMARK    5  A    between atoms: C_9  and  N_10
REMARK                            x       y       z     vdW  Elec       q    Type
REMARK                         _______ _______ _______ _____ _____    ______ ____
ROOT
ATOM      1  O   UNL     1      44.976   7.718  11.827  0.00  0.00    +0.000 OA
ATOM      2  C   UNL     1      45.645   6.690  11.750  0.00  0.00    +0.000 C 
ATOM      3  N   UNL     1      47.013   6.676  11.698  0.00  0.00    +0.000 N 
ATOM      4  H   UNL     1      47.505   5.794  11.690  0.00  0.00    +0.000 HD
ENDROOT
BRANCH   2   5
ATOM      5  C   UNL     1      45.019   5.370  11.657  0.00  0.00    +0.000 A 
ATOM      6  C   UNL     1      44.370   4.813  12.748  0.00  0.00    +0.000 A 
ATOM      7  S   UNL     1      43.663   3.297  12.405  0.00  0.00    +0.000 S 
ATOM      8  C   UNL     1      44.243   3.322  10.803  0.00  0.00    +0.000 A 
ATOM      9  N   UNL     1      43.986   2.300   9.942  0.00  0.00    +0.000 NA
ATOM     10  C   UNL     1      44.516   2.444   8.772  0.00  0.00    +0.000 A 
ATOM     11  N   UNL     1      45.282   3.513   8.383  0.00  0.00    +0.000 N 
ATOM     12  C   UNL     1      45.542   4.582   9.205  0.00  0.00    +0.000 A 
ATOM     13  O   UNL     1      46.177   5.548   8.800  0.00  0.00    +0.000 OA
ATOM     14  C   UNL     1      44.966   4.470  10.534  0.00  0.00    +0.000 A 
ATOM     15  H   UNL     1      45.661   3.568   7.450  0.00  0.00    +0.000 HD
ENDBRANCH   2   5
BRANCH   3  16
ATOM     16  C   UNL     1      47.823   7.854  11.819  0.00  0.00    +0.000 C 
BRANCH  16  17
ATOM     17  C   UNL     1      48.419   7.961  13.194  0.00  0.00    +0.000 A 
ATOM     18  C   UNL     1      47.746   8.694  14.177  0.00  0.00    +0.000 A 
ATOM     19  C   UNL     1      48.248   8.770  15.472  0.00  0.00    +0.000 A 
ATOM     20  C   UNL     1      49.425   8.098  15.821  0.00  0.00    +0.000 A 
ATOM     21  C   UNL     1      50.142   7.430  14.817  0.00  0.00    +0.000 A 
ATOM     22  C   UNL     1      49.646   7.366  13.510  0.00  0.00    +0.000 A 
BRANCH  20  23
ATOM     23  C   UNL     1      49.897   8.084  17.260  0.00  0.00    +0.000 C 
BRANCH  23  24
ATOM     24  N   UNL     1      49.507   6.936  18.091  0.00  0.00    +0.000 NA
ATOM     25  C   UNL     1      50.562   5.955  18.343  0.00  0.00    +0.000 C 
ATOM     26  C   UNL     1      50.318   4.826  17.361  0.00  0.00    +0.000 C 
ATOM     27  C   UNL     1      48.810   4.806  17.198  0.00  0.00    +0.000 C 
ATOM     28  C   UNL     1      48.334   6.190  17.629  0.00  0.00    +0.000 C 
ENDBRANCH  23  24
ENDBRANCH  20  23
ENDBRANCH  16  17
ENDBRANCH   3  16
TORSDOF 5
ENDMDL
MODEL 9
REMARK VINA RESULT:    -6.734      4.731      7.593
REMARK INTER + INTRA:          -9.026
REMARK INTER:                  -8.192
REMARK INTRA:                  -0.834
REMARK UNBOUND:                -0.323
REMARK  Name = 
REMARK  5 active torsions:
REMARK  status: ('A' for Active; 'I' for Inactive)
REMARK    1  A    between atoms: C_2  and  C_17
REMARK    2  A    between atoms: N_3  and  C_4
REMARK    3  A    between atoms: C_4  and  C_5
REMARK    4  A    between atoms: C_8  and  C_9
REMARK    5  A    between atoms: C_9  and  N_10
REMARK                            x       y       z     vdW  Elec       q    Type
REMARK                         _______ _______ _______ _____ _____    ______ ____
ROOT
ATOM      1  O   UNL     1      44.488   7.539  11.151  0.00  0.00    +0.000 OA
ATOM      2  C   UNL     1      44.990   6.606  11.772  0.00  0.00    +0.000 C 
ATOM      3  N   UNL     1      45.975   6.760  12.710  0.00  0.00    +0.000 N 
ATOM      4  H   UNL     1      46.307   5.957  13.225  0.00  0.00    +0.000 HD
ENDROOT
BRANCH   2   5
ATOM      5  C   UNL     1      44.602   5.217  11.521  0.00  0.00    +0.000 A 
ATOM      6  C   UNL     1      43.883   4.499  12.463  0.00  0.00    +0.000 A 
ATOM      7  S   UNL     1      43.486   2.921  11.944  0.00  0.00    +0.000 S 
ATOM      8  C   UNL     1      44.303   3.138  10.465  0.00  0.00    +0.000 A 
ATOM      9  N   UNL     1      44.351   2.149   9.532  0.00  0.00    +0.000 NA
ATOM     10  C   UNL     1      45.031   2.447   8.474  0.00  0.00    +0.000 A 
ATOM     11  N   UNL     1      45.673   3.641   8.264  0.00  0.00    +0.000 N 
ATOM     12  C   UNL     1      45.627   4.679   9.161  0.00  0.00    +0.000 A 
ATOM     13  O   UNL     1      46.159   5.754   8.908  0.00  0.00    +0.000 OA
ATOM     14  C   UNL     1      44.871   4.396  10.369  0.00  0.00    +0.000 A 
ATOM     15  H   UNL     1      46.182   3.814   7.410  0.00  0.00    +0.000 HD
ENDBRANCH   2   5
BRANCH   3  16
ATOM     16  C   UNL     1      46.469   8.038  13.138  0.00  0.00    +0.000 C 
BRANCH  16  17
ATOM     17  C   UNL     1      47.835   8.307  12.573  0.00  0.00    +0.000 A 
ATOM     18  C   UNL     1      48.797   7.293  12.599  0.00  0.00    +0.000 A 
ATOM     19  C   UNL     1      50.055   7.495  12.039  0.00  0.00    +0.000 A 
ATOM     20  C   UNL     1      50.373   8.710  11.422  0.00  0.00    +0.000 A 
ATOM     21  C   UNL     1      49.436   9.754  11.467  0.00  0.00    +0.000 A 
ATOM     22  C   UNL     1      48.177   9.556  12.043  0.00  0.00    +0.000 A 
BRANCH  20  23
ATOM     23  C   UNL     1      51.698   8.878  10.708  0.00  0.00    +0.000 C 
BRANCH  23  24
ATOM     24  N   UNL     1      52.529   7.679  10.528  0.00  0.00    +0.000 NA
ATOM     25  C   UNL     1      53.943   7.838  10.867  0.00  0.00    +0.000 C 
ATOM     26  C   UNL     1      54.661   8.055   9.550  0.00  0.00    +0.000 C 
ATOM     27  C   UNL     1      53.850   7.244   8.557  0.00  0.00    +0.000 C 
ATOM     28  C   UNL     1      52.477   7.068   9.198  0.00  0.00    +0.000 C 
ENDBRANCH  23  24
ENDBRANCH  20  23
ENDBRANCH  16  17
ENDBRANCH   3  16
TORSDOF 5
ENDMDL
