MODEL 1
REMARK VINA RESULT:    -8.105      0.000      0.000
REMARK INTER + INTRA:         -13.386
REMARK INTER:                 -11.896
REMARK INTRA:                  -1.490
REMARK UNBOUND:                -1.490
REMARK  Name = 
REMARK  9 active torsions:
REMARK  status: ('A' for Active; 'I' for Inactive)
REMARK    1  A    between atoms: C_1  and  O_2
REMARK    2  A    between atoms: O_2  and  C_3
REMARK    3  A    between atoms: C_10  and  C_11
REMARK    4  A    between atoms: N_13  and  C_14
REMARK    5  A    between atoms: C_14  and  C_15
REMARK    6  A    between atoms: C_18  and  C_19
REMARK    7  A    between atoms: C_19  and  O_20
REMARK    8  A    between atoms: O_20  and  C_21
REMARK    9  A    between atoms: C_21  and  C_22
REMARK                            x       y       z     vdW  Elec       q    Type
REMARK                         _______ _______ _______ _____ _____    ______ ____
ROOT
ATOM      1  C   UNL     1      47.042   8.078  13.316  0.00  0.00    +0.000 C 
ENDROOT
BRANCH   1   2
ATOM      2  C   UNL     1      46.192   7.153  12.479  0.00  0.00    +0.000 A 
ATOM      3  C   UNL     1      44.832   6.972  12.765  0.00  0.00    +0.000 A 
ATOM      4  C   UNL     1      44.031   6.166  11.947  0.00  0.00    +0.000 A 
ATOM      5  C   UNL     1      44.572   5.513  10.831  0.00  0.00    +0.000 A 
ATOM      6  C   UNL     1      45.945   5.648  10.580  0.00  0.00    +0.000 A 
ATOM      7  C   UNL     1      46.746   6.455  11.397  0.00  0.00    +0.000 A 
BRANCH   5   8
ATOM      8  C   UNL     1      43.696   4.678   9.929  0.00  0.00    +0.000 C 
BRANCH   8   9
ATOM      9  O   UNL     1      44.452   4.251   8.796  0.00  0.00    +0.000 OA
BRANCH   9  10
ATOM     10  C   UNL     1      44.541   2.827   8.723  0.00  0.00    +0.000 C 
BRANCH  10  11
ATOM     11  C   UNL     1      45.808   2.409   8.019  0.00  0.00    +0.000 A 
ATOM     12  C   UNL     1      46.258   1.086   8.049  0.00  0.00    +0.000 A 
ATOM     13  C   UNL     1      47.406   0.750   7.349  0.00  0.00    +0.000 A 
ATOM     14  N   UNL     1      48.124   1.629   6.616  0.00  0.00    +0.000 NA
ATOM     15  C   UNL     1      47.670   2.899   6.586  0.00  0.00    +0.000 A 
ATOM     16  C   UNL     1      46.532   3.330   7.255  0.00  0.00    +0.000 A 
ENDBRANCH  10  11
ENDBRANCH   9  10
ENDBRANCH   8   9
ENDBRANCH   5   8
ENDBRANCH   1   2
BRANCH   1  19
ATOM     17  C   UNL     1      48.725   6.845  14.621  0.00  0.00    +0.000 C 
ATOM     18  O   UNL     1      49.501   6.835  13.669  0.00  0.00    +0.000 OA
ATOM     19  N   UNL     1      47.495   7.440  14.526  0.00  0.00    +0.000 N 
ATOM     20  H   UNL     1      46.858   7.422  15.309  0.00  0.00    +0.000 HD
BRANCH  17  28
ATOM     21  C   UNL     1      47.371   4.242  16.417  0.00  0.00    +0.000 A 
ATOM     22  N   UNL     1      47.073   3.254  17.283  0.00  0.00    +0.000 NA
ATOM     23  C   UNL     1      47.843   3.119  18.366  0.00  0.00    +0.000 A 
ATOM     24  N   UNL     1      48.894   3.864  18.703  0.00  0.00    +0.000 NA
ATOM     25  C   UNL     1      49.163   4.827  17.804  0.00  0.00    +0.000 A 
ATOM     26  S   UNL     1      50.466   5.881  18.071  0.00  0.00    +0.000 S 
ATOM     27  C   UNL     1      50.158   6.709  16.618  0.00  0.00    +0.000 A 
ATOM     28  C   UNL     1      49.075   6.209  15.904  0.00  0.00    +0.000 A 
ATOM     29  C   UNL     1      48.472   5.091  16.626  0.00  0.00    +0.000 A 
BRANCH  21  31
ATOM     30  C   UNL     1      47.072   3.646  14.172  0.00  0.00    +0.000 C 
ATOM     31  O   UNL     1      46.587   4.379  15.293  0.00  0.00    +0.000 OA
ENDBRANCH  21  31
ENDBRANCH  17  28
ENDBRANCH   1  19
TORSDOF 8
ENDMDL
MODEL 2
REMARK VINA RESULT:    -7.793      1.591      2.021
REMARK INTER + INTRA:         -12.927
REMARK INTER:                 -11.564
REMARK INTRA:                  -1.363
REMARK UNBOUND:                -1.490
REMARK  Name = 
REMARK  9 active torsions:
REMARK  status: ('A' for Active; 'I' for Inactive)
REMARK    1  A    between atoms: C_1  and  O_2
REMARK    2  A    between atoms: O_2  and  C_3
REMARK    3  A    between atoms: C_10  and  C_11
REMARK    4  A    between atoms: N_13  and  C_14
REMARK    5  A    between atoms: C_14  and  C_15
REMARK    6  A    between atoms: C_18  and  C_19
REMARK    7  A    between atoms: C_19  and  O_20
REMARK    8  A    between atoms: O_20  and  C_21
REMARK    9  A    between atoms: C_21  and  C_22
REMARK                            x       y       z     vdW  Elec       q    Type
REMARK                         _______ _______ _______ _____ _____    ______ ____
ROOT
ATOM      1  C   UNL     1      47.922   7.027  13.143  0.00  0.00    +0.000 C 
ENDROOT
BRANCH   1   2
ATOM      2  C   UNL     1      46.885   6.076  12.596  0.00  0.00    +0.000 A 
ATOM      3  C   UNL     1      46.575   4.887  13.269  0.00  0.00    +0.000 A 
ATOM      4  C   UNL     1      45.566   4.040  12.795  0.00  0.00    +0.000 A 
ATOM      5  C   UNL     1      44.850   4.356  11.632  0.00  0.00    +0.000 A 
ATOM      6  C   UNL     1      45.200   5.517  10.928  0.00  0.00    +0.000 A 
ATOM      7  C   UNL     1      46.208   6.365  11.402  0.00  0.00    +0.000 A 
BRANCH   5   8
ATOM      8  C   UNL     1      43.734   3.461  11.148  0.00  0.00    +0.000 C 
BRANCH   8   9
ATOM      9  O   UNL     1      43.859   3.266   9.740  0.00  0.00    +0.000 OA
BRANCH   9  10
ATOM     10  C   UNL     1      44.511   2.034   9.430  0.00  0.00    +0.000 C 
BRANCH  10  11
ATOM     11  C   UNL     1      45.605   2.252   8.414  0.00  0.00    +0.000 A 
ATOM     12  C   UNL     1      45.869   3.518   7.883  0.00  0.00    +0.000 A 
ATOM     13  C   UNL     1      46.913   3.667   6.985  0.00  0.00    +0.000 A 
ATOM     14  N   UNL     1      47.715   2.654   6.590  0.00  0.00    +0.000 NA
ATOM     15  C   UNL     1      47.457   1.441   7.120  0.00  0.00    +0.000 A 
ATOM     16  C   UNL     1      46.434   1.194   8.025  0.00  0.00    +0.000 A 
ENDBRANCH  10  11
ENDBRANCH   9  10
ENDBRANCH   8   9
ENDBRANCH   5   8
ENDBRANCH   1   2
BRANCH   1  19
ATOM     17  C   UNL     1      48.938   6.945  15.382  0.00  0.00    +0.000 C 
ATOM     18  O   UNL     1      50.040   6.681  14.907  0.00  0.00    +0.000 OA
ATOM     19  N   UNL     1      47.846   7.133  14.577  0.00  0.00    +0.000 N 
ATOM     20  H   UNL     1      46.942   7.329  14.982  0.00  0.00    +0.000 HD
BRANCH  17  28
ATOM     21  C   UNL     1      48.858   4.658  17.949  0.00  0.00    +0.000 A 
ATOM     22  N   UNL     1      48.820   3.994  19.122  0.00  0.00    +0.000 NA
ATOM     23  C   UNL     1      48.626   4.704  20.236  0.00  0.00    +0.000 A 
ATOM     24  N   UNL     1      48.456   6.020  20.331  0.00  0.00    +0.000 NA
ATOM     25  C   UNL     1      48.515   6.644  19.140  0.00  0.00    +0.000 A 
ATOM     26  S   UNL     1      48.313   8.327  19.065  0.00  0.00    +0.000 S 
ATOM     27  C   UNL     1      48.514   8.325  17.377  0.00  0.00    +0.000 A 
ATOM     28  C   UNL     1      48.739   7.064  16.838  0.00  0.00    +0.000 A 
ATOM     29  C   UNL     1      48.724   6.056  17.897  0.00  0.00    +0.000 A 
BRANCH  21  31
ATOM     30  C   UNL     1      47.933   3.180  16.387  0.00  0.00    +0.000 C 
ATOM     31  O   UNL     1      49.070   3.932  16.799  0.00  0.00    +0.000 OA
ENDBRANCH  21  31
ENDBRANCH  17  28
ENDBRANCH   1  19
TORSDOF 8
ENDMDL
MODEL 3
REMARK VINA RESULT:    -7.532      2.039      3.399
REMARK INTER + INTRA:         -12.544
REMARK INTER:                 -11.408
REMARK INTRA:                  -1.136
REMARK UNBOUND:                -1.490
REMARK  Name = 
REMARK  9 active torsions:
REMARK  status: ('A' for Active; 'I' for Inactive)
REMARK    1  A    between atoms: C_1  and  O_2
REMARK    2  A    between atoms: O_2  and  C_3
REMARK    3  A    between atoms: C_10  and  C_11
REMARK    4  A    between atoms: N_13  and  C_14
REMARK    5  A    between atoms: C_14  and  C_15
REMARK    6  A    between atoms: C_18  and  C_19
REMARK    7  A    between atoms: C_19  and  O_20
REMARK    8  A    between atoms: O_20  and  C_21
REMARK    9  A    between atoms: C_21  and  C_22
REMARK                            x       y       z     vdW  Elec       q    Type
REMARK                         _______ _______ _______ _____ _____    ______ ____
ROOT
ATOM      1  C   UNL     1      47.367   3.309  14.857  0.00  0.00    +0.000 C 
ENDROOT
BRANCH   1   2
ATOM      2  C   UNL     1      46.727   3.984  13.668  0.00  0.00    +0.000 A 
ATOM      3  C   UNL     1      47.066   5.299  13.320  0.00  0.00    +0.000 A 
ATOM      4  C   UNL     1      46.521   5.898  12.178  0.00  0.00    +0.000 A 
ATOM      5  C   UNL     1      45.617   5.203  11.364  0.00  0.00    +0.000 A 
ATOM      6  C   UNL     1      45.234   3.909  11.745  0.00  0.00    +0.000 A 
ATOM      7  C   UNL     1      45.780   3.309  12.886  0.00  0.00    +0.000 A 
BRANCH   5   8
ATOM      8  C   UNL     1      45.065   5.839  10.111  0.00  0.00    +0.000 C 
BRANCH   8   9
ATOM      9  O   UNL     1      45.696   5.263   8.967  0.00  0.00    +0.000 OA
BRANCH   9  10
ATOM     10  C   UNL     1      44.976   4.131   8.478  0.00  0.00    +0.000 C 
BRANCH  10  11
ATOM     11  C   UNL     1      45.922   3.111   7.894  0.00  0.00    +0.000 A 
ATOM     12  C   UNL     1      46.913   3.473   6.978  0.00  0.00    +0.000 A 
ATOM     13  C   UNL     1      47.781   2.501   6.507  0.00  0.00    +0.000 A 
ATOM     14  N   UNL     1      47.741   1.207   6.892  0.00  0.00    +0.000 NA
ATOM     15  C   UNL     1      46.788   0.875   7.787  0.00  0.00    +0.000 A 
ATOM     16  C   UNL     1      45.874   1.777   8.314  0.00  0.00    +0.000 A 
ENDBRANCH  10  11
ENDBRANCH   9  10
ENDBRANCH   8   9
ENDBRANCH   5   8
ENDBRANCH   1   2
BRANCH   1  19
ATOM     17  C   UNL     1      47.375   4.129  17.177  0.00  0.00    +0.000 C 
ATOM     18  O   UNL     1      46.686   3.182  17.547  0.00  0.00    +0.000 OA
ATOM     19  N   UNL     1      47.754   4.260  15.867  0.00  0.00    +0.000 N 
ATOM     20  H   UNL     1      48.302   5.055  15.573  0.00  0.00    +0.000 HD
BRANCH  17  28
ATOM     21  C   UNL     1      50.448   5.460  17.960  0.00  0.00    +0.000 A 
ATOM     22  N   UNL     1      51.499   6.168  18.419  0.00  0.00    +0.000 NA
ATOM     23  C   UNL     1      51.266   7.107  19.340  0.00  0.00    +0.000 A 
ATOM     24  N   UNL     1      50.092   7.433  19.875  0.00  0.00    +0.000 NA
ATOM     25  C   UNL     1      49.071   6.711  19.379  0.00  0.00    +0.000 A 
ATOM     26  S   UNL     1      47.496   6.985  19.950  0.00  0.00    +0.000 S 
ATOM     27  C   UNL     1      46.861   5.794  18.916  0.00  0.00    +0.000 A 
ATOM     28  C   UNL     1      47.816   5.171  18.121  0.00  0.00    +0.000 A 
ATOM     29  C   UNL     1      49.142   5.713  18.412  0.00  0.00    +0.000 A 
BRANCH  21  31
ATOM     30  C   UNL     1      50.970   3.215  17.547  0.00  0.00    +0.000 C 
ATOM     31  O   UNL     1      50.682   4.499  17.002  0.00  0.00    +0.000 OA
ENDBRANCH  21  31
ENDBRANCH  17  28
ENDBRANCH   1  19
TORSDOF 8
ENDMDL
MODEL 4
REMARK VINA RESULT:    -7.459      2.116      2.791
REMARK INTER + INTRA:         -12.438
REMARK INTER:                 -11.394
REMARK INTRA:                  -1.043
REMARK UNBOUND:                -1.490
REMARK  Name = 
REMARK  9 active torsions:
REMARK  status: ('A' for Active; 'I' for Inactive)
REMARK    1  A    between atoms: C_1  and  O_2
REMARK    2  A    between atoms: O_2  and  C_3
REMARK    3  A    between atoms: C_10  and  C_11
REMARK    4  A    between atoms: N_13  and  C_14
REMARK    5  A    between atoms: C_14  and  C_15
REMARK    6  A    between atoms: C_18  and  C_19
REMARK    7  A    between atoms: C_19  and  O_20
REMARK    8  A    between atoms: O_20  and  C_21
REMARK    9  A    between atoms: C_21  and  C_22
REMARK                            x       y       z     vdW  Elec       q    Type
REMARK                         _______ _______ _______ _____ _____    ______ ____
ROOT
ATOM      1  C   UNL     1      47.999   6.960  13.692  0.00  0.00    +0.000 C 
ENDROOT
BRANCH   1   2
ATOM      2  C   UNL     1      46.965   6.250  12.851  0.00  0.00    +0.000 A 
ATOM      3  C   UNL     1      46.503   4.975  13.205  0.00  0.00    +0.000 A 
ATOM      4  C   UNL     1      45.497   4.348  12.461  0.00  0.00    +0.000 A 
ATOM      5  C   UNL     1      44.936   4.975  11.340  0.00  0.00    +0.000 A 
ATOM      6  C   UNL     1      45.440   6.225  10.953  0.00  0.00    +0.000 A 
ATOM      7  C   UNL     1      46.445   6.853  11.697  0.00  0.00    +0.000 A 
BRANCH   5   8
ATOM      8  C   UNL     1      43.822   4.312  10.566  0.00  0.00    +0.000 C 
BRANCH   8   9
ATOM      9  O   UNL     1      44.357   3.244   9.784  0.00  0.00    +0.000 OA
BRANCH   9  10
ATOM     10  C   UNL     1      44.689   3.668   8.462  0.00  0.00    +0.000 C 
BRANCH  10  11
ATOM     11  C   UNL     1      45.837   2.855   7.916  0.00  0.00    +0.000 A 
ATOM     12  C   UNL     1      45.976   1.496   8.211  0.00  0.00    +0.000 A 
ATOM     13  C   UNL     1      47.026   0.789   7.647  0.00  0.00    +0.000 A 
ATOM     14  N   UNL     1      47.931   1.333   6.805  0.00  0.00    +0.000 NA
ATOM     15  C   UNL     1      47.777   2.641   6.518  0.00  0.00    +0.000 A 
ATOM     16  C   UNL     1      46.759   3.431   7.035  0.00  0.00    +0.000 A 
ENDBRANCH  10  11
ENDBRANCH   9  10
ENDBRANCH   8   9
ENDBRANCH   5   8
ENDBRANCH   1   2
BRANCH   1  19
ATOM     17  C   UNL     1      49.084   6.390  15.826  0.00  0.00    +0.000 C 
ATOM     18  O   UNL     1      50.196   6.624  15.359  0.00  0.00    +0.000 OA
ATOM     19  N   UNL     1      47.952   6.534  15.068  0.00  0.00    +0.000 N 
ATOM     20  H   UNL     1      47.047   6.317  15.457  0.00  0.00    +0.000 HD
BRANCH  17  28
ATOM     21  C   UNL     1      48.930   8.026  18.848  0.00  0.00    +0.000 A 
ATOM     22  N   UNL     1      48.800   8.409  20.133  0.00  0.00    +0.000 NA
ATOM     23  C   UNL     1      48.612   7.458  21.053  0.00  0.00    +0.000 A 
ATOM     24  N   UNL     1      48.541   6.145  20.848  0.00  0.00    +0.000 NA
ATOM     25  C   UNL     1      48.662   5.809  19.551  0.00  0.00    +0.000 A 
ATOM     26  S   UNL     1      48.603   4.174  19.100  0.00  0.00    +0.000 S 
ATOM     27  C   UNL     1      48.804   4.569  17.459  0.00  0.00    +0.000 A 
ATOM     28  C   UNL     1      48.917   5.933  17.217  0.00  0.00    +0.000 A 
ATOM     29  C   UNL     1      48.846   6.673  18.476  0.00  0.00    +0.000 A 
BRANCH  21  31
ATOM     30  C   UNL     1      47.892   9.569  17.425  0.00  0.00    +0.000 C 
ATOM     31  O   UNL     1      49.112   9.002  17.894  0.00  0.00    +0.000 OA
ENDBRANCH  21  31
ENDBRANCH  17  28
ENDBRANCH   1  19
TORSDOF 8
ENDMDL
MODEL 5
REMARK VINA RESULT:    -7.373      1.994      3.629
REMARK INTER + INTRA:         -12.310
REMARK INTER:                 -10.920
REMARK INTRA:                  -1.390
REMARK UNBOUND:                -1.490
REMARK  Name = 
REMARK  9 active torsions:
REMARK  status: ('A' for Active; 'I' for Inactive)
REMARK    1  A    between atoms: C_1  and  O_2
REMARK    2  A    between atoms: O_2  and  C_3
REMARK    3  A    between atoms: C_10  and  C_11
REMARK    4  A    between atoms: N_13  and  C_14
REMARK    5  A    between atoms: C_14  and  C_15
REMARK    6  A    between atoms: C_18  and  C_19
REMARK    7  A    between atoms: C_19  and  O_20
REMARK    8  A    between atoms: O_20  and  C_21
REMARK    9  A    between atoms: C_21  and  C_22
REMARK                            x       y       z     vdW  Elec       q    Type
REMARK                         _______ _______ _______ _____ _____    ______ ____
ROOT
ATOM      1  C   UNL     1      47.152   4.402  14.978  0.00  0.00    +0.000 C 
ENDROOT
BRANCH   1   2
ATOM      2  C   UNL     1      46.251   4.427  13.767  0.00  0.00    +0.000 A 
ATOM      3  C   UNL     1      45.606   5.608  13.376  0.00  0.00    +0.000 A 
ATOM      4  C   UNL     1      44.826   5.645  12.214  0.00  0.00    +0.000 A 
ATOM      5  C   UNL     1      44.662   4.501  11.423  0.00  0.00    +0.000 A 
ATOM      6  C   UNL     1      45.260   3.305  11.846  0.00  0.00    +0.000 A 
ATOM      7  C   UNL     1      46.041   3.268  13.007  0.00  0.00    +0.000 A 
BRANCH   5   8
ATOM      8  C   UNL     1      43.852   4.556  10.149  0.00  0.00    +0.000 C 
BRANCH   8   9
ATOM      9  O   UNL     1      44.216   3.461   9.308  0.00  0.00    +0.000 OA
BRANCH   9  10
ATOM     10  C   UNL     1      44.773   3.906   8.070  0.00  0.00    +0.000 C 
BRANCH  10  11
ATOM     11  C   UNL     1      45.880   2.984   7.623  0.00  0.00    +0.000 A 
ATOM     12  C   UNL     1      46.016   1.696   8.149  0.00  0.00    +0.000 A 
ATOM     13  C   UNL     1      47.027   0.878   7.670  0.00  0.00    +0.000 A 
ATOM     14  N   UNL     1      47.897   1.244   6.704  0.00  0.00    +0.000 NA
ATOM     15  C   UNL     1      47.746   2.485   6.197  0.00  0.00    +0.000 A 
ATOM     16  C   UNL     1      46.765   3.375   6.612  0.00  0.00    +0.000 A 
ENDBRANCH  10  11
ENDBRANCH   9  10
ENDBRANCH   8   9
ENDBRANCH   5   8
ENDBRANCH   1   2
BRANCH   1  19
ATOM     17  C   UNL     1      48.662   5.936  16.169  0.00  0.00    +0.000 C 
ATOM     18  O   UNL     1      49.308   4.996  16.626  0.00  0.00    +0.000 OA
ATOM     19  N   UNL     1      47.587   5.725  15.348  0.00  0.00    +0.000 N 
ATOM     20  H   UNL     1      47.053   6.506  14.997  0.00  0.00    +0.000 HD
BRANCH  17  28
ATOM     21  C   UNL     1      48.710   8.844  14.333  0.00  0.00    +0.000 A 
ATOM     22  N   UNL     1      48.777  10.107  13.866  0.00  0.00    +0.000 NA
ATOM     23  C   UNL     1      49.156  11.067  14.714  0.00  0.00    +0.000 A 
ATOM     24  N   UNL     1      49.487  10.923  15.995  0.00  0.00    +0.000 NA
ATOM     25  C   UNL     1      49.392   9.651  16.422  0.00  0.00    +0.000 A 
ATOM     26  S   UNL     1      49.782   9.275  18.030  0.00  0.00    +0.000 S 
ATOM     27  C   UNL     1      49.427   7.630  17.783  0.00  0.00    +0.000 A 
ATOM     28  C   UNL     1      49.007   7.332  16.492  0.00  0.00    +0.000 A 
ATOM     29  C   UNL     1      49.002   8.544  15.674  0.00  0.00    +0.000 A 
BRANCH  21  31
ATOM     30  C   UNL     1      49.331   7.445  12.561  0.00  0.00    +0.000 C 
ATOM     31  O   UNL     1      48.309   7.852  13.466  0.00  0.00    +0.000 OA
ENDBRANCH  21  31
ENDBRANCH  17  28
ENDBRANCH   1  19
TORSDOF 8
ENDMDL
MODEL 6
REMARK VINA RESULT:    -7.316      2.566      3.426
REMARK INTER + INTRA:         -12.228
REMARK INTER:                 -11.085
REMARK INTRA:                  -1.143
REMARK UNBOUND:                -1.490
REMARK  Name = 
REMARK  9 active torsions:
REMARK  status: ('A' for Active; 'I' for Inactive)
REMARK    1  A    between atoms: C_1  and  O_2
REMARK    2  A    between atoms: O_2  and  C_3
REMARK    3  A    between atoms: C_10  and  C_11
REMARK    4  A    between atoms: N_13  and  C_14
REMARK    5  A    between atoms: C_14  and  C_15
REMARK    6  A    between atoms: C_18  and  C_19
REMARK    7  A    between atoms: C_19  and  O_20
REMARK    8  A    between atoms: O_20  and  C_21
REMARK    9  A    between atoms: C_21  and  C_22
REMARK                            x       y       z     vdW  Elec       q    Type
REMARK                         _______ _______ _______ _____ _____    ______ ____
ROOT
ATOM      1  C   UNL     1      47.345   4.325  14.948  0.00  0.00    +0.000 C 
ENDROOT
BRANCH   1   2
ATOM      2  C   UNL     1      46.486   4.390  13.708  0.00  0.00    +0.000 A 
ATOM      3  C   UNL     1      46.077   3.219  13.056  0.00  0.00    +0.000 A 
ATOM      4  C   UNL     1      45.225   3.280  11.946  0.00  0.00    +0.000 A 
ATOM      5  C   UNL     1      44.770   4.511  11.456  0.00  0.00    +0.000 A 
ATOM      6  C   UNL     1      45.227   5.685  12.074  0.00  0.00    +0.000 A 
ATOM      7  C   UNL     1      46.078   5.624  13.184  0.00  0.00    +0.000 A 
BRANCH   5   8
ATOM      8  C   UNL     1      43.819   4.570  10.285  0.00  0.00    +0.000 C 
BRANCH   8   9
ATOM      9  O   UNL     1      44.151   3.541   9.352  0.00  0.00    +0.000 OA
BRANCH   9  10
ATOM     10  C   UNL     1      44.885   4.051   8.239  0.00  0.00    +0.000 C 
BRANCH  10  11
ATOM     11  C   UNL     1      45.901   3.041   7.764  0.00  0.00    +0.000 A 
ATOM     12  C   UNL     1      46.963   3.407   6.932  0.00  0.00    +0.000 A 
ATOM     13  C   UNL     1      47.889   2.446   6.562  0.00  0.00    +0.000 A 
ATOM     14  N   UNL     1      47.841   1.159   6.969  0.00  0.00    +0.000 NA
ATOM     15  C   UNL     1      46.818   0.823   7.782  0.00  0.00    +0.000 A 
ATOM     16  C   UNL     1      45.842   1.715   8.206  0.00  0.00    +0.000 A 
ENDBRANCH  10  11
ENDBRANCH   9  10
ENDBRANCH   8   9
ENDBRANCH   5   8
ENDBRANCH   1   2
BRANCH   1  19
ATOM     17  C   UNL     1      48.591   5.906  16.362  0.00  0.00    +0.000 C 
ATOM     18  O   UNL     1      49.427   5.049  16.639  0.00  0.00    +0.000 OA
ATOM     19  N   UNL     1      47.537   5.627  15.534  0.00  0.00    +0.000 N 
ATOM     20  H   UNL     1      46.845   6.334  15.332  0.00  0.00    +0.000 HD
BRANCH  17  28
ATOM     21  C   UNL     1      47.751   7.279  19.402  0.00  0.00    +0.000 A 
ATOM     22  N   UNL     1      47.554   8.048  20.491  0.00  0.00    +0.000 NA
ATOM     23  C   UNL     1      47.889   9.339  20.412  0.00  0.00    +0.000 A 
ATOM     24  N   UNL     1      48.402   9.974  19.362  0.00  0.00    +0.000 NA
ATOM     25  C   UNL     1      48.595   9.165  18.304  0.00  0.00    +0.000 A 
ATOM     26  S   UNL     1      49.238   9.803  16.868  0.00  0.00    +0.000 S 
ATOM     27  C   UNL     1      49.178   8.283  16.108  0.00  0.00    +0.000 A 
ATOM     28  C   UNL     1      48.678   7.269  16.916  0.00  0.00    +0.000 A 
ATOM     29  C   UNL     1      48.315   7.805  18.227  0.00  0.00    +0.000 A 
BRANCH  21  31
ATOM     30  C   UNL     1      48.408   5.152  20.131  0.00  0.00    +0.000 C 
ATOM     31  O   UNL     1      47.418   5.945  19.481  0.00  0.00    +0.000 OA
ENDBRANCH  21  31
ENDBRANCH  17  28
ENDBRANCH   1  19
TORSDOF 8
ENDMDL
MODEL 7
REMARK VINA RESULT:    -7.087      2.389      3.627
REMARK INTER + INTRA:         -11.891
REMARK INTER:                 -10.779
REMARK INTRA:                  -1.112
REMARK UNBOUND:                -1.490
REMARK  Name = 
REMARK  9 active torsions:
REMARK  status: ('A' for Active; 'I' for Inactive)
REMARK    1  A    between atoms: C_1  and  O_2
REMARK    2  A    between atoms: O_2  and  C_3
REMARK    3  A    between atoms: C_10  and  C_11
REMARK    4  A    between atoms: N_13  and  C_14
REMARK    5  A    between atoms: C_14  and  C_15
REMARK    6  A    between atoms: C_18  and  C_19
REMARK    7  A    between atoms: C_19  and  O_20
REMARK    8  A    between atoms: O_20  and  C_21
REMARK    9  A    between atoms: C_21  and  C_22
REMARK                            x       y       z     vdW  Elec       q    Type
REMARK                         _______ _______ _______ _____ _____    ______ ____
ROOT
ATOM      1  C   UNL     1      47.499   3.851  15.234  0.00  0.00    +0.000 C 
ENDROOT
BRANCH   1   2
ATOM      2  C   UNL     1      46.790   4.310  13.983  0.00  0.00    +0.000 A 
ATOM      3  C   UNL     1      46.939   5.622  13.514  0.00  0.00    +0.000 A 
ATOM      4  C   UNL     1      46.334   6.026  12.318  0.00  0.00    +0.000 A 
ATOM      5  C   UNL     1      45.556   5.133  11.569  0.00  0.00    +0.000 A 
ATOM      6  C   UNL     1      45.359   3.838  12.069  0.00  0.00    +0.000 A 
ATOM      7  C   UNL     1      45.965   3.433  13.264  0.00  0.00    +0.000 A 
BRANCH   5   8
ATOM      8  C   UNL     1      44.940   5.561  10.259  0.00  0.00    +0.000 C 
BRANCH   8   9
ATOM      9  O   UNL     1      45.705   5.030   9.177  0.00  0.00    +0.000 OA
BRANCH   9  10
ATOM     10  C   UNL     1      44.982   4.034   8.454  0.00  0.00    +0.000 C 
BRANCH  10  11
ATOM     11  C   UNL     1      45.928   3.038   7.829  0.00  0.00    +0.000 A 
ATOM     12  C   UNL     1      46.841   3.417   6.841  0.00  0.00    +0.000 A 
ATOM     13  C   UNL     1      47.715   2.469   6.333  0.00  0.00    +0.000 A 
ATOM     14  N   UNL     1      47.753   1.184   6.747  0.00  0.00    +0.000 NA
ATOM     15  C   UNL     1      46.876   0.836   7.710  0.00  0.00    +0.000 A 
ATOM     16  C   UNL     1      45.963   1.713   8.279  0.00  0.00    +0.000 A 
ENDBRANCH  10  11
ENDBRANCH   9  10
ENDBRANCH   8   9
ENDBRANCH   5   8
ENDBRANCH   1   2
BRANCH   1  19
ATOM     17  C   UNL     1      48.454   5.420  16.871  0.00  0.00    +0.000 C 
ATOM     18  O   UNL     1      49.594   5.180  16.483  0.00  0.00    +0.000 OA
ATOM     19  N   UNL     1      47.369   4.806  16.304  0.00  0.00    +0.000 N 
ATOM     20  H   UNL     1      46.439   4.996  16.647  0.00  0.00    +0.000 HD
BRANCH  17  28
ATOM     21  C   UNL     1      48.647   8.844  17.127  0.00  0.00    +0.000 A 
ATOM     22  N   UNL     1      48.602  10.143  17.483  0.00  0.00    +0.000 NA
ATOM     23  C   UNL     1      48.228  10.437  18.731  0.00  0.00    +0.000 A 
ATOM     24  N   UNL     1      47.889   9.580  19.691  0.00  0.00    +0.000 NA
ATOM     25  C   UNL     1      47.935   8.297  19.288  0.00  0.00    +0.000 A 
ATOM     26  S   UNL     1      47.541   7.061  20.383  0.00  0.00    +0.000 S 
ATOM     27  C   UNL     1      47.813   5.865  19.206  0.00  0.00    +0.000 A 
ATOM     28  C   UNL     1      48.201   6.369  17.970  0.00  0.00    +0.000 A 
ATOM     29  C   UNL     1      48.288   7.827  18.027  0.00  0.00    +0.000 A 
BRANCH  21  31
ATOM     30  C   UNL     1      48.043   8.889  14.865  0.00  0.00    +0.000 C 
ATOM     31  O   UNL     1      49.022   8.537  15.838  0.00  0.00    +0.000 OA
ENDBRANCH  21  31
ENDBRANCH  17  28
ENDBRANCH   1  19
TORSDOF 8
ENDMDL
MODEL 8
REMARK VINA RESULT:    -6.682      4.755      9.153
REMARK INTER + INTRA:         -11.297
REMARK INTER:                 -10.285
REMARK INTRA:                  -1.012
REMARK UNBOUND:                -1.490
REMARK  Name = 
REMARK  9 active torsions:
REMARK  status: ('A' for Active; 'I' for Inactive)
REMARK    1  A    between atoms: C_1  and  O_2
REMARK    2  A    between atoms: O_2  and  C_3
REMARK    3  A    between atoms: C_10  and  C_11
REMARK    4  A    between atoms: N_13  and  C_14
REMARK    5  A    between atoms: C_14  and  C_15
REMARK    6  A    between atoms: C_18  and  C_19
REMARK    7  A    between atoms: C_19  and  O_20
REMARK    8  A    between atoms: O_20  and  C_21
REMARK    9  A    between atoms: C_21  and  C_22
REMARK                            x       y       z     vdW  Elec       q    Type
REMARK                         _______ _______ _______ _____ _____    ______ ____
ROOT
ATOM      1  C   UNL     1      47.268   3.366  16.810  0.00  0.00    +0.000 C 
ENDROOT
BRANCH   1   2
ATOM      2  C   UNL     1      48.750   3.350  17.092  0.00  0.00    +0.000 A 
ATOM      3  C   UNL     1      49.425   4.523  17.455  0.00  0.00    +0.000 A 
ATOM      4  C   UNL     1      50.786   4.493  17.781  0.00  0.00    +0.000 A 
ATOM      5  C   UNL     1      51.508   3.292  17.740  0.00  0.00    +0.000 A 
ATOM      6  C   UNL     1      50.846   2.130  17.320  0.00  0.00    +0.000 A 
ATOM      7  C   UNL     1      49.485   2.160  16.995  0.00  0.00    +0.000 A 
BRANCH   5   8
ATOM      8  C   UNL     1      52.966   3.258  18.132  0.00  0.00    +0.000 C 
BRANCH   8   9
ATOM      9  O   UNL     1      53.231   2.064  18.868  0.00  0.00    +0.000 OA
BRANCH   9  10
ATOM     10  C   UNL     1      54.594   1.655  18.743  0.00  0.00    +0.000 C 
BRANCH  10  11
ATOM     11  C   UNL     1      54.685   0.304  18.077  0.00  0.00    +0.000 A 
ATOM     12  C   UNL     1      54.789   0.179  16.689  0.00  0.00    +0.000 A 
ATOM     13  C   UNL     1      54.913  -1.086  16.135  0.00  0.00    +0.000 A 
ATOM     14  N   UNL     1      54.952  -2.224  16.862  0.00  0.00    +0.000 NA
ATOM     15  C   UNL     1      54.863  -2.086  18.200  0.00  0.00    +0.000 A 
ATOM     16  C   UNL     1      54.737  -0.864  18.846  0.00  0.00    +0.000 A 
ENDBRANCH  10  11
ENDBRANCH   9  10
ENDBRANCH   8   9
ENDBRANCH   5   8
ENDBRANCH   1   2
BRANCH   1  19
ATOM     17  C   UNL     1      46.949   4.211  14.522  0.00  0.00    +0.000 C 
ATOM     18  O   UNL     1      47.288   3.132  14.042  0.00  0.00    +0.000 OA
ATOM     19  N   UNL     1      46.912   4.404  15.877  0.00  0.00    +0.000 N 
ATOM     20  H   UNL     1      46.652   5.302  16.257  0.00  0.00    +0.000 HD
BRANCH  17  28
ATOM     21  C   UNL     1      44.154   4.955  12.660  0.00  0.00    +0.000 A 
ATOM     22  N   UNL     1      43.187   5.500  11.896  0.00  0.00    +0.000 NA
ATOM     23  C   UNL     1      43.423   6.694  11.345  0.00  0.00    +0.000 A 
ATOM     24  N   UNL     1      44.528   7.426  11.459  0.00  0.00    +0.000 NA
ATOM     25  C   UNL     1      45.460   6.851  12.240  0.00  0.00    +0.000 A 
ATOM     26  S   UNL     1      46.942   7.640  12.495  0.00  0.00    +0.000 S 
ATOM     27  C   UNL     1      47.495   6.382  13.497  0.00  0.00    +0.000 A 
ATOM     28  C   UNL     1      46.579   5.350  13.662  0.00  0.00    +0.000 A 
ATOM     29  C   UNL     1      45.366   5.627  12.895  0.00  0.00    +0.000 A 
BRANCH  21  31
ATOM     30  C   UNL     1      43.556   2.720  12.300  0.00  0.00    +0.000 C 
ATOM     31  O   UNL     1      43.911   3.730  13.240  0.00  0.00    +0.000 OA
ENDBRANCH  21  31
ENDBRANCH  17  28
ENDBRANCH   1  19
TORSDOF 8
ENDMDL
MODEL 9
REMARK VINA RESULT:    -6.514      3.732      8.665
REMARK INTER + INTRA:         -11.050
REMARK INTER:                  -9.746
REMARK INTRA:                  -1.305
REMARK UNBOUND:                -1.490
REMARK  Name = 
REMARK  9 active torsions:
REMARK  status: ('A' for Active; 'I' for Inactive)
REMARK    1  A    between atoms: C_1  and  O_2
REMARK    2  A    between atoms: O_2  and  C_3
REMARK    3  A    between atoms: C_10  and  C_11
REMARK    4  A    between atoms: N_13  and  C_14
REMARK    5  A    between atoms: C_14  and  C_15
REMARK    6  A    between atoms: C_18  and  C_19
REMARK    7  A    between atoms: C_19  and  O_20
REMARK    8  A    between atoms: O_20  and  C_21
REMARK    9  A    between atoms: C_21  and  C_22
REMARK                            x       y       z     vdW  Elec       q    Type
REMARK                         _______ _______ _______ _____ _____    ______ ____
ROOT
ATOM      1  C   UNL     1      47.223   3.366  16.898  0.00  0.00    +0.000 C 
ENDROOT
BRANCH   1   2
ATOM      2  C   UNL     1      48.695   3.265  17.219  0.00  0.00    +0.000 A 
ATOM      3  C   UNL     1      49.408   2.088  16.954  0.00  0.00    +0.000 A 
ATOM      4  C   UNL     1      50.786   2.020  17.190  0.00  0.00    +0.000 A 
ATOM      5  C   UNL     1      51.482   3.122  17.705  0.00  0.00    +0.000 A 
ATOM      6  C   UNL     1      50.758   4.279  18.024  0.00  0.00    +0.000 A 
ATOM      7  C   UNL     1      49.380   4.348  17.787  0.00  0.00    +0.000 A 
BRANCH   5   8
ATOM      8  C   UNL     1      52.976   3.057  17.919  0.00  0.00    +0.000 C 
BRANCH   8   9
ATOM      9  O   UNL     1      53.481   4.373  18.144  0.00  0.00    +0.000 OA
BRANCH   9  10
ATOM     10  C   UNL     1      54.651   4.633  17.368  0.00  0.00    +0.000 C 
BRANCH  10  11
ATOM     11  C   UNL     1      54.376   5.695  16.332  0.00  0.00    +0.000 A 
ATOM     12  C   UNL     1      55.204   5.861  15.218  0.00  0.00    +0.000 A 
ATOM     13  C   UNL     1      54.879   6.825  14.277  0.00  0.00    +0.000 A 
ATOM     14  N   UNL     1      53.790   7.619  14.359  0.00  0.00    +0.000 NA
ATOM     15  C   UNL     1      52.993   7.439  15.432  0.00  0.00    +0.000 A 
ATOM     16  C   UNL     1      53.236   6.500  16.427  0.00  0.00    +0.000 A 
ENDBRANCH  10  11
ENDBRANCH   9  10
ENDBRANCH   8   9
ENDBRANCH   5   8
ENDBRANCH   1   2
BRANCH   1  19
ATOM     17  C   UNL     1      47.001   4.211  14.598  0.00  0.00    +0.000 C 
ATOM     18  O   UNL     1      47.275   3.108  14.133  0.00  0.00    +0.000 OA
ATOM     19  N   UNL     1      46.954   4.418  15.951  0.00  0.00    +0.000 N 
ATOM     20  H   UNL     1      46.748   5.335  16.320  0.00  0.00    +0.000 HD
BRANCH  17  28
ATOM     21  C   UNL     1      44.299   5.117  12.672  0.00  0.00    +0.000 A 
ATOM     22  N   UNL     1      43.384   5.716  11.884  0.00  0.00    +0.000 NA
ATOM     23  C   UNL     1      43.708   6.888  11.331  0.00  0.00    +0.000 A 
ATOM     24  N   UNL     1      44.855   7.550  11.463  0.00  0.00    +0.000 NA
ATOM     25  C   UNL     1      45.732   6.923  12.268  0.00  0.00    +0.000 A 
ATOM     26  S   UNL     1      47.255   7.617  12.549  0.00  0.00    +0.000 S 
ATOM     27  C   UNL     1      47.705   6.335  13.571  0.00  0.00    +0.000 A 
ATOM     28  C   UNL     1      46.722   5.364  13.724  0.00  0.00    +0.000 A 
ATOM     29  C   UNL     1      45.546   5.713  12.928  0.00  0.00    +0.000 A 
BRANCH  21  31
ATOM     30  C   UNL     1      43.630   2.902  12.310  0.00  0.00    +0.000 C 
ATOM     31  O   UNL     1      43.966   3.914  13.254  0.00  0.00    +0.000 OA
ENDBRANCH  21  31
ENDBRANCH  17  28
ENDBRANCH   1  19
TORSDOF 8
ENDMDL
