MODEL 1
REMARK VINA RESULT:    -7.409      0.000      0.000
REMARK INTER + INTRA:          -9.729
REMARK INTER:                  -9.358
REMARK INTRA:                  -0.371
REMARK UNBOUND:                -0.371
REMARK  Name = 
REMARK  5 active torsions:
REMARK  status: ('A' for Active; 'I' for Inactive)
REMARK    1  A    between atoms: N_1  and  C_2
REMARK    2  A    between atoms: C_2  and  C_3
REMARK    3  A    between atoms: C_8  and  C_9
REMARK    4  A    between atoms: C_9  and  C_10
REMARK    5  A    between atoms: C_10  and  C_11
REMARK                            x       y       z     vdW  Elec       q    Type
REMARK                         _______ _______ _______ _____ _____    ______ ____
ROOT
ATOM      1  C   UNL     1      45.499   4.812   9.461  0.00  0.00    +0.000 C 
ENDROOT
BRANCH   1   7
ATOM      2  C   UNL     1      44.489   5.737  11.638  0.00  0.00    +0.000 A 
ATOM      3  C   UNL     1      43.745   5.457  12.800  0.00  0.00    +0.000 A 
ATOM      4  C   UNL     1      43.368   4.158  13.104  0.00  0.00    +0.000 A 
ATOM      5  C   UNL     1      43.747   3.160  12.230  0.00  0.00    +0.000 A 
ATOM      6  N   UNL     1      44.431   3.382  11.087  0.00  0.00    +0.000 NA
ATOM      7  C   UNL     1      44.781   4.661  10.782  0.00  0.00    +0.000 A 
BRANCH   2   8
ATOM      8  C   UNL     1      44.931   7.156  11.397  0.00  0.00    +0.000 C 
BRANCH   8   9
ATOM      9  N   UNL     1      43.793   8.009  11.058  0.00  0.00    +0.000 NA
ATOM     10  H   UNL     1      44.107   8.748  10.429  0.00  0.00    +0.000 HD
ATOM     11  H   UNL     1      43.468   8.480  11.901  0.00  0.00    +0.000 HD
ENDBRANCH   8   9
ENDBRANCH   2   8
ENDBRANCH   1   7
BRANCH   1  12
ATOM     12  C   UNL     1      44.860   3.969   8.358  0.00  0.00    +0.000 C 
BRANCH  12  13
ATOM     13  C   UNL     1      45.822   2.955   7.787  0.00  0.00    +0.000 A 
ATOM     14  C   UNL     1      45.930   1.692   8.338  0.00  0.00    +0.000 A 
ATOM     15  C   UNL     1      46.863   0.862   7.763  0.00  0.00    +0.000 A 
ATOM     16  N   UNL     1      47.639   1.223   6.726  0.00  0.00    +0.000 NA
ATOM     17  C   UNL     1      47.473   2.467   6.266  0.00  0.00    +0.000 A 
ATOM     18  N   UNL     1      48.258   2.856   5.201  0.00  0.00    +0.000 N 
ATOM     19  N   UNL     1      46.577   3.343   6.736  0.00  0.00    +0.000 NA
ATOM     20  H   UNL     1      48.573   2.040   4.698  0.00  0.00    +0.000 HD
ATOM     21  H   UNL     1      47.788   3.578   4.676  0.00  0.00    +0.000 HD
ENDBRANCH  12  13
ENDBRANCH   1  12
TORSDOF 5
ENDMDL
MODEL 2
REMARK VINA RESULT:    -7.349      1.245      2.382
REMARK INTER + INTRA:          -9.653
REMARK INTER:                  -9.336
REMARK INTRA:                  -0.317
REMARK UNBOUND:                -0.371
REMARK  Name = 
REMARK  5 active torsions:
REMARK  status: ('A' for Active; 'I' for Inactive)
REMARK    1  A    between atoms: N_1  and  C_2
REMARK    2  A    between atoms: C_2  and  C_3
REMARK    3  A    between atoms: C_8  and  C_9
REMARK    4  A    between atoms: C_9  and  C_10
REMARK    5  A    between atoms: C_10  and  C_11
REMARK                            x       y       z     vdW  Elec       q    Type
REMARK                         _______ _______ _______ _____ _____    ______ ____
ROOT
ATOM      1  C   UNL     1      44.339   4.103   9.720  0.00  0.00    +0.000 C 
ENDROOT
BRANCH   1   7
ATOM      2  C   UNL     1      44.514   4.708  12.214  0.00  0.00    +0.000 A 
ATOM      3  C   UNL     1      45.195   5.446  13.198  0.00  0.00    +0.000 A 
ATOM      4  C   UNL     1      46.189   6.349  12.847  0.00  0.00    +0.000 A 
ATOM      5  C   UNL     1      46.479   6.490  11.505  0.00  0.00    +0.000 A 
ATOM      6  N   UNL     1      45.876   5.781  10.527  0.00  0.00    +0.000 NA
ATOM      7  C   UNL     1      44.917   4.882  10.879  0.00  0.00    +0.000 A 
BRANCH   2   8
ATOM      8  C   UNL     1      43.396   3.798  12.649  0.00  0.00    +0.000 C 
BRANCH   8   9
ATOM      9  N   UNL     1      43.791   2.394  12.540  0.00  0.00    +0.000 NA
ATOM     10  H   UNL     1      44.773   2.344  12.273  0.00  0.00    +0.000 HD
ATOM     11  H   UNL     1      43.271   1.961  11.777  0.00  0.00    +0.000 HD
ENDBRANCH   8   9
ENDBRANCH   2   8
ENDBRANCH   1   7
BRANCH   1  12
ATOM     12  C   UNL     1      45.101   4.354   8.420  0.00  0.00    +0.000 C 
BRANCH  12  13
ATOM     13  C   UNL     1      45.853   3.129   7.956  0.00  0.00    +0.000 A 
ATOM     14  C   UNL     1      45.605   1.890   8.517  0.00  0.00    +0.000 A 
ATOM     15  C   UNL     1      46.372   0.851   8.046  0.00  0.00    +0.000 A 
ATOM     16  N   UNL     1      47.313   0.993   7.096  0.00  0.00    +0.000 NA
ATOM     17  C   UNL     1      47.490   2.229   6.618  0.00  0.00    +0.000 A 
ATOM     18  N   UNL     1      48.449   2.397   5.642  0.00  0.00    +0.000 N 
ATOM     19  N   UNL     1      46.780   3.302   6.989  0.00  0.00    +0.000 NA
ATOM     20  H   UNL     1      48.614   1.516   5.176  0.00  0.00    +0.000 HD
ATOM     21  H   UNL     1      48.217   3.193   5.068  0.00  0.00    +0.000 HD
ENDBRANCH  12  13
ENDBRANCH   1  12
TORSDOF 5
ENDMDL
MODEL 3
REMARK VINA RESULT:    -7.346      0.859      1.564
REMARK INTER + INTRA:          -9.649
REMARK INTER:                  -9.262
REMARK INTRA:                  -0.387
REMARK UNBOUND:                -0.371
REMARK  Name = 
REMARK  5 active torsions:
REMARK  status: ('A' for Active; 'I' for Inactive)
REMARK    1  A    between atoms: N_1  and  C_2
REMARK    2  A    between atoms: C_2  and  C_3
REMARK    3  A    between atoms: C_8  and  C_9
REMARK    4  A    between atoms: C_9  and  C_10
REMARK    5  A    between atoms: C_10  and  C_11
REMARK                            x       y       z     vdW  Elec       q    Type
REMARK                         _______ _______ _______ _____ _____    ______ ____
ROOT
ATOM      1  C   UNL     1      45.490   4.855   9.468  0.00  0.00    +0.000 C 
ENDROOT
BRANCH   1   7
ATOM      2  C   UNL     1      44.434   5.720  11.648  0.00  0.00    +0.000 A 
ATOM      3  C   UNL     1      43.698   5.401  12.804  0.00  0.00    +0.000 A 
ATOM      4  C   UNL     1      43.373   4.085  13.097  0.00  0.00    +0.000 A 
ATOM      5  C   UNL     1      43.796   3.110  12.216  0.00  0.00    +0.000 A 
ATOM      6  N   UNL     1      44.475   3.369  11.078  0.00  0.00    +0.000 NA
ATOM      7  C   UNL     1      44.774   4.664  10.785  0.00  0.00    +0.000 A 
BRANCH   2   8
ATOM      8  C   UNL     1      44.820   7.158  11.420  0.00  0.00    +0.000 C 
BRANCH   8   9
ATOM      9  N   UNL     1      43.648   7.967  11.085  0.00  0.00    +0.000 NA
ATOM     10  H   UNL     1      43.197   7.574  10.261  0.00  0.00    +0.000 HD
ATOM     11  H   UNL     1      43.956   8.901  10.816  0.00  0.00    +0.000 HD
ENDBRANCH   8   9
ENDBRANCH   2   8
ENDBRANCH   1   7
BRANCH   1  12
ATOM     12  C   UNL     1      44.952   3.927   8.380  0.00  0.00    +0.000 C 
BRANCH  12  13
ATOM     13  C   UNL     1      46.027   3.031   7.813  0.00  0.00    +0.000 A 
ATOM     14  C   UNL     1      47.047   3.549   7.037  0.00  0.00    +0.000 A 
ATOM     15  C   UNL     1      47.950   2.638   6.543  0.00  0.00    +0.000 A 
ATOM     16  N   UNL     1      47.878   1.317   6.781  0.00  0.00    +0.000 NA
ATOM     17  C   UNL     1      46.852   0.905   7.532  0.00  0.00    +0.000 A 
ATOM     18  N   UNL     1      46.761  -0.447   7.790  0.00  0.00    +0.000 N 
ATOM     19  N   UNL     1      45.935   1.710   8.083  0.00  0.00    +0.000 NA
ATOM     20  H   UNL     1      47.670  -0.872   7.685  0.00  0.00    +0.000 HD
ATOM     21  H   UNL     1      46.271  -0.597   8.658  0.00  0.00    +0.000 HD
ENDBRANCH  12  13
ENDBRANCH   1  12
TORSDOF 5
ENDMDL
MODEL 4
REMARK VINA RESULT:    -7.028      1.785      2.961
REMARK INTER + INTRA:          -9.247
REMARK INTER:                  -8.880
REMARK INTRA:                  -0.367
REMARK UNBOUND:                -0.371
REMARK  Name = 
REMARK  5 active torsions:
REMARK  status: ('A' for Active; 'I' for Inactive)
REMARK    1  A    between atoms: N_1  and  C_2
REMARK    2  A    between atoms: C_2  and  C_3
REMARK    3  A    between atoms: C_8  and  C_9
REMARK    4  A    between atoms: C_9  and  C_10
REMARK    5  A    between atoms: C_10  and  C_11
REMARK                            x       y       z     vdW  Elec       q    Type
REMARK                         _______ _______ _______ _____ _____    ______ ____
ROOT
ATOM      1  C   UNL     1      44.852   3.312  10.349  0.00  0.00    +0.000 C 
ENDROOT
BRANCH   1   7
ATOM      2  C   UNL     1      45.663   4.435  12.516  0.00  0.00    +0.000 A 
ATOM      3  C   UNL     1      45.846   5.641  13.216  0.00  0.00    +0.000 A 
ATOM      4  C   UNL     1      45.380   6.840  12.697  0.00  0.00    +0.000 A 
ATOM      5  C   UNL     1      44.738   6.802  11.476  0.00  0.00    +0.000 A 
ATOM      6  N   UNL     1      44.568   5.676  10.751  0.00  0.00    +0.000 NA
ATOM      7  C   UNL     1      45.045   4.505  11.256  0.00  0.00    +0.000 A 
BRANCH   2   8
ATOM      8  C   UNL     1      46.126   3.156  13.162  0.00  0.00    +0.000 C 
BRANCH   8   9
ATOM      9  N   UNL     1      47.279   3.394  14.030  0.00  0.00    +0.000 NA
ATOM     10  H   UNL     1      48.097   3.582  13.453  0.00  0.00    +0.000 HD
ATOM     11  H   UNL     1      47.490   2.540  14.545  0.00  0.00    +0.000 HD
ENDBRANCH   8   9
ENDBRANCH   2   8
ENDBRANCH   1   7
BRANCH   1  12
ATOM     12  C   UNL     1      44.920   3.694   8.871  0.00  0.00    +0.000 C 
BRANCH  12  13
ATOM     13  C   UNL     1      45.948   2.882   8.120  0.00  0.00    +0.000 A 
ATOM     14  C   UNL     1      46.851   3.492   7.270  0.00  0.00    +0.000 A 
ATOM     15  C   UNL     1      47.718   2.654   6.609  0.00  0.00    +0.000 A 
ATOM     16  N   UNL     1      47.716   1.318   6.758  0.00  0.00    +0.000 NA
ATOM     17  C   UNL     1      46.801   0.815   7.592  0.00  0.00    +0.000 A 
ATOM     18  N   UNL     1      46.783  -0.554   7.759  0.00  0.00    +0.000 N 
ATOM     19  N   UNL     1      45.931   1.543   8.302  0.00  0.00    +0.000 NA
ATOM     20  H   UNL     1      47.687  -0.934   7.519  0.00  0.00    +0.000 HD
ATOM     21  H   UNL     1      46.406  -0.782   8.666  0.00  0.00    +0.000 HD
ENDBRANCH  12  13
ENDBRANCH   1  12
TORSDOF 5
ENDMDL
MODEL 5
REMARK VINA RESULT:    -6.799      2.697      5.993
REMARK INTER + INTRA:          -8.959
REMARK INTER:                  -8.103
REMARK INTRA:                  -0.856
REMARK UNBOUND:                -0.371
REMARK  Name = 
REMARK  5 active torsions:
REMARK  status: ('A' for Active; 'I' for Inactive)
REMARK    1  A    between atoms: N_1  and  C_2
REMARK    2  A    between atoms: C_2  and  C_3
REMARK    3  A    between atoms: C_8  and  C_9
REMARK    4  A    between atoms: C_9  and  C_10
REMARK    5  A    between atoms: C_10  and  C_11
REMARK                            x       y       z     vdW  Elec       q    Type
REMARK                         _______ _______ _______ _____ _____    ______ ____
ROOT
ATOM      1  C   UNL     1      44.690   5.758  10.864  0.00  0.00    +0.000 C 
ENDROOT
BRANCH   1   7
ATOM      2  C   UNL     1      44.422   3.290  10.191  0.00  0.00    +0.000 A 
ATOM      3  C   UNL     1      44.657   2.307   9.211  0.00  0.00    +0.000 A 
ATOM      4  C   UNL     1      45.406   2.598   8.081  0.00  0.00    +0.000 A 
ATOM      5  C   UNL     1      45.907   3.878   7.957  0.00  0.00    +0.000 A 
ATOM      6  N   UNL     1      45.681   4.863   8.852  0.00  0.00    +0.000 NA
ATOM      7  C   UNL     1      44.927   4.579   9.949  0.00  0.00    +0.000 A 
BRANCH   2   8
ATOM      8  C   UNL     1      43.662   2.896  11.430  0.00  0.00    +0.000 C 
BRANCH   8   9
ATOM      9  N   UNL     1      44.576   2.598  12.532  0.00  0.00    +0.000 NA
ATOM     10  H   UNL     1      44.105   2.788  13.416  0.00  0.00    +0.000 HD
ATOM     11  H   UNL     1      45.366   3.241  12.492  0.00  0.00    +0.000 HD
ENDBRANCH   8   9
ENDBRANCH   2   8
ENDBRANCH   1   7
BRANCH   1  12
ATOM     12  C   UNL     1      45.942   6.618  11.032  0.00  0.00    +0.000 C 
BRANCH  12  13
ATOM     13  C   UNL     1      46.677   6.310  12.314  0.00  0.00    +0.000 A 
ATOM     14  C   UNL     1      47.643   7.169  12.802  0.00  0.00    +0.000 A 
ATOM     15  C   UNL     1      48.275   6.772  13.957  0.00  0.00    +0.000 A 
ATOM     16  N   UNL     1      47.995   5.625  14.599  0.00  0.00    +0.000 NA
ATOM     17  C   UNL     1      47.055   4.852  14.049  0.00  0.00    +0.000 A 
ATOM     18  N   UNL     1      46.751   3.671  14.694  0.00  0.00    +0.000 N 
ATOM     19  N   UNL     1      46.362   5.157  12.945  0.00  0.00    +0.000 NA
ATOM     20  H   UNL     1      47.014   3.741  15.666  0.00  0.00    +0.000 HD
ATOM     21  H   UNL     1      45.803   3.401  14.483  0.00  0.00    +0.000 HD
ENDBRANCH  12  13
ENDBRANCH   1  12
TORSDOF 5
ENDMDL
MODEL 6
REMARK VINA RESULT:    -6.658      2.062      3.316
REMARK INTER + INTRA:          -8.780
REMARK INTER:                  -8.265
REMARK INTRA:                  -0.515
REMARK UNBOUND:                -0.371
REMARK  Name = 
REMARK  5 active torsions:
REMARK  status: ('A' for Active; 'I' for Inactive)
REMARK    1  A    between atoms: N_1  and  C_2
REMARK    2  A    between atoms: C_2  and  C_3
REMARK    3  A    between atoms: C_8  and  C_9
REMARK    4  A    between atoms: C_9  and  C_10
REMARK    5  A    between atoms: C_10  and  C_11
REMARK                            x       y       z     vdW  Elec       q    Type
REMARK                         _______ _______ _______ _____ _____    ______ ____
ROOT
ATOM      1  C   UNL     1      43.931   4.582  11.647  0.00  0.00    +0.000 C 
ENDROOT
BRANCH   1   7
ATOM      2  C   UNL     1      46.142   4.939  12.913  0.00  0.00    +0.000 A 
ATOM      3  C   UNL     1      47.100   5.864  13.365  0.00  0.00    +0.000 A 
ATOM      4  C   UNL     1      46.895   7.228  13.214  0.00  0.00    +0.000 A 
ATOM      5  C   UNL     1      45.726   7.636  12.606  0.00  0.00    +0.000 A 
ATOM      6  N   UNL     1      44.792   6.786  12.127  0.00  0.00    +0.000 NA
ATOM      7  C   UNL     1      45.007   5.449  12.259  0.00  0.00    +0.000 A 
BRANCH   2   8
ATOM      8  C   UNL     1      46.385   3.475  13.170  0.00  0.00    +0.000 C 
BRANCH   8   9
ATOM      9  N   UNL     1      47.364   3.286  14.240  0.00  0.00    +0.000 NA
ATOM     10  H   UNL     1      46.873   3.180  15.126  0.00  0.00    +0.000 HD
ATOM     11  H   UNL     1      47.924   4.133  14.331  0.00  0.00    +0.000 HD
ENDBRANCH   8   9
ENDBRANCH   2   8
ENDBRANCH   1   7
BRANCH   1  12
ATOM     12  C   UNL     1      43.783   4.821  10.145  0.00  0.00    +0.000 C 
BRANCH  12  13
ATOM     13  C   UNL     1      44.622   3.865   9.331  0.00  0.00    +0.000 A 
ATOM     14  C   UNL     1      44.585   2.505   9.574  0.00  0.00    +0.000 A 
ATOM     15  C   UNL     1      45.416   1.731   8.799  0.00  0.00    +0.000 A 
ATOM     16  N   UNL     1      46.228   2.233   7.852  0.00  0.00    +0.000 NA
ATOM     17  C   UNL     1      46.206   3.560   7.695  0.00  0.00    +0.000 A 
ATOM     18  N   UNL     1      47.030   4.095   6.727  0.00  0.00    +0.000 N 
ATOM     19  N   UNL     1      45.416   4.398   8.377  0.00  0.00    +0.000 NA
ATOM     20  H   UNL     1      47.249   3.387   6.042  0.00  0.00    +0.000 HD
ATOM     21  H   UNL     1      46.646   4.966   6.394  0.00  0.00    +0.000 HD
ENDBRANCH  12  13
ENDBRANCH   1  12
TORSDOF 5
ENDMDL
MODEL 7
REMARK VINA RESULT:    -6.319      1.835      5.821
REMARK INTER + INTRA:          -8.352
REMARK INTER:                  -7.625
REMARK INTRA:                  -0.726
REMARK UNBOUND:                -0.371
REMARK  Name = 
REMARK  5 active torsions:
REMARK  status: ('A' for Active; 'I' for Inactive)
REMARK    1  A    between atoms: N_1  and  C_2
REMARK    2  A    between atoms: C_2  and  C_3
REMARK    3  A    between atoms: C_8  and  C_9
REMARK    4  A    between atoms: C_9  and  C_10
REMARK    5  A    between atoms: C_10  and  C_11
REMARK                            x       y       z     vdW  Elec       q    Type
REMARK                         _______ _______ _______ _____ _____    ______ ____
ROOT
ATOM      1  C   UNL     1      44.378   2.131   9.608  0.00  0.00    +0.000 C 
ENDROOT
BRANCH   1   7
ATOM      2  C   UNL     1      45.958   3.177   7.868  0.00  0.00    +0.000 A 
ATOM      3  C   UNL     1      47.052   2.978   7.006  0.00  0.00    +0.000 A 
ATOM      4  C   UNL     1      47.604   1.717   6.840  0.00  0.00    +0.000 A 
ATOM      5  C   UNL     1      47.042   0.674   7.548  0.00  0.00    +0.000 A 
ATOM      6  N   UNL     1      46.013   0.819   8.411  0.00  0.00    +0.000 NA
ATOM      7  C   UNL     1      45.489   2.063   8.586  0.00  0.00    +0.000 A 
BRANCH   2   8
ATOM      8  C   UNL     1      45.356   4.555   7.953  0.00  0.00    +0.000 C 
BRANCH   8   9
ATOM      9  N   UNL     1      46.174   5.433   8.790  0.00  0.00    +0.000 NA
ATOM     10  H   UNL     1      45.736   5.522   9.706  0.00  0.00    +0.000 HD
ATOM     11  H   UNL     1      46.173   6.370   8.387  0.00  0.00    +0.000 HD
ENDBRANCH   8   9
ENDBRANCH   2   8
ENDBRANCH   1   7
BRANCH   1  12
ATOM     12  C   UNL     1      44.884   2.567  10.982  0.00  0.00    +0.000 C 
BRANCH  12  13
ATOM     13  C   UNL     1      44.488   3.986  11.311  0.00  0.00    +0.000 A 
ATOM     14  C   UNL     1      43.223   4.457  11.013  0.00  0.00    +0.000 A 
ATOM     15  C   UNL     1      42.982   5.775  11.322  0.00  0.00    +0.000 A 
ATOM     16  N   UNL     1      43.897   6.585  11.883  0.00  0.00    +0.000 NA
ATOM     17  C   UNL     1      45.096   6.047  12.126  0.00  0.00    +0.000 A 
ATOM     18  N   UNL     1      46.049   6.861  12.702  0.00  0.00    +0.000 N 
ATOM     19  N   UNL     1      45.424   4.771  11.888  0.00  0.00    +0.000 NA
ATOM     20  H   UNL     1      45.594   7.621  13.186  0.00  0.00    +0.000 HD
ATOM     21  H   UNL     1      46.707   6.302  13.222  0.00  0.00    +0.000 HD
ENDBRANCH  12  13
ENDBRANCH   1  12
TORSDOF 5
ENDMDL
MODEL 8
REMARK VINA RESULT:    -5.965      1.525      6.756
REMARK INTER + INTRA:          -7.905
REMARK INTER:                  -7.561
REMARK INTRA:                  -0.344
REMARK UNBOUND:                -0.371
REMARK  Name = 
REMARK  5 active torsions:
REMARK  status: ('A' for Active; 'I' for Inactive)
REMARK    1  A    between atoms: N_1  and  C_2
REMARK    2  A    between atoms: C_2  and  C_3
REMARK    3  A    between atoms: C_8  and  C_9
REMARK    4  A    between atoms: C_9  and  C_10
REMARK    5  A    between atoms: C_10  and  C_11
REMARK                            x       y       z     vdW  Elec       q    Type
REMARK                         _______ _______ _______ _____ _____    ______ ____
ROOT
ATOM      1  C   UNL     1      45.254   3.384   8.801  0.00  0.00    +0.000 C 
ENDROOT
BRANCH   1   7
ATOM      2  C   UNL     1      46.528   1.688   7.345  0.00  0.00    +0.000 A 
ATOM      3  C   UNL     1      47.260   1.470   6.164  0.00  0.00    +0.000 A 
ATOM      4  C   UNL     1      47.600   2.530   5.335  0.00  0.00    +0.000 A 
ATOM      5  C   UNL     1      47.193   3.793   5.713  0.00  0.00    +0.000 A 
ATOM      6  N   UNL     1      46.462   4.049   6.819  0.00  0.00    +0.000 NA
ATOM      7  C   UNL     1      46.113   3.003   7.617  0.00  0.00    +0.000 A 
BRANCH   2   8
ATOM      8  C   UNL     1      46.251   0.510   8.241  0.00  0.00    +0.000 C 
BRANCH   8   9
ATOM      9  N   UNL     1      46.800  -0.721   7.674  0.00  0.00    +0.000 NA
ATOM     10  H   UNL     1      47.636  -0.496   7.136  0.00  0.00    +0.000 HD
ATOM     11  H   UNL     1      46.133  -1.106   7.006  0.00  0.00    +0.000 HD
ENDBRANCH   8   9
ENDBRANCH   2   8
ENDBRANCH   1   7
BRANCH   1  12
ATOM     12  C   UNL     1      45.360   4.871   9.136  0.00  0.00    +0.000 C 
BRANCH  12  13
ATOM     13  C   UNL     1      45.202   5.134  10.614  0.00  0.00    +0.000 A 
ATOM     14  C   UNL     1      45.825   6.213  11.213  0.00  0.00    +0.000 A 
ATOM     15  C   UNL     1      45.643   6.336  12.570  0.00  0.00    +0.000 A 
ATOM     16  N   UNL     1      44.911   5.479  13.302  0.00  0.00    +0.000 NA
ATOM     17  C   UNL     1      44.355   4.459  12.641  0.00  0.00    +0.000 A 
ATOM     18  N   UNL     1      43.599   3.569  13.373  0.00  0.00    +0.000 N 
ATOM     19  N   UNL     1      44.448   4.263  11.320  0.00  0.00    +0.000 NA
ATOM     20  H   UNL     1      43.276   4.016  14.218  0.00  0.00    +0.000 HD
ATOM     21  H   UNL     1      42.908   3.138  12.778  0.00  0.00    +0.000 HD
ENDBRANCH  12  13
ENDBRANCH   1  12
TORSDOF 5
ENDMDL
MODEL 9
REMARK VINA RESULT:    -5.759      4.718      6.833
REMARK INTER + INTRA:          -7.644
REMARK INTER:                  -7.438
REMARK INTRA:                  -0.207
REMARK UNBOUND:                -0.371
REMARK  Name = 
REMARK  5 active torsions:
REMARK  status: ('A' for Active; 'I' for Inactive)
REMARK    1  A    between atoms: N_1  and  C_2
REMARK    2  A    between atoms: C_2  and  C_3
REMARK    3  A    between atoms: C_8  and  C_9
REMARK    4  A    between atoms: C_9  and  C_10
REMARK    5  A    between atoms: C_10  and  C_11
REMARK                            x       y       z     vdW  Elec       q    Type
REMARK                         _______ _______ _______ _____ _____    ______ ____
ROOT
ATOM      1  C   UNL     1      46.661   4.314  14.709  0.00  0.00    +0.000 C 
ENDROOT
BRANCH   1   7
ATOM      2  C   UNL     1      48.378   4.194  16.621  0.00  0.00    +0.000 A 
ATOM      3  C   UNL     1      49.477   4.804  17.252  0.00  0.00    +0.000 A 
ATOM      4  C   UNL     1      49.923   6.054  16.849  0.00  0.00    +0.000 A 
ATOM      5  C   UNL     1      49.252   6.668  15.811  0.00  0.00    +0.000 A 
ATOM      6  N   UNL     1      48.214   6.110  15.152  0.00  0.00    +0.000 NA
ATOM      7  C   UNL     1      47.794   4.874  15.539  0.00  0.00    +0.000 A 
BRANCH   2   8
ATOM      8  C   UNL     1      47.894   2.869  17.149  0.00  0.00    +0.000 C 
BRANCH   8   9
ATOM      9  N   UNL     1      46.579   3.003  17.776  0.00  0.00    +0.000 NA
ATOM     10  H   UNL     1      46.418   3.983  18.005  0.00  0.00    +0.000 HD
ATOM     11  H   UNL     1      46.583   2.505  18.665  0.00  0.00    +0.000 HD
ENDBRANCH   8   9
ENDBRANCH   2   8
ENDBRANCH   1   7
BRANCH   1  12
ATOM     12  C   UNL     1      46.464   5.089  13.406  0.00  0.00    +0.000 C 
BRANCH  12  13
ATOM     13  C   UNL     1      45.218   4.656  12.670  0.00  0.00    +0.000 A 
ATOM     14  C   UNL     1      45.126   3.393  12.115  0.00  0.00    +0.000 A 
ATOM     15  C   UNL     1      43.963   3.117  11.436  0.00  0.00    +0.000 A 
ATOM     16  N   UNL     1      42.955   3.997  11.301  0.00  0.00    +0.000 NA
ATOM     17  C   UNL     1      43.138   5.197  11.861  0.00  0.00    +0.000 A 
ATOM     18  N   UNL     1      42.115   6.114  11.735  0.00  0.00    +0.000 N 
ATOM     19  N   UNL     1      44.218   5.557  12.565  0.00  0.00    +0.000 NA
ATOM     20  H   UNL     1      41.247   5.629  11.563  0.00  0.00    +0.000 HD
ATOM     21  H   UNL     1      42.143   6.764  12.505  0.00  0.00    +0.000 HD
ENDBRANCH  12  13
ENDBRANCH   1  12
TORSDOF 5
ENDMDL
