MODEL 1
REMARK VINA RESULT:    -8.577      0.000      0.000
REMARK INTER + INTRA:         -12.994
REMARK INTER:                 -12.087
REMARK INTRA:                  -0.907
REMARK UNBOUND:                -0.907
REMARK  Name = 
REMARK  9 active torsions:
REMARK  status: ('A' for Active; 'I' for Inactive)
REMARK    1  A    between atoms: C_1  and  C_2
REMARK    2  A    between atoms: C_2  and  C_3
REMARK    3  A    between atoms: C_5  and  O_6
REMARK    4  A    between atoms: O_6  and  C_7
REMARK    5  A    between atoms: C_11  and  C_12
REMARK    6  A    between atoms: C_12  and  C_13
REMARK    7  A    between atoms: C_13  and  N_14
REMARK    8  A    between atoms: N_14  and  C_15
REMARK    9  A    between atoms: C_18  and  C_19
REMARK                            x       y       z     vdW  Elec       q    Type
REMARK                         _______ _______ _______ _____ _____    ______ ____
ROOT
ATOM      1  C   UNL     1      43.346   4.375  11.258  0.00  0.00    +0.000 C 
ENDROOT
BRANCH   1   2
ATOM      2  N   UNL     1      43.695   4.789   9.893  0.00  0.00    +0.000 N 
ATOM      3  H   UNL     1      44.010   5.756   9.845  0.00  0.00    +0.000 HD
BRANCH   2   4
ATOM      4  C   UNL     1      44.553   3.931   9.177  0.00  0.00    +0.000 A 
ATOM      5  C   UNL     1      45.534   4.396   8.295  0.00  0.00    +0.000 A 
ATOM      6  C   UNL     1      46.402   3.511   7.656  0.00  0.00    +0.000 A 
ATOM      7  C   UNL     1      46.291   2.157   7.940  0.00  0.00    +0.000 A 
ATOM      8  N   UNL     1      45.388   1.646   8.819  0.00  0.00    +0.000 NA
ATOM      9  C   UNL     1      44.565   2.550   9.420  0.00  0.00    +0.000 A 
BRANCH   7  10
ATOM     10  C   UNL     1      47.217   1.196   7.266  0.00  0.00    +0.000 C 
ATOM     11  N   UNL     1      48.266   1.754   6.594  0.00  0.00    +0.000 N 
ATOM     12  O   UNL     1      47.059  -0.019   7.315  0.00  0.00    +0.000 OA
ATOM     13  H   UNL     1      48.355   2.763   6.559  0.00  0.00    +0.000 HD
ATOM     14  H   UNL     1      48.918   1.165   6.098  0.00  0.00    +0.000 HD
ENDBRANCH   7  10
ENDBRANCH   2   4
ENDBRANCH   1   2
BRANCH   1  15
ATOM     15  C   UNL     1      43.549   5.508  12.277  0.00  0.00    +0.000 C 
BRANCH  15  20
ATOM     16  C   UNL     1      46.858   4.661  14.015  0.00  0.00    +0.000 A 
ATOM     17  C   UNL     1      47.713   5.601  13.438  0.00  0.00    +0.000 A 
ATOM     18  C   UNL     1      47.210   6.546  12.545  0.00  0.00    +0.000 A 
ATOM     19  C   UNL     1      45.859   6.538  12.204  0.00  0.00    +0.000 A 
ATOM     20  C   UNL     1      44.993   5.570  12.734  0.00  0.00    +0.000 A 
ATOM     21  C   UNL     1      45.506   4.638  13.654  0.00  0.00    +0.000 A 
BRANCH  16  22
ATOM     22  O   UNL     1      47.274   3.700  14.909  0.00  0.00    +0.000 OA
BRANCH  22  27
ATOM     23  C   UNL     1      49.158   2.075  16.462  0.00  0.00    +0.000 C 
ATOM     24  C   UNL     1      48.610   3.358  17.038  0.00  0.00    +0.000 C 
ATOM     25  C   UNL     1      49.585   4.122  17.897  0.00  0.00    +0.000 C 
ATOM     26  C   UNL     1      47.139   3.392  17.386  0.00  0.00    +0.000 C 
ATOM     27  C   UNL     1      47.640   4.196  16.216  0.00  0.00    +0.000 C 
ENDBRANCH  22  27
ENDBRANCH  16  22
ENDBRANCH  15  20
ENDBRANCH   1  15
TORSDOF 7
ENDMDL
MODEL 2
REMARK VINA RESULT:    -7.775      2.112      3.801
REMARK INTER + INTRA:         -11.863
REMARK INTER:                 -10.869
REMARK INTRA:                  -0.993
REMARK UNBOUND:                -0.907
REMARK  Name = 
REMARK  9 active torsions:
REMARK  status: ('A' for Active; 'I' for Inactive)
REMARK    1  A    between atoms: C_1  and  C_2
REMARK    2  A    between atoms: C_2  and  C_3
REMARK    3  A    between atoms: C_5  and  O_6
REMARK    4  A    between atoms: O_6  and  C_7
REMARK    5  A    between atoms: C_11  and  C_12
REMARK    6  A    between atoms: C_12  and  C_13
REMARK    7  A    between atoms: C_13  and  N_14
REMARK    8  A    between atoms: N_14  and  C_15
REMARK    9  A    between atoms: C_18  and  C_19
REMARK                            x       y       z     vdW  Elec       q    Type
REMARK                         _______ _______ _______ _____ _____    ______ ____
ROOT
ATOM      1  C   UNL     1      43.353   4.401  11.348  0.00  0.00    +0.000 C 
ENDROOT
BRANCH   1   2
ATOM      2  N   UNL     1      43.731   4.788   9.983  0.00  0.00    +0.000 N 
ATOM      3  H   UNL     1      44.020   5.762   9.918  0.00  0.00    +0.000 HD
BRANCH   2   4
ATOM      4  C   UNL     1      44.635   3.936   9.317  0.00  0.00    +0.000 A 
ATOM      5  C   UNL     1      44.570   2.541   9.401  0.00  0.00    +0.000 A 
ATOM      6  C   UNL     1      45.448   1.737   8.674  0.00  0.00    +0.000 A 
ATOM      7  C   UNL     1      46.369   2.353   7.840  0.00  0.00    +0.000 A 
ATOM      8  N   UNL     1      46.455   3.701   7.682  0.00  0.00    +0.000 NA
ATOM      9  C   UNL     1      45.575   4.443   8.409  0.00  0.00    +0.000 A 
BRANCH   7  10
ATOM     10  C   UNL     1      47.316   1.505   7.051  0.00  0.00    +0.000 C 
ATOM     11  N   UNL     1      48.439   2.134   6.598  0.00  0.00    +0.000 N 
ATOM     12  O   UNL     1      47.110   0.317   6.828  0.00  0.00    +0.000 OA
ATOM     13  H   UNL     1      48.568   3.122   6.786  0.00  0.00    +0.000 HD
ATOM     14  H   UNL     1      49.111   1.628   6.040  0.00  0.00    +0.000 HD
ENDBRANCH   7  10
ENDBRANCH   2   4
ENDBRANCH   1   2
BRANCH   1  15
ATOM     15  C   UNL     1      43.529   5.556  12.347  0.00  0.00    +0.000 C 
BRANCH  15  20
ATOM     16  C   UNL     1      47.018   6.910  13.173  0.00  0.00    +0.000 A 
ATOM     17  C   UNL     1      47.568   5.831  13.866  0.00  0.00    +0.000 A 
ATOM     18  C   UNL     1      46.842   4.649  14.008  0.00  0.00    +0.000 A 
ATOM     19  C   UNL     1      45.555   4.550  13.482  0.00  0.00    +0.000 A 
ATOM     20  C   UNL     1      44.965   5.641  12.825  0.00  0.00    +0.000 A 
ATOM     21  C   UNL     1      45.717   6.818  12.665  0.00  0.00    +0.000 A 
BRANCH  16  22
ATOM     22  O   UNL     1      47.672   8.107  12.985  0.00  0.00    +0.000 OA
BRANCH  22  27
ATOM     23  C   UNL     1      50.559   8.400  13.406  0.00  0.00    +0.000 C 
ATOM     24  C   UNL     1      50.001   8.335  12.005  0.00  0.00    +0.000 C 
ATOM     25  C   UNL     1      50.886   7.624  11.013  0.00  0.00    +0.000 C 
ATOM     26  C   UNL     1      49.159   9.501  11.538  0.00  0.00    +0.000 C 
ATOM     27  C   UNL     1      48.500   8.174  11.802  0.00  0.00    +0.000 C 
ENDBRANCH  22  27
ENDBRANCH  16  22
ENDBRANCH  15  20
ENDBRANCH   1  15
TORSDOF 7
ENDMDL
MODEL 3
REMARK VINA RESULT:    -7.077      2.930      7.684
REMARK INTER + INTRA:         -10.879
REMARK INTER:                 -10.390
REMARK INTRA:                  -0.489
REMARK UNBOUND:                -0.907
REMARK  Name = 
REMARK  9 active torsions:
REMARK  status: ('A' for Active; 'I' for Inactive)
REMARK    1  A    between atoms: C_1  and  C_2
REMARK    2  A    between atoms: C_2  and  C_3
REMARK    3  A    between atoms: C_5  and  O_6
REMARK    4  A    between atoms: O_6  and  C_7
REMARK    5  A    between atoms: C_11  and  C_12
REMARK    6  A    between atoms: C_12  and  C_13
REMARK    7  A    between atoms: C_13  and  N_14
REMARK    8  A    between atoms: N_14  and  C_15
REMARK    9  A    between atoms: C_18  and  C_19
REMARK                            x       y       z     vdW  Elec       q    Type
REMARK                         _______ _______ _______ _____ _____    ______ ____
ROOT
ATOM      1  C   UNL     1      45.916   7.148  12.566  0.00  0.00    +0.000 C 
ENDROOT
BRANCH   1   2
ATOM      2  N   UNL     1      47.273   6.650  12.824  0.00  0.00    +0.000 N 
ATOM      3  H   UNL     1      47.972   7.390  12.802  0.00  0.00    +0.000 HD
BRANCH   2   4
ATOM      4  C   UNL     1      47.433   5.821  13.952  0.00  0.00    +0.000 A 
ATOM      5  C   UNL     1      48.206   6.183  15.060  0.00  0.00    +0.000 A 
ATOM      6  C   UNL     1      48.285   5.356  16.181  0.00  0.00    +0.000 A 
ATOM      7  C   UNL     1      47.553   4.177  16.184  0.00  0.00    +0.000 A 
ATOM      8  N   UNL     1      46.750   3.790  15.157  0.00  0.00    +0.000 NA
ATOM      9  C   UNL     1      46.704   4.631  14.087  0.00  0.00    +0.000 A 
BRANCH   7  10
ATOM     10  C   UNL     1      47.624   3.281  17.379  0.00  0.00    +0.000 C 
ATOM     11  N   UNL     1      48.780   3.349  18.103  0.00  0.00    +0.000 N 
ATOM     12  O   UNL     1      46.706   2.537  17.703  0.00  0.00    +0.000 OA
ATOM     13  H   UNL     1      49.526   3.963  17.795  0.00  0.00    +0.000 HD
ATOM     14  H   UNL     1      48.905   2.756  18.910  0.00  0.00    +0.000 HD
ENDBRANCH   7  10
ENDBRANCH   2   4
ENDBRANCH   1   2
BRANCH   1  15
ATOM     15  C   UNL     1      45.494   6.949  11.102  0.00  0.00    +0.000 C 
BRANCH  15  20
ATOM     16  C   UNL     1      44.842   3.408   9.787  0.00  0.00    +0.000 A 
ATOM     17  C   UNL     1      43.835   2.982  10.653  0.00  0.00    +0.000 A 
ATOM     18  C   UNL     1      43.322   3.854  11.612  0.00  0.00    +0.000 A 
ATOM     19  C   UNL     1      43.832   5.146  11.727  0.00  0.00    +0.000 A 
ATOM     20  C   UNL     1      44.879   5.578  10.899  0.00  0.00    +0.000 A 
ATOM     21  C   UNL     1      45.370   4.698   9.918  0.00  0.00    +0.000 A 
BRANCH  16  22
ATOM     22  O   UNL     1      45.396   2.611   8.811  0.00  0.00    +0.000 OA
BRANCH  22  27
ATOM     23  C   UNL     1      47.590   1.539   7.186  0.00  0.00    +0.000 C 
ATOM     24  C   UNL     1      46.805   2.735   6.705  0.00  0.00    +0.000 C 
ATOM     25  C   UNL     1      46.606   2.790   5.212  0.00  0.00    +0.000 C 
ATOM     26  C   UNL     1      46.964   4.026   7.474  0.00  0.00    +0.000 C 
ATOM     27  C   UNL     1      45.663   3.275   7.555  0.00  0.00    +0.000 C 
ENDBRANCH  22  27
ENDBRANCH  16  22
ENDBRANCH  15  20
ENDBRANCH   1  15
TORSDOF 7
ENDMDL
MODEL 4
REMARK VINA RESULT:    -6.949      1.685      2.201
REMARK INTER + INTRA:         -10.699
REMARK INTER:                 -10.317
REMARK INTRA:                  -0.381
REMARK UNBOUND:                -0.907
REMARK  Name = 
REMARK  9 active torsions:
REMARK  status: ('A' for Active; 'I' for Inactive)
REMARK    1  A    between atoms: C_1  and  C_2
REMARK    2  A    between atoms: C_2  and  C_3
REMARK    3  A    between atoms: C_5  and  O_6
REMARK    4  A    between atoms: O_6  and  C_7
REMARK    5  A    between atoms: C_11  and  C_12
REMARK    6  A    between atoms: C_12  and  C_13
REMARK    7  A    between atoms: C_13  and  N_14
REMARK    8  A    between atoms: N_14  and  C_15
REMARK    9  A    between atoms: C_18  and  C_19
REMARK                            x       y       z     vdW  Elec       q    Type
REMARK                         _______ _______ _______ _____ _____    ______ ____
ROOT
ATOM      1  C   UNL     1      43.318   4.653  10.892  0.00  0.00    +0.000 C 
ENDROOT
BRANCH   1   2
ATOM      2  N   UNL     1      44.288   5.121   9.895  0.00  0.00    +0.000 N 
ATOM      3  H   UNL     1      44.929   5.818  10.269  0.00  0.00    +0.000 HD
BRANCH   2   4
ATOM      4  C   UNL     1      44.974   4.124   9.172  0.00  0.00    +0.000 A 
ATOM      5  C   UNL     1      45.840   4.411   8.112  0.00  0.00    +0.000 A 
ATOM      6  C   UNL     1      46.545   3.396   7.466  0.00  0.00    +0.000 A 
ATOM      7  C   UNL     1      46.392   2.094   7.920  0.00  0.00    +0.000 A 
ATOM      8  N   UNL     1      45.599   1.755   8.972  0.00  0.00    +0.000 NA
ATOM      9  C   UNL     1      44.935   2.781   9.571  0.00  0.00    +0.000 A 
BRANCH   7  10
ATOM     10  C   UNL     1      47.144   0.994   7.241  0.00  0.00    +0.000 C 
ATOM     11  N   UNL     1      46.843  -0.272   7.652  0.00  0.00    +0.000 N 
ATOM     12  O   UNL     1      47.972   1.204   6.363  0.00  0.00    +0.000 OA
ATOM     13  H   UNL     1      46.165  -0.407   8.395  0.00  0.00    +0.000 HD
ATOM     14  H   UNL     1      47.327  -1.062   7.252  0.00  0.00    +0.000 HD
ENDBRANCH   7  10
ENDBRANCH   2   4
ENDBRANCH   1   2
BRANCH   1  15
ATOM     15  C   UNL     1      43.192   5.624  12.077  0.00  0.00    +0.000 C 
BRANCH  15  20
ATOM     16  C   UNL     1      46.721   6.581  13.226  0.00  0.00    +0.000 A 
ATOM     17  C   UNL     1      46.924   7.762  12.512  0.00  0.00    +0.000 A 
ATOM     18  C   UNL     1      45.903   8.283  11.718  0.00  0.00    +0.000 A 
ATOM     19  C   UNL     1      44.687   7.611  11.612  0.00  0.00    +0.000 A 
ATOM     20  C   UNL     1      44.481   6.396  12.282  0.00  0.00    +0.000 A 
ATOM     21  C   UNL     1      45.507   5.894  13.100  0.00  0.00    +0.000 A 
BRANCH  16  22
ATOM     22  O   UNL     1      47.675   6.005  14.035  0.00  0.00    +0.000 OA
BRANCH  22  27
ATOM     23  C   UNL     1      48.800   5.618  16.716  0.00  0.00    +0.000 C 
ATOM     24  C   UNL     1      49.348   6.696  15.813  0.00  0.00    +0.000 C 
ATOM     25  C   UNL     1      50.832   6.923  15.943  0.00  0.00    +0.000 C 
ATOM     26  C   UNL     1      48.448   7.872  15.508  0.00  0.00    +0.000 C 
ATOM     27  C   UNL     1      48.760   6.879  14.420  0.00  0.00    +0.000 C 
ENDBRANCH  22  27
ENDBRANCH  16  22
ENDBRANCH  15  20
ENDBRANCH   1  15
TORSDOF 7
ENDMDL
MODEL 5
REMARK VINA RESULT:    -6.689      1.806      2.407
REMARK INTER + INTRA:         -10.332
REMARK INTER:                  -9.570
REMARK INTRA:                  -0.762
REMARK UNBOUND:                -0.907
REMARK  Name = 
REMARK  9 active torsions:
REMARK  status: ('A' for Active; 'I' for Inactive)
REMARK    1  A    between atoms: C_1  and  C_2
REMARK    2  A    between atoms: C_2  and  C_3
REMARK    3  A    between atoms: C_5  and  O_6
REMARK    4  A    between atoms: O_6  and  C_7
REMARK    5  A    between atoms: C_11  and  C_12
REMARK    6  A    between atoms: C_12  and  C_13
REMARK    7  A    between atoms: C_13  and  N_14
REMARK    8  A    between atoms: N_14  and  C_15
REMARK    9  A    between atoms: C_18  and  C_19
REMARK                            x       y       z     vdW  Elec       q    Type
REMARK                         _______ _______ _______ _____ _____    ______ ____
ROOT
ATOM      1  C   UNL     1      45.013   5.226  11.831  0.00  0.00    +0.000 C 
ENDROOT
BRANCH   1   2
ATOM      2  N   UNL     1      44.258   4.734  10.673  0.00  0.00    +0.000 N 
ATOM      3  H   UNL     1      43.654   5.447  10.267  0.00  0.00    +0.000 HD
BRANCH   2   4
ATOM      4  C   UNL     1      44.999   4.061   9.681  0.00  0.00    +0.000 A 
ATOM      5  C   UNL     1      45.017   2.668   9.558  0.00  0.00    +0.000 A 
ATOM      6  C   UNL     1      45.715   2.048   8.522  0.00  0.00    +0.000 A 
ATOM      7  C   UNL     1      46.368   2.848   7.595  0.00  0.00    +0.000 A 
ATOM      8  N   UNL     1      46.353   4.207   7.634  0.00  0.00    +0.000 NA
ATOM      9  C   UNL     1      45.655   4.765   8.662  0.00  0.00    +0.000 A 
BRANCH   7  10
ATOM     10  C   UNL     1      47.118   2.199   6.476  0.00  0.00    +0.000 C 
ATOM     11  N   UNL     1      47.316   2.971   5.368  0.00  0.00    +0.000 N 
ATOM     12  O   UNL     1      47.541   1.051   6.542  0.00  0.00    +0.000 OA
ATOM     13  H   UNL     1      46.936   3.911   5.341  0.00  0.00    +0.000 HD
ATOM     14  H   UNL     1      47.796   2.591   4.566  0.00  0.00    +0.000 HD
ENDBRANCH   7  10
ENDBRANCH   2   4
ENDBRANCH   1   2
BRANCH   1  15
ATOM     15  C   UNL     1      45.470   6.683  11.650  0.00  0.00    +0.000 C 
BRANCH  15  20
ATOM     16  C   UNL     1      48.413   6.469  14.097  0.00  0.00    +0.000 A 
ATOM     17  C   UNL     1      49.380   7.211  13.418  0.00  0.00    +0.000 A 
ATOM     18  C   UNL     1      49.064   7.833  12.211  0.00  0.00    +0.000 A 
ATOM     19  C   UNL     1      47.790   7.693  11.664  0.00  0.00    +0.000 A 
ATOM     20  C   UNL     1      46.819   6.910  12.306  0.00  0.00    +0.000 A 
ATOM     21  C   UNL     1      47.140   6.310  13.535  0.00  0.00    +0.000 A 
BRANCH  16  22
ATOM     22  O   UNL     1      48.643   5.831  15.295  0.00  0.00    +0.000 OA
BRANCH  22  27
ATOM     23  C   UNL     1      48.334   5.205  18.143  0.00  0.00    +0.000 C 
ATOM     24  C   UNL     1      49.340   6.238  17.700  0.00  0.00    +0.000 C 
ATOM     25  C   UNL     1      50.603   6.272  18.522  0.00  0.00    +0.000 C 
ATOM     26  C   UNL     1      48.804   7.529  17.123  0.00  0.00    +0.000 C 
ATOM     27  C   UNL     1      49.496   6.546  16.217  0.00  0.00    +0.000 C 
ENDBRANCH  22  27
ENDBRANCH  16  22
ENDBRANCH  15  20
ENDBRANCH   1  15
TORSDOF 7
ENDMDL
MODEL 6
REMARK VINA RESULT:    -6.343      4.322      8.325
REMARK INTER + INTRA:          -9.846
REMARK INTER:                  -9.149
REMARK INTRA:                  -0.697
REMARK UNBOUND:                -0.907
REMARK  Name = 
REMARK  9 active torsions:
REMARK  status: ('A' for Active; 'I' for Inactive)
REMARK    1  A    between atoms: C_1  and  C_2
REMARK    2  A    between atoms: C_2  and  C_3
REMARK    3  A    between atoms: C_5  and  O_6
REMARK    4  A    between atoms: O_6  and  C_7
REMARK    5  A    between atoms: C_11  and  C_12
REMARK    6  A    between atoms: C_12  and  C_13
REMARK    7  A    between atoms: C_13  and  N_14
REMARK    8  A    between atoms: N_14  and  C_15
REMARK    9  A    between atoms: C_18  and  C_19
REMARK                            x       y       z     vdW  Elec       q    Type
REMARK                         _______ _______ _______ _____ _____    ______ ____
ROOT
ATOM      1  C   UNL     1      48.174   5.022  16.123  0.00  0.00    +0.000 C 
ENDROOT
BRANCH   1   2
ATOM      2  N   UNL     1      48.393   4.224  17.336  0.00  0.00    +0.000 N 
ATOM      3  H   UNL     1      47.575   3.677  17.598  0.00  0.00    +0.000 HD
BRANCH   2   4
ATOM      4  C   UNL     1      49.568   3.446  17.371  0.00  0.00    +0.000 A 
ATOM      5  C   UNL     1      50.746   3.873  17.991  0.00  0.00    +0.000 A 
ATOM      6  C   UNL     1      51.865   3.043  18.055  0.00  0.00    +0.000 A 
ATOM      7  C   UNL     1      51.772   1.768  17.516  0.00  0.00    +0.000 A 
ATOM      8  N   UNL     1      50.643   1.278  16.938  0.00  0.00    +0.000 NA
ATOM      9  C   UNL     1      49.577   2.125  16.903  0.00  0.00    +0.000 A 
BRANCH   7  10
ATOM     10  C   UNL     1      52.962   0.864  17.579  0.00  0.00    +0.000 C 
ATOM     11  N   UNL     1      52.804  -0.273  18.318  0.00  0.00    +0.000 N 
ATOM     12  O   UNL     1      54.013   1.113  17.001  0.00  0.00    +0.000 OA
ATOM     13  H   UNL     1      51.926  -0.437  18.798  0.00  0.00    +0.000 HD
ATOM     14  H   UNL     1      53.572  -0.918  18.422  0.00  0.00    +0.000 HD
ENDBRANCH   7  10
ENDBRANCH   2   4
ENDBRANCH   1   2
BRANCH   1  15
ATOM     15  C   UNL     1      47.066   4.433  15.234  0.00  0.00    +0.000 C 
BRANCH  15  20
ATOM     16  C   UNL     1      46.006   5.474  11.701  0.00  0.00    +0.000 A 
ATOM     17  C   UNL     1      46.677   6.690  11.567  0.00  0.00    +0.000 A 
ATOM     18  C   UNL     1      47.520   7.139  12.583  0.00  0.00    +0.000 A 
ATOM     19  C   UNL     1      47.674   6.388  13.747  0.00  0.00    +0.000 A 
ATOM     20  C   UNL     1      46.969   5.188  13.923  0.00  0.00    +0.000 A 
ATOM     21  C   UNL     1      46.143   4.733  12.881  0.00  0.00    +0.000 A 
BRANCH  16  22
ATOM     22  O   UNL     1      45.162   4.960  10.743  0.00  0.00    +0.000 OA
BRANCH  22  27
ATOM     23  C   UNL     1      44.520   3.904   8.083  0.00  0.00    +0.000 C 
ATOM     24  C   UNL     1      44.885   2.962   9.204  0.00  0.00    +0.000 C 
ATOM     25  C   UNL     1      45.669   1.750   8.770  0.00  0.00    +0.000 C 
ATOM     26  C   UNL     1      43.907   2.834  10.350  0.00  0.00    +0.000 C 
ATOM     27  C   UNL     1      45.224   3.525  10.578  0.00  0.00    +0.000 C 
ENDBRANCH  22  27
ENDBRANCH  16  22
ENDBRANCH  15  20
ENDBRANCH   1  15
TORSDOF 7
ENDMDL
MODEL 7
REMARK VINA RESULT:    -6.308      2.773      4.371
REMARK INTER + INTRA:          -9.796
REMARK INTER:                  -8.858
REMARK INTRA:                  -0.938
REMARK UNBOUND:                -0.907
REMARK  Name = 
REMARK  9 active torsions:
REMARK  status: ('A' for Active; 'I' for Inactive)
REMARK    1  A    between atoms: C_1  and  C_2
REMARK    2  A    between atoms: C_2  and  C_3
REMARK    3  A    between atoms: C_5  and  O_6
REMARK    4  A    between atoms: O_6  and  C_7
REMARK    5  A    between atoms: C_11  and  C_12
REMARK    6  A    between atoms: C_12  and  C_13
REMARK    7  A    between atoms: C_13  and  N_14
REMARK    8  A    between atoms: N_14  and  C_15
REMARK    9  A    between atoms: C_18  and  C_19
REMARK                            x       y       z     vdW  Elec       q    Type
REMARK                         _______ _______ _______ _____ _____    ______ ____
ROOT
ATOM      1  C   UNL     1      47.271   8.113  12.493  0.00  0.00    +0.000 C 
ENDROOT
BRANCH   1   2
ATOM      2  N   UNL     1      46.167   7.529  13.265  0.00  0.00    +0.000 N 
ATOM      3  H   UNL     1      45.482   8.224  13.557  0.00  0.00    +0.000 HD
BRANCH   2   4
ATOM      4  C   UNL     1      45.544   6.394  12.708  0.00  0.00    +0.000 A 
ATOM      5  C   UNL     1      45.119   6.333  11.378  0.00  0.00    +0.000 A 
ATOM      6  C   UNL     1      44.563   5.165  10.854  0.00  0.00    +0.000 A 
ATOM      7  C   UNL     1      44.472   4.053  11.677  0.00  0.00    +0.000 A 
ATOM      8  N   UNL     1      44.906   4.034  12.965  0.00  0.00    +0.000 NA
ATOM      9  C   UNL     1      45.443   5.196  13.429  0.00  0.00    +0.000 A 
BRANCH   7  10
ATOM     10  C   UNL     1      43.882   2.791  11.130  0.00  0.00    +0.000 C 
ATOM     11  N   UNL     1      44.471   2.303   9.999  0.00  0.00    +0.000 N 
ATOM     12  O   UNL     1      42.937   2.219  11.659  0.00  0.00    +0.000 OA
ATOM     13  H   UNL     1      45.240   2.813   9.577  0.00  0.00    +0.000 HD
ATOM     14  H   UNL     1      44.112   1.467   9.563  0.00  0.00    +0.000 HD
ENDBRANCH   7  10
ENDBRANCH   2   4
ENDBRANCH   1   2
BRANCH   1  15
ATOM     15  C   UNL     1      48.503   7.195  12.456  0.00  0.00    +0.000 C 
BRANCH  15  20
ATOM     16  C   UNL     1      49.583   6.655  16.094  0.00  0.00    +0.000 A 
ATOM     17  C   UNL     1      50.813   7.312  16.109  0.00  0.00    +0.000 A 
ATOM     18  C   UNL     1      51.260   7.984  14.972  0.00  0.00    +0.000 A 
ATOM     19  C   UNL     1      50.493   7.977  13.808  0.00  0.00    +0.000 A 
ATOM     20  C   UNL     1      49.277   7.280  13.757  0.00  0.00    +0.000 A 
ATOM     21  C   UNL     1      48.824   6.629  14.917  0.00  0.00    +0.000 A 
BRANCH  16  22
ATOM     22  O   UNL     1      49.069   5.975  17.175  0.00  0.00    +0.000 OA
BRANCH  22  27
ATOM     23  C   UNL     1      47.131   3.776  17.064  0.00  0.00    +0.000 C 
ATOM     24  C   UNL     1      48.591   3.487  17.315  0.00  0.00    +0.000 C 
ATOM     25  C   UNL     1      49.087   2.203  16.701  0.00  0.00    +0.000 C 
ATOM     26  C   UNL     1      49.174   3.946  18.632  0.00  0.00    +0.000 C 
ATOM     27  C   UNL     1      49.587   4.638  17.361  0.00  0.00    +0.000 C 
ENDBRANCH  22  27
ENDBRANCH  16  22
ENDBRANCH  15  20
ENDBRANCH   1  15
TORSDOF 7
ENDMDL
MODEL 8
REMARK VINA RESULT:    -6.270      3.665      7.655
REMARK INTER + INTRA:          -9.742
REMARK INTER:                  -8.785
REMARK INTRA:                  -0.957
REMARK UNBOUND:                -0.907
REMARK  Name = 
REMARK  9 active torsions:
REMARK  status: ('A' for Active; 'I' for Inactive)
REMARK    1  A    between atoms: C_1  and  C_2
REMARK    2  A    between atoms: C_2  and  C_3
REMARK    3  A    between atoms: C_5  and  O_6
REMARK    4  A    between atoms: O_6  and  C_7
REMARK    5  A    between atoms: C_11  and  C_12
REMARK    6  A    between atoms: C_12  and  C_13
REMARK    7  A    between atoms: C_13  and  N_14
REMARK    8  A    between atoms: N_14  and  C_15
REMARK    9  A    between atoms: C_18  and  C_19
REMARK                            x       y       z     vdW  Elec       q    Type
REMARK                         _______ _______ _______ _____ _____    ______ ____
ROOT
ATOM      1  C   UNL     1      49.859   7.801  13.463  0.00  0.00    +0.000 C 
ENDROOT
BRANCH   1   2
ATOM      2  N   UNL     1      49.247   8.067  14.770  0.00  0.00    +0.000 N 
ATOM      3  H   UNL     1      48.479   8.733  14.715  0.00  0.00    +0.000 HD
BRANCH   2   4
ATOM      4  C   UNL     1      48.899   6.939  15.541  0.00  0.00    +0.000 A 
ATOM      5  C   UNL     1      49.081   6.877  16.926  0.00  0.00    +0.000 A 
ATOM      6  C   UNL     1      48.664   5.764  17.656  0.00  0.00    +0.000 A 
ATOM      7  C   UNL     1      48.033   4.731  16.979  0.00  0.00    +0.000 A 
ATOM      8  N   UNL     1      47.787   4.749  15.641  0.00  0.00    +0.000 NA
ATOM      9  C   UNL     1      48.210   5.858  14.974  0.00  0.00    +0.000 A 
BRANCH   7  10
ATOM     10  C   UNL     1      47.576   3.532  17.747  0.00  0.00    +0.000 C 
ATOM     11  N   UNL     1      48.356   3.174  18.808  0.00  0.00    +0.000 N 
ATOM     12  O   UNL     1      46.561   2.908  17.458  0.00  0.00    +0.000 OA
ATOM     13  H   UNL     1      49.199   3.702  19.008  0.00  0.00    +0.000 HD
ATOM     14  H   UNL     1      48.119   2.362  19.358  0.00  0.00    +0.000 HD
ENDBRANCH   7  10
ENDBRANCH   2   4
ENDBRANCH   1   2
BRANCH   1  15
ATOM     15  C   UNL     1      49.223   8.641  12.343  0.00  0.00    +0.000 C 
BRANCH  15  20
ATOM     16  C   UNL     1      46.027   6.670  11.573  0.00  0.00    +0.000 A 
ATOM     17  C   UNL     1      45.048   7.573  11.992  0.00  0.00    +0.000 A 
ATOM     18  C   UNL     1      45.415   8.835  12.457  0.00  0.00    +0.000 A 
ATOM     19  C   UNL     1      46.760   9.190  12.531  0.00  0.00    +0.000 A 
ATOM     20  C   UNL     1      47.762   8.280  12.162  0.00  0.00    +0.000 A 
ATOM     21  C   UNL     1      47.379   7.019  11.670  0.00  0.00    +0.000 A 
BRANCH  16  22
ATOM     22  O   UNL     1      45.747   5.409  11.097  0.00  0.00    +0.000 OA
BRANCH  22  27
ATOM     23  C   UNL     1      44.840   2.937   9.807  0.00  0.00    +0.000 C 
ATOM     24  C   UNL     1      44.037   3.543  10.933  0.00  0.00    +0.000 C 
ATOM     25  C   UNL     1      43.369   2.537  11.835  0.00  0.00    +0.000 C 
ATOM     26  C   UNL     1      43.347   4.861  10.663  0.00  0.00    +0.000 C 
ATOM     27  C   UNL     1      44.525   4.822  11.599  0.00  0.00    +0.000 C 
ENDBRANCH  22  27
ENDBRANCH  16  22
ENDBRANCH  15  20
ENDBRANCH   1  15
TORSDOF 7
ENDMDL
MODEL 9
REMARK VINA RESULT:    -6.267      1.417      1.889
REMARK INTER + INTRA:          -9.738
REMARK INTER:                  -9.171
REMARK INTRA:                  -0.568
REMARK UNBOUND:                -0.907
REMARK  Name = 
REMARK  9 active torsions:
REMARK  status: ('A' for Active; 'I' for Inactive)
REMARK    1  A    between atoms: C_1  and  C_2
REMARK    2  A    between atoms: C_2  and  C_3
REMARK    3  A    between atoms: C_5  and  O_6
REMARK    4  A    between atoms: O_6  and  C_7
REMARK    5  A    between atoms: C_11  and  C_12
REMARK    6  A    between atoms: C_12  and  C_13
REMARK    7  A    between atoms: C_13  and  N_14
REMARK    8  A    between atoms: N_14  and  C_15
REMARK    9  A    between atoms: C_18  and  C_19
REMARK                            x       y       z     vdW  Elec       q    Type
REMARK                         _______ _______ _______ _____ _____    ______ ____
ROOT
ATOM      1  C   UNL     1      44.409   4.240  12.707  0.00  0.00    +0.000 C 
ENDROOT
BRANCH   1   2
ATOM      2  N   UNL     1      44.035   4.872  11.436  0.00  0.00    +0.000 N 
ATOM      3  H   UNL     1      44.099   5.888  11.470  0.00  0.00    +0.000 HD
BRANCH   2   4
ATOM      4  C   UNL     1      44.643   4.354  10.275  0.00  0.00    +0.000 A 
ATOM      5  C   UNL     1      45.462   5.119   9.438  0.00  0.00    +0.000 A 
ATOM      6  C   UNL     1      46.093   4.547   8.333  0.00  0.00    +0.000 A 
ATOM      7  C   UNL     1      45.915   3.191   8.101  0.00  0.00    +0.000 A 
ATOM      8  N   UNL     1      45.166   2.385   8.900  0.00  0.00    +0.000 NA
ATOM      9  C   UNL     1      44.574   2.988   9.967  0.00  0.00    +0.000 A 
BRANCH   7  10
ATOM     10  C   UNL     1      46.587   2.562   6.923  0.00  0.00    +0.000 C 
ATOM     11  N   UNL     1      46.925   3.411   5.909  0.00  0.00    +0.000 N 
ATOM     12  O   UNL     1      46.833   1.363   6.864  0.00  0.00    +0.000 OA
ATOM     13  H   UNL     1      46.690   4.395   5.983  0.00  0.00    +0.000 HD
ATOM     14  H   UNL     1      47.363   3.051   5.073  0.00  0.00    +0.000 HD
ENDBRANCH   7  10
ENDBRANCH   2   4
ENDBRANCH   1   2
BRANCH   1  15
ATOM     15  C   UNL     1      45.878   3.788  12.720  0.00  0.00    +0.000 C 
BRANCH  15  20
ATOM     16  C   UNL     1      47.797   5.091  15.772  0.00  0.00    +0.000 A 
ATOM     17  C   UNL     1      48.379   6.247  15.250  0.00  0.00    +0.000 A 
ATOM     18  C   UNL     1      48.098   6.640  13.942  0.00  0.00    +0.000 A 
ATOM     19  C   UNL     1      47.260   5.866  13.142  0.00  0.00    +0.000 A 
ATOM     20  C   UNL     1      46.706   4.674  13.632  0.00  0.00    +0.000 A 
ATOM     21  C   UNL     1      46.974   4.301  14.960  0.00  0.00    +0.000 A 
BRANCH  16  22
ATOM     22  O   UNL     1      48.018   4.639  17.053  0.00  0.00    +0.000 OA
BRANCH  22  27
ATOM     23  C   UNL     1      50.040   2.533  17.339  0.00  0.00    +0.000 C 
ATOM     24  C   UNL     1      50.342   3.941  17.792  0.00  0.00    +0.000 C 
ATOM     25  C   UNL     1      51.772   4.369  17.584  0.00  0.00    +0.000 C 
ATOM     26  C   UNL     1      49.585   4.462  18.993  0.00  0.00    +0.000 C 
ATOM     27  C   UNL     1      49.286   5.025  17.629  0.00  0.00    +0.000 C 
ENDBRANCH  22  27
ENDBRANCH  16  22
ENDBRANCH  15  20
ENDBRANCH   1  15
TORSDOF 7
ENDMDL
