MODEL 1
REMARK VINA RESULT:    -8.735      0.000      0.000
REMARK INTER + INTRA:         -10.980
REMARK INTER:                 -10.777
REMARK INTRA:                  -0.203
REMARK UNBOUND:                -0.203
REMARK  Name = 
REMARK  4 active torsions:
REMARK  status: ('A' for Active; 'I' for Inactive)
REMARK    1  A    between atoms: C_2  and  C_4
REMARK    2  A    between atoms: C_7  and  N_8
REMARK    3  A    between atoms: N_8  and  C_9
REMARK    4  A    between atoms: C_9  and  C_10
REMARK                            x       y       z     vdW  Elec       q    Type
REMARK                         _______ _______ _______ _____ _____    ______ ____
ROOT
ATOM      1  N   UNL     1      43.811   4.700   9.989  0.00  0.00    +0.000 N 
ATOM      2  H   UNL     1      42.858   4.562   9.656  0.00  0.00    +0.000 HD
ENDROOT
BRANCH   1   6
ATOM      3  C   UNL     1      46.485   2.360   7.701  0.00  0.00    +0.000 A 
ATOM      4  C   UNL     1      46.481   3.750   7.537  0.00  0.00    +0.000 A 
ATOM      5  C   UNL     1      45.585   4.543   8.266  0.00  0.00    +0.000 A 
ATOM      6  C   UNL     1      44.699   3.968   9.180  0.00  0.00    +0.000 A 
ATOM      7  C   UNL     1      44.720   2.574   9.341  0.00  0.00    +0.000 A 
ATOM      8  C   UNL     1      45.592   1.773   8.600  0.00  0.00    +0.000 A 
BRANCH   3  10
ATOM      9  N   UNL     1      48.571   2.025   6.489  0.00  0.00    +0.000 N 
ATOM     10  C   UNL     1      47.405   1.477   6.941  0.00  0.00    +0.000 C 
ATOM     11  O   UNL     1      47.152   0.293   6.757  0.00  0.00    +0.000 OA
ATOM     12  H   UNL     1      49.230   1.386   6.062  0.00  0.00    +0.000 HD
ATOM     13  H   UNL     1      48.928   2.904   6.835  0.00  0.00    +0.000 HD
ENDBRANCH   3  10
ENDBRANCH   1   6
BRANCH   1  14
ATOM     14  C   UNL     1      43.943   4.823  11.465  0.00  0.00    +0.000 C 
ATOM     15  C   UNL     1      43.248   3.703  12.237  0.00  0.00    +0.000 C 
ATOM     16  C   UNL     1      42.725   5.094  12.329  0.00  0.00    +0.000 C 
ATOM     17  F   UNL     1      42.878   5.719  13.555  0.00  0.00    +0.000 F 
BRANCH  14  18
ATOM     18  C   UNL     1      45.325   5.251  11.945  0.00  0.00    +0.000 A 
ATOM     19  C   UNL     1      45.949   6.413  11.468  0.00  0.00    +0.000 A 
ATOM     20  C   UNL     1      47.179   6.827  11.979  0.00  0.00    +0.000 A 
ATOM     21  C   UNL     1      47.775   6.056  12.960  0.00  0.00    +0.000 A 
ATOM     22  N   UNL     1      47.236   4.920  13.441  0.00  0.00    +0.000 NA
ATOM     23  C   UNL     1      46.041   4.548  12.919  0.00  0.00    +0.000 A 
ENDBRANCH  14  18
ENDBRANCH   1  14
TORSDOF 4
ENDMDL
MODEL 2
REMARK VINA RESULT:    -8.560      1.080      1.149
REMARK INTER + INTRA:         -10.764
REMARK INTER:                 -10.210
REMARK INTRA:                  -0.554
REMARK UNBOUND:                -0.203
REMARK  Name = 
REMARK  4 active torsions:
REMARK  status: ('A' for Active; 'I' for Inactive)
REMARK    1  A    between atoms: C_2  and  C_4
REMARK    2  A    between atoms: C_7  and  N_8
REMARK    3  A    between atoms: N_8  and  C_9
REMARK    4  A    between atoms: C_9  and  C_10
REMARK                            x       y       z     vdW  Elec       q    Type
REMARK                         _______ _______ _______ _____ _____    ______ ____
ROOT
ATOM      1  N   UNL     1      43.809   3.724  10.482  0.00  0.00    +0.000 N 
ATOM      2  H   UNL     1      43.601   2.872  11.001  0.00  0.00    +0.000 HD
ENDROOT
BRANCH   1   6
ATOM      3  C   UNL     1      46.602   2.691   7.483  0.00  0.00    +0.000 A 
ATOM      4  C   UNL     1      46.226   4.029   7.635  0.00  0.00    +0.000 A 
ATOM      5  C   UNL     1      45.281   4.391   8.605  0.00  0.00    +0.000 A 
ATOM      6  C   UNL     1      44.718   3.432   9.449  0.00  0.00    +0.000 A 
ATOM      7  C   UNL     1      45.111   2.094   9.293  0.00  0.00    +0.000 A 
ATOM      8  C   UNL     1      46.031   1.721   8.311  0.00  0.00    +0.000 A 
BRANCH   3  10
ATOM      9  N   UNL     1      47.710   3.027   5.341  0.00  0.00    +0.000 N 
ATOM     10  C   UNL     1      47.587   2.256   6.461  0.00  0.00    +0.000 C 
ATOM     11  O   UNL     1      48.290   1.268   6.628  0.00  0.00    +0.000 OA
ATOM     12  H   UNL     1      48.454   2.773   4.703  0.00  0.00    +0.000 HD
ATOM     13  H   UNL     1      47.345   3.967   5.286  0.00  0.00    +0.000 HD
ENDBRANCH   3  10
ENDBRANCH   1   6
BRANCH   1  14
ATOM     14  C   UNL     1      43.862   4.959  11.309  0.00  0.00    +0.000 C 
ATOM     15  C   UNL     1      42.553   5.268  12.033  0.00  0.00    +0.000 C 
ATOM     16  C   UNL     1      43.021   6.169  10.946  0.00  0.00    +0.000 C 
ATOM     17  F   UNL     1      43.430   7.432  11.338  0.00  0.00    +0.000 F 
BRANCH  14  18
ATOM     18  C   UNL     1      45.156   5.141  12.093  0.00  0.00    +0.000 A 
ATOM     19  C   UNL     1      46.120   6.091  11.725  0.00  0.00    +0.000 A 
ATOM     20  C   UNL     1      47.260   6.294  12.503  0.00  0.00    +0.000 A 
ATOM     21  C   UNL     1      47.422   5.526  13.641  0.00  0.00    +0.000 A 
ATOM     22  N   UNL     1      46.545   4.584  14.033  0.00  0.00    +0.000 NA
ATOM     23  C   UNL     1      45.450   4.413  13.252  0.00  0.00    +0.000 A 
ENDBRANCH  14  18
ENDBRANCH   1  14
TORSDOF 4
ENDMDL
MODEL 3
REMARK VINA RESULT:    -6.790      3.332      6.289
REMARK INTER + INTRA:          -8.580
REMARK INTER:                  -8.599
REMARK INTRA:                   0.019
REMARK UNBOUND:                -0.203
REMARK  Name = 
REMARK  4 active torsions:
REMARK  status: ('A' for Active; 'I' for Inactive)
REMARK    1  A    between atoms: C_2  and  C_4
REMARK    2  A    between atoms: C_7  and  N_8
REMARK    3  A    between atoms: N_8  and  C_9
REMARK    4  A    between atoms: C_9  and  C_10
REMARK                            x       y       z     vdW  Elec       q    Type
REMARK                         _______ _______ _______ _____ _____    ______ ____
ROOT
ATOM      1  N   UNL     1      44.614   6.186  10.631  0.00  0.00    +0.000 N 
ATOM      2  H   UNL     1      44.761   6.497   9.673  0.00  0.00    +0.000 HD
ENDROOT
BRANCH   1   6
ATOM      3  C   UNL     1      47.080   8.345  13.301  0.00  0.00    +0.000 A 
ATOM      4  C   UNL     1      45.806   8.837  12.997  0.00  0.00    +0.000 A 
ATOM      5  C   UNL     1      44.982   8.151  12.095  0.00  0.00    +0.000 A 
ATOM      6  C   UNL     1      45.404   6.960  11.501  0.00  0.00    +0.000 A 
ATOM      7  C   UNL     1      46.681   6.472  11.822  0.00  0.00    +0.000 A 
ATOM      8  C   UNL     1      47.519   7.163  12.700  0.00  0.00    +0.000 A 
BRANCH   3  10
ATOM      9  N   UNL     1      47.595   9.151  15.540  0.00  0.00    +0.000 N 
ATOM     10  C   UNL     1      47.995   9.042  14.239  0.00  0.00    +0.000 C 
ATOM     11  O   UNL     1      49.082   9.470  13.875  0.00  0.00    +0.000 OA
ATOM     12  H   UNL     1      48.272   9.539  16.184  0.00  0.00    +0.000 HD
ATOM     13  H   UNL     1      46.844   8.597  15.926  0.00  0.00    +0.000 HD
ENDBRANCH   3  10
ENDBRANCH   1   6
BRANCH   1  14
ATOM     14  C   UNL     1      44.404   4.722  10.784  0.00  0.00    +0.000 C 
ATOM     15  C   UNL     1      43.008   4.351  11.280  0.00  0.00    +0.000 C 
ATOM     16  C   UNL     1      44.187   4.111  12.156  0.00  0.00    +0.000 C 
ATOM     17  F   UNL     1      44.518   2.785  12.378  0.00  0.00    +0.000 F 
BRANCH  14  18
ATOM     18  C   UNL     1      44.996   3.876   9.662  0.00  0.00    +0.000 A 
ATOM     19  C   UNL     1      45.671   4.452   8.575  0.00  0.00    +0.000 A 
ATOM     20  C   UNL     1      46.271   3.654   7.601  0.00  0.00    +0.000 A 
ATOM     21  C   UNL     1      46.174   2.281   7.726  0.00  0.00    +0.000 A 
ATOM     22  N   UNL     1      45.521   1.671   8.732  0.00  0.00    +0.000 NA
ATOM     23  C   UNL     1      44.948   2.478   9.659  0.00  0.00    +0.000 A 
ENDBRANCH  14  18
ENDBRANCH   1  14
TORSDOF 4
ENDMDL
MODEL 4
REMARK VINA RESULT:    -6.616      3.386      6.488
REMARK INTER + INTRA:          -8.366
REMARK INTER:                  -8.302
REMARK INTRA:                  -0.064
REMARK UNBOUND:                -0.203
REMARK  Name = 
REMARK  4 active torsions:
REMARK  status: ('A' for Active; 'I' for Inactive)
REMARK    1  A    between atoms: C_2  and  C_4
REMARK    2  A    between atoms: C_7  and  N_8
REMARK    3  A    between atoms: N_8  and  C_9
REMARK    4  A    between atoms: C_9  and  C_10
REMARK                            x       y       z     vdW  Elec       q    Type
REMARK                         _______ _______ _______ _____ _____    ______ ____
ROOT
ATOM      1  N   UNL     1      44.757   6.371  10.886  0.00  0.00    +0.000 N 
ATOM      2  H   UNL     1      44.914   6.765   9.959  0.00  0.00    +0.000 HD
ENDROOT
BRANCH   1   6
ATOM      3  C   UNL     1      47.350   8.323  13.592  0.00  0.00    +0.000 A 
ATOM      4  C   UNL     1      47.746   7.110  13.021  0.00  0.00    +0.000 A 
ATOM      5  C   UNL     1      46.891   6.432  12.141  0.00  0.00    +0.000 A 
ATOM      6  C   UNL     1      45.645   6.962  11.803  0.00  0.00    +0.000 A 
ATOM      7  C   UNL     1      45.264   8.185  12.376  0.00  0.00    +0.000 A 
ATOM      8  C   UNL     1      46.098   8.855  13.274  0.00  0.00    +0.000 A 
BRANCH   3  10
ATOM      9  N   UNL     1      47.721   9.298  15.793  0.00  0.00    +0.000 N 
ATOM     10  C   UNL     1      48.214   9.072  14.540  0.00  0.00    +0.000 C 
ATOM     11  O   UNL     1      49.339   9.440  14.228  0.00  0.00    +0.000 OA
ATOM     12  H   UNL     1      48.360   9.720  16.455  0.00  0.00    +0.000 HD
ATOM     13  H   UNL     1      46.925   8.798  16.162  0.00  0.00    +0.000 HD
ENDBRANCH   3  10
ENDBRANCH   1   6
BRANCH   1  14
ATOM     14  C   UNL     1      44.394   4.929  10.894  0.00  0.00    +0.000 C 
ATOM     15  C   UNL     1      42.919   4.670  11.195  0.00  0.00    +0.000 C 
ATOM     16  C   UNL     1      43.954   4.250  12.178  0.00  0.00    +0.000 C 
ATOM     17  F   UNL     1      44.130   2.885  12.329  0.00  0.00    +0.000 F 
BRANCH  14  18
ATOM     18  C   UNL     1      45.037   4.107   9.783  0.00  0.00    +0.000 A 
ATOM     19  C   UNL     1      44.961   2.707   9.755  0.00  0.00    +0.000 A 
ATOM     20  C   UNL     1      45.489   1.981   8.688  0.00  0.00    +0.000 A 
ATOM     21  C   UNL     1      46.101   2.676   7.661  0.00  0.00    +0.000 A 
ATOM     22  N   UNL     1      46.225   4.016   7.642  0.00  0.00    +0.000 NA
ATOM     23  C   UNL     1      45.702   4.688   8.697  0.00  0.00    +0.000 A 
ENDBRANCH  14  18
ENDBRANCH   1  14
TORSDOF 4
ENDMDL
MODEL 5
REMARK VINA RESULT:    -6.408      3.074      6.090
REMARK INTER + INTRA:          -8.109
REMARK INTER:                  -8.352
REMARK INTRA:                   0.243
REMARK UNBOUND:                -0.203
REMARK  Name = 
REMARK  4 active torsions:
REMARK  status: ('A' for Active; 'I' for Inactive)
REMARK    1  A    between atoms: C_2  and  C_4
REMARK    2  A    between atoms: C_7  and  N_8
REMARK    3  A    between atoms: N_8  and  C_9
REMARK    4  A    between atoms: C_9  and  C_10
REMARK                            x       y       z     vdW  Elec       q    Type
REMARK                         _______ _______ _______ _____ _____    ______ ____
ROOT
ATOM      1  N   UNL     1      45.385   5.939  11.222  0.00  0.00    +0.000 N 
ATOM      2  H   UNL     1      45.874   6.360  10.433  0.00  0.00    +0.000 HD
ENDROOT
BRANCH   1   6
ATOM      3  C   UNL     1      47.771   5.859  14.709  0.00  0.00    +0.000 A 
ATOM      4  C   UNL     1      47.842   6.967  13.858  0.00  0.00    +0.000 A 
ATOM      5  C   UNL     1      47.080   7.003  12.683  0.00  0.00    +0.000 A 
ATOM      6  C   UNL     1      46.223   5.951  12.351  0.00  0.00    +0.000 A 
ATOM      7  C   UNL     1      46.155   4.850  13.219  0.00  0.00    +0.000 A 
ATOM      8  C   UNL     1      46.931   4.793  14.379  0.00  0.00    +0.000 A 
BRANCH   3  10
ATOM      9  N   UNL     1      47.891   5.546  17.121  0.00  0.00    +0.000 N 
ATOM     10  C   UNL     1      48.570   5.767  15.957  0.00  0.00    +0.000 C 
ATOM     11  O   UNL     1      49.791   5.848  15.944  0.00  0.00    +0.000 OA
ATOM     12  H   UNL     1      48.457   5.387  17.945  0.00  0.00    +0.000 HD
ATOM     13  H   UNL     1      46.935   5.222  17.139  0.00  0.00    +0.000 HD
ENDBRANCH   3  10
ENDBRANCH   1   6
BRANCH   1  14
ATOM     14  C   UNL     1      44.489   4.808  10.866  0.00  0.00    +0.000 C 
ATOM     15  C   UNL     1      43.007   5.181  10.849  0.00  0.00    +0.000 C 
ATOM     16  C   UNL     1      43.517   4.242  11.885  0.00  0.00    +0.000 C 
ATOM     17  F   UNL     1      43.092   2.929  11.775  0.00  0.00    +0.000 F 
BRANCH  14  18
ATOM     18  C   UNL     1      45.001   3.925   9.734  0.00  0.00    +0.000 A 
ATOM     19  C   UNL     1      45.624   4.461   8.598  0.00  0.00    +0.000 A 
ATOM     20  C   UNL     1      46.155   3.630   7.611  0.00  0.00    +0.000 A 
ATOM     21  C   UNL     1      46.042   2.261   7.776  0.00  0.00    +0.000 A 
ATOM     22  N   UNL     1      45.435   1.688   8.833  0.00  0.00    +0.000 NA
ATOM     23  C   UNL     1      44.929   2.528   9.769  0.00  0.00    +0.000 A 
ENDBRANCH  14  18
ENDBRANCH   1  14
TORSDOF 4
ENDMDL
MODEL 6
REMARK VINA RESULT:    -6.344      3.373      6.131
REMARK INTER + INTRA:          -8.030
REMARK INTER:                  -8.256
REMARK INTRA:                   0.226
REMARK UNBOUND:                -0.203
REMARK  Name = 
REMARK  4 active torsions:
REMARK  status: ('A' for Active; 'I' for Inactive)
REMARK    1  A    between atoms: C_2  and  C_4
REMARK    2  A    between atoms: C_7  and  N_8
REMARK    3  A    between atoms: N_8  and  C_9
REMARK    4  A    between atoms: C_9  and  C_10
REMARK                            x       y       z     vdW  Elec       q    Type
REMARK                         _______ _______ _______ _____ _____    ______ ____
ROOT
ATOM      1  N   UNL     1      45.470   4.670  12.569  0.00  0.00    +0.000 N 
ATOM      2  H   UNL     1      45.341   4.460  13.558  0.00  0.00    +0.000 HD
ENDROOT
BRANCH   1   6
ATOM      3  C   UNL     1      46.729   8.686  12.189  0.00  0.00    +0.000 A 
ATOM      4  C   UNL     1      45.378   8.414  12.429  0.00  0.00    +0.000 A 
ATOM      5  C   UNL     1      44.934   7.088  12.532  0.00  0.00    +0.000 A 
ATOM      6  C   UNL     1      45.828   6.022  12.421  0.00  0.00    +0.000 A 
ATOM      7  C   UNL     1      47.183   6.310  12.190  0.00  0.00    +0.000 A 
ATOM      8  C   UNL     1      47.630   7.627  12.059  0.00  0.00    +0.000 A 
BRANCH   3  10
ATOM      9  N   UNL     1      46.372  11.093  12.304  0.00  0.00    +0.000 N 
ATOM     10  C   UNL     1      47.245  10.072  12.058  0.00  0.00    +0.000 C 
ATOM     11  O   UNL     1      48.415  10.297  11.777  0.00  0.00    +0.000 OA
ATOM     12  H   UNL     1      46.765  12.026  12.308  0.00  0.00    +0.000 HD
ATOM     13  H   UNL     1      45.492  10.952  12.780  0.00  0.00    +0.000 HD
ENDBRANCH   3  10
ENDBRANCH   1   6
BRANCH   1  14
ATOM     14  C   UNL     1      44.541   3.953  11.656  0.00  0.00    +0.000 C 
ATOM     15  C   UNL     1      43.081   4.374  11.813  0.00  0.00    +0.000 C 
ATOM     16  C   UNL     1      43.497   3.000  12.208  0.00  0.00    +0.000 C 
ATOM     17  F   UNL     1      43.019   1.970  11.415  0.00  0.00    +0.000 F 
BRANCH  14  18
ATOM     18  C   UNL     1      45.067   3.765  10.237  0.00  0.00    +0.000 A 
ATOM     19  C   UNL     1      45.205   2.494   9.660  0.00  0.00    +0.000 A 
ATOM     20  C   UNL     1      45.614   2.350   8.334  0.00  0.00    +0.000 A 
ATOM     21  C   UNL     1      45.890   3.492   7.605  0.00  0.00    +0.000 A 
ATOM     22  N   UNL     1      45.798   4.737   8.111  0.00  0.00    +0.000 NA
ATOM     23  C   UNL     1      45.400   4.837   9.403  0.00  0.00    +0.000 A 
ENDBRANCH  14  18
ENDBRANCH   1  14
TORSDOF 4
ENDMDL
MODEL 7
REMARK VINA RESULT:    -6.327      3.452      6.466
REMARK INTER + INTRA:          -8.010
REMARK INTER:                  -7.607
REMARK INTRA:                  -0.403
REMARK UNBOUND:                -0.203
REMARK  Name = 
REMARK  4 active torsions:
REMARK  status: ('A' for Active; 'I' for Inactive)
REMARK    1  A    between atoms: C_2  and  C_4
REMARK    2  A    between atoms: C_7  and  N_8
REMARK    3  A    between atoms: N_8  and  C_9
REMARK    4  A    between atoms: C_9  and  C_10
REMARK                            x       y       z     vdW  Elec       q    Type
REMARK                         _______ _______ _______ _____ _____    ______ ____
ROOT
ATOM      1  N   UNL     1      46.736   5.987  12.169  0.00  0.00    +0.000 N 
ATOM      2  H   UNL     1      47.487   5.864  11.492  0.00  0.00    +0.000 HD
ENDROOT
BRANCH   1   6
ATOM      3  C   UNL     1      47.830   4.398  15.930  0.00  0.00    +0.000 A 
ATOM      4  C   UNL     1      48.168   5.720  15.622  0.00  0.00    +0.000 A 
ATOM      5  C   UNL     1      47.839   6.259  14.371  0.00  0.00    +0.000 A 
ATOM      6  C   UNL     1      47.151   5.500  13.422  0.00  0.00    +0.000 A 
ATOM      7  C   UNL     1      46.809   4.178  13.748  0.00  0.00    +0.000 A 
ATOM      8  C   UNL     1      47.157   3.624  14.982  0.00  0.00    +0.000 A 
BRANCH   3  10
ATOM      9  N   UNL     1      47.202   3.033  17.847  0.00  0.00    +0.000 N 
ATOM     10  C   UNL     1      48.169   3.778  17.235  0.00  0.00    +0.000 C 
ATOM     11  O   UNL     1      49.283   3.894  17.730  0.00  0.00    +0.000 OA
ATOM     12  H   UNL     1      47.482   2.537  18.683  0.00  0.00    +0.000 HD
ATOM     13  H   UNL     1      46.380   2.707  17.360  0.00  0.00    +0.000 HD
ENDBRANCH   3  10
ENDBRANCH   1   6
BRANCH   1  14
ATOM     14  C   UNL     1      45.367   5.800  11.620  0.00  0.00    +0.000 C 
ATOM     15  C   UNL     1      44.579   7.102  11.483  0.00  0.00    +0.000 C 
ATOM     16  C   UNL     1      44.146   6.082  12.476  0.00  0.00    +0.000 C 
ATOM     17  F   UNL     1      42.951   5.438  12.201  0.00  0.00    +0.000 F 
BRANCH  14  18
ATOM     18  C   UNL     1      45.275   4.802  10.471  0.00  0.00    +0.000 A 
ATOM     19  C   UNL     1      44.727   3.523  10.641  0.00  0.00    +0.000 A 
ATOM     20  C   UNL     1      44.582   2.655   9.559  0.00  0.00    +0.000 A 
ATOM     21  C   UNL     1      45.003   3.084   8.313  0.00  0.00    +0.000 A 
ATOM     22  N   UNL     1      45.557   4.291   8.092  0.00  0.00    +0.000 NA
ATOM     23  C   UNL     1      45.685   5.106   9.167  0.00  0.00    +0.000 A 
ENDBRANCH  14  18
ENDBRANCH   1  14
TORSDOF 4
ENDMDL
MODEL 8
REMARK VINA RESULT:    -5.921      4.405      7.446
REMARK INTER + INTRA:          -7.508
REMARK INTER:                  -7.102
REMARK INTRA:                  -0.406
REMARK UNBOUND:                -0.203
REMARK  Name = 
REMARK  4 active torsions:
REMARK  status: ('A' for Active; 'I' for Inactive)
REMARK    1  A    between atoms: C_2  and  C_4
REMARK    2  A    between atoms: C_7  and  N_8
REMARK    3  A    between atoms: N_8  and  C_9
REMARK    4  A    between atoms: C_9  and  C_10
REMARK                            x       y       z     vdW  Elec       q    Type
REMARK                         _______ _______ _______ _____ _____    ______ ____
ROOT
ATOM      1  N   UNL     1      47.582   5.602  13.286  0.00  0.00    +0.000 N 
ATOM      2  H   UNL     1      47.654   4.716  12.788  0.00  0.00    +0.000 HD
ENDROOT
BRANCH   1   6
ATOM      3  C   UNL     1      48.091   4.875  17.418  0.00  0.00    +0.000 A 
ATOM      4  C   UNL     1      48.750   5.958  16.829  0.00  0.00    +0.000 A 
ATOM      5  C   UNL     1      48.616   6.203  15.455  0.00  0.00    +0.000 A 
ATOM      6  C   UNL     1      47.811   5.388  14.657  0.00  0.00    +0.000 A 
ATOM      7  C   UNL     1      47.147   4.310  15.263  0.00  0.00    +0.000 A 
ATOM      8  C   UNL     1      47.295   4.043  16.626  0.00  0.00    +0.000 A 
BRANCH   3  10
ATOM      9  N   UNL     1      48.292   3.251  19.222  0.00  0.00    +0.000 N 
ATOM     10  C   UNL     1      48.212   4.566  18.865  0.00  0.00    +0.000 C 
ATOM     11  O   UNL     1      48.277   5.454  19.707  0.00  0.00    +0.000 OA
ATOM     12  H   UNL     1      48.475   3.063  20.200  0.00  0.00    +0.000 HD
ATOM     13  H   UNL     1      48.499   2.520  18.557  0.00  0.00    +0.000 HD
ENDBRANCH   3  10
ENDBRANCH   1   6
BRANCH   1  14
ATOM     14  C   UNL     1      46.552   6.532  12.752  0.00  0.00    +0.000 C 
ATOM     15  C   UNL     1      47.129   7.668  11.910  0.00  0.00    +0.000 C 
ATOM     16  C   UNL     1      46.495   7.974  13.222  0.00  0.00    +0.000 C 
ATOM     17  F   UNL     1      45.298   8.668  13.170  0.00  0.00    +0.000 F 
BRANCH  14  18
ATOM     18  C   UNL     1      45.288   5.851  12.238  0.00  0.00    +0.000 A 
ATOM     19  C   UNL     1      45.202   5.331  10.938  0.00  0.00    +0.000 A 
ATOM     20  C   UNL     1      44.064   4.645  10.515  0.00  0.00    +0.000 A 
ATOM     21  C   UNL     1      43.017   4.498  11.406  0.00  0.00    +0.000 A 
ATOM     22  N   UNL     1      43.032   4.994  12.658  0.00  0.00    +0.000 NA
ATOM     23  C   UNL     1      44.153   5.658  13.033  0.00  0.00    +0.000 A 
ENDBRANCH  14  18
ENDBRANCH   1  14
TORSDOF 4
ENDMDL
MODEL 9
REMARK VINA RESULT:    -5.823      3.555      5.377
REMARK INTER + INTRA:          -7.387
REMARK INTER:                  -6.912
REMARK INTRA:                  -0.475
REMARK UNBOUND:                -0.203
REMARK  Name = 
REMARK  4 active torsions:
REMARK  status: ('A' for Active; 'I' for Inactive)
REMARK    1  A    between atoms: C_2  and  C_4
REMARK    2  A    between atoms: C_7  and  N_8
REMARK    3  A    between atoms: N_8  and  C_9
REMARK    4  A    between atoms: C_9  and  C_10
REMARK                            x       y       z     vdW  Elec       q    Type
REMARK                         _______ _______ _______ _____ _____    ______ ____
ROOT
ATOM      1  N   UNL     1      46.062   7.887  13.242  0.00  0.00    +0.000 N 
ATOM      2  H   UNL     1      45.596   8.059  14.132  0.00  0.00    +0.000 HD
ENDROOT
BRANCH   1   6
ATOM      3  C   UNL     1      44.608   4.276  11.597  0.00  0.00    +0.000 A 
ATOM      4  C   UNL     1      45.421   4.230  12.734  0.00  0.00    +0.000 A 
ATOM      5  C   UNL     1      45.936   5.414  13.281  0.00  0.00    +0.000 A 
ATOM      6  C   UNL     1      45.631   6.655  12.719  0.00  0.00    +0.000 A 
ATOM      7  C   UNL     1      44.806   6.687  11.583  0.00  0.00    +0.000 A 
ATOM      8  C   UNL     1      44.311   5.511  11.016  0.00  0.00    +0.000 A 
BRANCH   3  10
ATOM      9  N   UNL     1      44.799   2.444  10.004  0.00  0.00    +0.000 N 
ATOM     10  C   UNL     1      44.051   3.050  10.972  0.00  0.00    +0.000 C 
ATOM     11  O   UNL     1      42.982   2.575  11.334  0.00  0.00    +0.000 OA
ATOM     12  H   UNL     1      44.452   1.557   9.661  0.00  0.00    +0.000 HD
ATOM     13  H   UNL     1      45.777   2.650   9.864  0.00  0.00    +0.000 HD
ENDBRANCH   3  10
ENDBRANCH   1   6
BRANCH   1  14
ATOM     14  C   UNL     1      47.465   8.373  13.172  0.00  0.00    +0.000 C 
ATOM     15  C   UNL     1      47.600   9.769  12.566  0.00  0.00    +0.000 C 
ATOM     16  C   UNL     1      48.140   8.593  11.831  0.00  0.00    +0.000 C 
ATOM     17  F   UNL     1      49.520   8.518  11.735  0.00  0.00    +0.000 F 
BRANCH  14  18
ATOM     18  C   UNL     1      48.307   8.060  14.404  0.00  0.00    +0.000 A 
ATOM     19  C   UNL     1      48.242   8.843  15.566  0.00  0.00    +0.000 A 
ATOM     20  C   UNL     1      48.963   8.492  16.707  0.00  0.00    +0.000 A 
ATOM     21  C   UNL     1      49.753   7.358  16.661  0.00  0.00    +0.000 A 
ATOM     22  N   UNL     1      49.874   6.581  15.569  0.00  0.00    +0.000 NA
ATOM     23  C   UNL     1      49.161   6.954  14.478  0.00  0.00    +0.000 A 
ENDBRANCH  14  18
ENDBRANCH   1  14
TORSDOF 4
ENDMDL
