MODEL 1
REMARK VINA RESULT:    -8.449      0.000      0.000
REMARK INTER + INTRA:         -11.920
REMARK INTER:                 -11.412
REMARK INTRA:                  -0.508
REMARK UNBOUND:                -0.508
REMARK  Name = 
REMARK  7 active torsions:
REMARK  status: ('A' for Active; 'I' for Inactive)
REMARK    1  A    between atoms: C_1  and  C_2
REMARK    2  A    between atoms: C_2  and  N_3
REMARK    3  A    between atoms: C_2  and  C_16
REMARK    4  A    between atoms: C_4  and  C_6
REMARK    5  A    between atoms: C_19  and  C_20
REMARK    6  A    between atoms: C_20  and  N_21
REMARK    7  A    between atoms: C_22  and  C_24
REMARK                            x       y       z     vdW  Elec       q    Type
REMARK                         _______ _______ _______ _____ _____    ______ ____
ROOT
ATOM      1  C   UNL     1      48.821   7.996  13.203  0.00  0.00    +0.000 C 
ATOM      2  C   UNL     1      48.298   6.709  13.856  0.00  0.00    +0.000 C 
ENDROOT
BRANCH   2   3
ATOM      3  C   UNL     1      47.054   6.244  13.101  0.00  0.00    +0.000 A 
ATOM      4  C   UNL     1      46.694   4.886  13.149  0.00  0.00    +0.000 A 
ATOM      5  C   UNL     1      45.642   4.387  12.370  0.00  0.00    +0.000 A 
ATOM      6  C   UNL     1      44.921   5.230  11.516  0.00  0.00    +0.000 A 
ATOM      7  C   UNL     1      45.240   6.594  11.501  0.00  0.00    +0.000 A 
ATOM      8  C   UNL     1      46.302   7.093  12.272  0.00  0.00    +0.000 A 
BRANCH   6   9
ATOM      9  C   UNL     1      43.857   4.677  10.601  0.00  0.00    +0.000 C 
BRANCH   9  10
ATOM     10  N   UNL     1      44.382   3.764   9.616  0.00  0.00    +0.000 N 
ATOM     11  C   UNL     1      45.289   4.210   8.670  0.00  0.00    +0.000 C 
ATOM     12  O   UNL     1      45.739   5.352   8.662  0.00  0.00    +0.000 OA
ATOM     13  H   UNL     1      43.813   2.978   9.322  0.00  0.00    +0.000 HD
BRANCH  11  14
ATOM     14  C   UNL     1      45.795   3.111   7.723  0.00  0.00    +0.000 C 
ATOM     15  C   UNL     1      46.024   1.771   8.396  0.00  0.00    +0.000 C 
ATOM     16  C   UNL     1      46.891   1.047   7.384  0.00  0.00    +0.000 C 
ATOM     17  C   UNL     1      47.700   2.150   6.714  0.00  0.00    +0.000 C 
ATOM     18  N   UNL     1      47.120   3.433   7.137  0.00  0.00    +0.000 NA
ATOM     19  H   UNL     1      46.987   4.029   6.320  0.00  0.00    +0.000 HD
ENDBRANCH  11  14
ENDBRANCH   9  10
ENDBRANCH   6   9
ENDBRANCH   2   3
BRANCH   2  20
ATOM     20  N   UNL     1      48.055   6.884  15.280  0.00  0.00    +0.000 N 
ATOM     21  C   UNL     1      49.028   6.630  16.224  0.00  0.00    +0.000 C 
ATOM     22  O   UNL     1      50.165   6.284  15.926  0.00  0.00    +0.000 OA
ATOM     23  H   UNL     1      47.087   6.827  15.582  0.00  0.00    +0.000 HD
BRANCH  21  24
ATOM     24  C   UNL     1      48.653   6.854  17.625  0.00  0.00    +0.000 A 
ATOM     25  C   UNL     1      48.353   8.139  18.058  0.00  0.00    +0.000 A 
ATOM     26  S   UNL     1      47.934   8.224  19.708  0.00  0.00    +0.000 S 
ATOM     27  C   UNL     1      48.176   6.552  19.910  0.00  0.00    +0.000 A 
ATOM     28  N   UNL     1      48.024   5.963  21.126  0.00  0.00    +0.000 NA
ATOM     29  C   UNL     1      48.271   4.694  21.139  0.00  0.00    +0.000 A 
ATOM     30  N   UNL     1      48.652   3.962  20.044  0.00  0.00    +0.000 N 
ATOM     31  C   UNL     1      48.779   4.506  18.791  0.00  0.00    +0.000 A 
ATOM     32  O   UNL     1      49.053   3.811  17.817  0.00  0.00    +0.000 OA
ATOM     33  C   UNL     1      48.540   5.934  18.728  0.00  0.00    +0.000 A 
ATOM     34  H   UNL     1      48.814   2.968  20.118  0.00  0.00    +0.000 HD
ENDBRANCH  21  24
ENDBRANCH   2  20
TORSDOF 6
ENDMDL
MODEL 2
REMARK VINA RESULT:    -8.259      1.567      2.254
REMARK INTER + INTRA:         -11.663
REMARK INTER:                 -10.489
REMARK INTRA:                  -1.175
REMARK UNBOUND:                -0.508
REMARK  Name = 
REMARK  7 active torsions:
REMARK  status: ('A' for Active; 'I' for Inactive)
REMARK    1  A    between atoms: C_1  and  C_2
REMARK    2  A    between atoms: C_2  and  N_3
REMARK    3  A    between atoms: C_2  and  C_16
REMARK    4  A    between atoms: C_4  and  C_6
REMARK    5  A    between atoms: C_19  and  C_20
REMARK    6  A    between atoms: C_20  and  N_21
REMARK    7  A    between atoms: C_22  and  C_24
REMARK                            x       y       z     vdW  Elec       q    Type
REMARK                         _______ _______ _______ _____ _____    ______ ____
ROOT
ATOM      1  C   UNL     1      48.527   7.912  13.648  0.00  0.00    +0.000 C 
ATOM      2  C   UNL     1      48.355   6.535  14.305  0.00  0.00    +0.000 C 
ENDROOT
BRANCH   2   3
ATOM      3  C   UNL     1      47.255   5.773  13.569  0.00  0.00    +0.000 A 
ATOM      4  C   UNL     1      46.925   4.473  13.990  0.00  0.00    +0.000 A 
ATOM      5  C   UNL     1      46.018   3.685  13.270  0.00  0.00    +0.000 A 
ATOM      6  C   UNL     1      45.418   4.171  12.102  0.00  0.00    +0.000 A 
ATOM      7  C   UNL     1      45.703   5.484  11.704  0.00  0.00    +0.000 A 
ATOM      8  C   UNL     1      46.620   6.270  12.419  0.00  0.00    +0.000 A 
BRANCH   6   9
ATOM      9  C   UNL     1      44.522   3.289  11.269  0.00  0.00    +0.000 C 
BRANCH   9  10
ATOM     10  N   UNL     1      45.178   2.773  10.093  0.00  0.00    +0.000 N 
ATOM     11  C   UNL     1      44.930   3.339   8.855  0.00  0.00    +0.000 C 
ATOM     12  O   UNL     1      44.217   4.327   8.702  0.00  0.00    +0.000 OA
ATOM     13  H   UNL     1      45.442   1.795  10.068  0.00  0.00    +0.000 HD
BRANCH  11  14
ATOM     14  C   UNL     1      45.739   2.715   7.708  0.00  0.00    +0.000 C 
ATOM     15  C   UNL     1      46.331   1.357   8.036  0.00  0.00    +0.000 C 
ATOM     16  C   UNL     1      47.381   1.194   6.954  0.00  0.00    +0.000 C 
ATOM     17  C   UNL     1      47.852   2.613   6.660  0.00  0.00    +0.000 C 
ATOM     18  N   UNL     1      46.926   3.529   7.342  0.00  0.00    +0.000 NA
ATOM     19  H   UNL     1      46.639   4.263   6.695  0.00  0.00    +0.000 HD
ENDBRANCH  11  14
ENDBRANCH   9  10
ENDBRANCH   6   9
ENDBRANCH   2   3
BRANCH   2  20
ATOM     20  N   UNL     1      48.102   6.643  15.734  0.00  0.00    +0.000 N 
ATOM     21  C   UNL     1      48.969   6.124  16.671  0.00  0.00    +0.000 C 
ATOM     22  O   UNL     1      50.024   5.578  16.367  0.00  0.00    +0.000 OA
ATOM     23  H   UNL     1      47.131   6.760  16.010  0.00  0.00    +0.000 HD
BRANCH  21  24
ATOM     24  C   UNL     1      48.597   6.309  18.079  0.00  0.00    +0.000 A 
ATOM     25  C   UNL     1      48.658   5.231  18.952  0.00  0.00    +0.000 A 
ATOM     26  S   UNL     1      48.198   5.618  20.547  0.00  0.00    +0.000 S 
ATOM     27  C   UNL     1      47.865   7.230  20.117  0.00  0.00    +0.000 A 
ATOM     28  N   UNL     1      47.381   8.114  21.029  0.00  0.00    +0.000 NA
ATOM     29  C   UNL     1      47.143   9.293  20.557  0.00  0.00    +0.000 A 
ATOM     30  N   UNL     1      47.350   9.668  19.254  0.00  0.00    +0.000 N 
ATOM     31  C   UNL     1      47.873   8.822  18.309  0.00  0.00    +0.000 A 
ATOM     32  O   UNL     1      48.113   9.206  17.169  0.00  0.00    +0.000 OA
ATOM     33  C   UNL     1      48.131   7.476  18.783  0.00  0.00    +0.000 A 
ATOM     34  H   UNL     1      47.158  10.612  18.951  0.00  0.00    +0.000 HD
ENDBRANCH  21  24
ENDBRANCH   2  20
TORSDOF 6
ENDMDL
MODEL 3
REMARK VINA RESULT:    -8.175      2.913      4.624
REMARK INTER + INTRA:         -11.550
REMARK INTER:                 -10.340
REMARK INTRA:                  -1.210
REMARK UNBOUND:                -0.508
REMARK  Name = 
REMARK  7 active torsions:
REMARK  status: ('A' for Active; 'I' for Inactive)
REMARK    1  A    between atoms: C_1  and  C_2
REMARK    2  A    between atoms: C_2  and  N_3
REMARK    3  A    between atoms: C_2  and  C_16
REMARK    4  A    between atoms: C_4  and  C_6
REMARK    5  A    between atoms: C_19  and  C_20
REMARK    6  A    between atoms: C_20  and  N_21
REMARK    7  A    between atoms: C_22  and  C_24
REMARK                            x       y       z     vdW  Elec       q    Type
REMARK                         _______ _______ _______ _____ _____    ______ ____
ROOT
ATOM      1  C   UNL     1      47.482   3.693  15.321  0.00  0.00    +0.000 C 
ATOM      2  C   UNL     1      47.107   5.091  14.808  0.00  0.00    +0.000 C 
ENDROOT
BRANCH   2   3
ATOM      3  C   UNL     1      46.112   4.943  13.658  0.00  0.00    +0.000 A 
ATOM      4  C   UNL     1      45.958   3.688  13.045  0.00  0.00    +0.000 A 
ATOM      5  C   UNL     1      45.159   3.531  11.905  0.00  0.00    +0.000 A 
ATOM      6  C   UNL     1      44.495   4.627  11.340  0.00  0.00    +0.000 A 
ATOM      7  C   UNL     1      44.602   5.870  11.975  0.00  0.00    +0.000 A 
ATOM      8  C   UNL     1      45.412   6.031  13.111  0.00  0.00    +0.000 A 
BRANCH   6   9
ATOM      9  C   UNL     1      43.718   4.481  10.055  0.00  0.00    +0.000 C 
BRANCH   9  10
ATOM     10  N   UNL     1      44.368   3.618   9.101  0.00  0.00    +0.000 N 
ATOM     11  C   UNL     1      45.433   4.089   8.352  0.00  0.00    +0.000 C 
ATOM     12  O   UNL     1      45.916   5.207   8.505  0.00  0.00    +0.000 OA
ATOM     13  H   UNL     1      43.830   2.882   8.658  0.00  0.00    +0.000 HD
BRANCH  11  14
ATOM     14  C   UNL     1      46.053   3.039   7.417  0.00  0.00    +0.000 C 
ATOM     15  C   UNL     1      46.259   1.681   8.061  0.00  0.00    +0.000 C 
ATOM     16  C   UNL     1      47.232   1.017   7.107  0.00  0.00    +0.000 C 
ATOM     17  C   UNL     1      48.066   2.164   6.550  0.00  0.00    +0.000 C 
ATOM     18  N   UNL     1      47.415   3.416   6.963  0.00  0.00    +0.000 NA
ATOM     19  H   UNL     1      47.337   4.037   6.158  0.00  0.00    +0.000 HD
ENDBRANCH  11  14
ENDBRANCH   9  10
ENDBRANCH   6   9
ENDBRANCH   2   3
BRANCH   2  20
ATOM     20  N   UNL     1      48.281   5.866  14.436  0.00  0.00    +0.000 N 
ATOM     21  C   UNL     1      48.915   6.706  15.327  0.00  0.00    +0.000 C 
ATOM     22  O   UNL     1      48.559   6.824  16.494  0.00  0.00    +0.000 OA
ATOM     23  H   UNL     1      48.393   6.065  13.446  0.00  0.00    +0.000 HD
BRANCH  21  24
ATOM     24  C   UNL     1      50.093   7.423  14.824  0.00  0.00    +0.000 A 
ATOM     25  C   UNL     1      51.258   7.442  15.579  0.00  0.00    +0.000 A 
ATOM     26  S   UNL     1      52.529   8.313  14.850  0.00  0.00    +0.000 S 
ATOM     27  C   UNL     1      51.554   8.726  13.519  0.00  0.00    +0.000 A 
ATOM     28  N   UNL     1      52.029   9.517  12.520  0.00  0.00    +0.000 NA
ATOM     29  C   UNL     1      51.170   9.775  11.590  0.00  0.00    +0.000 A 
ATOM     30  N   UNL     1      49.880   9.311  11.567  0.00  0.00    +0.000 N 
ATOM     31  C   UNL     1      49.370   8.479  12.532  0.00  0.00    +0.000 A 
ATOM     32  O   UNL     1      48.235   8.022  12.448  0.00  0.00    +0.000 OA
ATOM     33  C   UNL     1      50.287   8.181  13.614  0.00  0.00    +0.000 A 
ATOM     34  H   UNL     1      49.263   9.537  10.801  0.00  0.00    +0.000 HD
ENDBRANCH  21  24
ENDBRANCH   2  20
TORSDOF 6
ENDMDL
MODEL 4
REMARK VINA RESULT:    -7.913      3.583      4.796
REMARK INTER + INTRA:         -11.197
REMARK INTER:                 -10.077
REMARK INTRA:                  -1.120
REMARK UNBOUND:                -0.508
REMARK  Name = 
REMARK  7 active torsions:
REMARK  status: ('A' for Active; 'I' for Inactive)
REMARK    1  A    between atoms: C_1  and  C_2
REMARK    2  A    between atoms: C_2  and  N_3
REMARK    3  A    between atoms: C_2  and  C_16
REMARK    4  A    between atoms: C_4  and  C_6
REMARK    5  A    between atoms: C_19  and  C_20
REMARK    6  A    between atoms: C_20  and  N_21
REMARK    7  A    between atoms: C_22  and  C_24
REMARK                            x       y       z     vdW  Elec       q    Type
REMARK                         _______ _______ _______ _____ _____    ______ ____
ROOT
ATOM      1  C   UNL     1      47.537   3.035  17.689  0.00  0.00    +0.000 C 
ATOM      2  C   UNL     1      48.434   4.224  17.316  0.00  0.00    +0.000 C 
ENDROOT
BRANCH   2   3
ATOM      3  C   UNL     1      48.004   4.756  15.950  0.00  0.00    +0.000 A 
ATOM      4  C   UNL     1      48.461   6.018  15.534  0.00  0.00    +0.000 A 
ATOM      5  C   UNL     1      47.992   6.607  14.352  0.00  0.00    +0.000 A 
ATOM      6  C   UNL     1      47.047   5.952  13.553  0.00  0.00    +0.000 A 
ATOM      7  C   UNL     1      46.625   4.672  13.935  0.00  0.00    +0.000 A 
ATOM      8  C   UNL     1      47.085   4.087  15.125  0.00  0.00    +0.000 A 
BRANCH   6   9
ATOM      9  C   UNL     1      46.463   6.626  12.336  0.00  0.00    +0.000 C 
BRANCH   9  10
ATOM     10  N   UNL     1      46.050   5.691  11.321  0.00  0.00    +0.000 N 
ATOM     11  C   UNL     1      44.707   5.545  11.016  0.00  0.00    +0.000 C 
ATOM     12  O   UNL     1      43.828   6.235  11.524  0.00  0.00    +0.000 OA
ATOM     13  H   UNL     1      46.615   4.867  11.153  0.00  0.00    +0.000 HD
BRANCH  11  14
ATOM     14  C   UNL     1      44.428   4.550   9.879  0.00  0.00    +0.000 C 
ATOM     15  C   UNL     1      44.752   3.109  10.227  0.00  0.00    +0.000 C 
ATOM     16  C   UNL     1      44.799   2.452   8.861  0.00  0.00    +0.000 C 
ATOM     17  C   UNL     1      45.294   3.548   7.926  0.00  0.00    +0.000 C 
ATOM     18  N   UNL     1      45.261   4.810   8.679  0.00  0.00    +0.000 NA
ATOM     19  H   UNL     1      44.813   5.529   8.112  0.00  0.00    +0.000 HD
ENDBRANCH  11  14
ENDBRANCH   9  10
ENDBRANCH   6   9
ENDBRANCH   2   3
BRANCH   2  20
ATOM     20  N   UNL     1      49.846   3.873  17.360  0.00  0.00    +0.000 N 
ATOM     21  C   UNL     1      50.648   4.204  18.432  0.00  0.00    +0.000 C 
ATOM     22  O   UNL     1      50.220   4.774  19.429  0.00  0.00    +0.000 OA
ATOM     23  H   UNL     1      50.301   3.728  16.464  0.00  0.00    +0.000 HD
BRANCH  21  24
ATOM     24  C   UNL     1      52.052   3.783  18.351  0.00  0.00    +0.000 A 
ATOM     25  C   UNL     1      53.058   4.685  18.673  0.00  0.00    +0.000 A 
ATOM     26  S   UNL     1      54.627   4.035  18.532  0.00  0.00    +0.000 S 
ATOM     27  C   UNL     1      54.018   2.539  17.998  0.00  0.00    +0.000 A 
ATOM     28  N   UNL     1      54.854   1.523  17.654  0.00  0.00    +0.000 NA
ATOM     29  C   UNL     1      54.255   0.457  17.236  0.00  0.00    +0.000 A 
ATOM     30  N   UNL     1      52.895   0.314  17.136  0.00  0.00    +0.000 N 
ATOM     31  C   UNL     1      52.012   1.297  17.510  0.00  0.00    +0.000 A 
ATOM     32  O   UNL     1      50.800   1.114  17.476  0.00  0.00    +0.000 OA
ATOM     33  C   UNL     1      52.636   2.526  17.960  0.00  0.00    +0.000 A 
ATOM     34  H   UNL     1      52.488  -0.553  16.817  0.00  0.00    +0.000 HD
ENDBRANCH  21  24
ENDBRANCH   2  20
TORSDOF 6
ENDMDL
MODEL 5
REMARK VINA RESULT:    -7.826      4.852      9.573
REMARK INTER + INTRA:         -11.078
REMARK INTER:                 -10.195
REMARK INTRA:                  -0.883
REMARK UNBOUND:                -0.508
REMARK  Name = 
REMARK  7 active torsions:
REMARK  status: ('A' for Active; 'I' for Inactive)
REMARK    1  A    between atoms: C_1  and  C_2
REMARK    2  A    between atoms: C_2  and  N_3
REMARK    3  A    between atoms: C_2  and  C_16
REMARK    4  A    between atoms: C_4  and  C_6
REMARK    5  A    between atoms: C_19  and  C_20
REMARK    6  A    between atoms: C_20  and  N_21
REMARK    7  A    between atoms: C_22  and  C_24
REMARK                            x       y       z     vdW  Elec       q    Type
REMARK                         _______ _______ _______ _____ _____    ______ ____
ROOT
ATOM      1  C   UNL     1      47.195   4.733  18.422  0.00  0.00    +0.000 C 
ATOM      2  C   UNL     1      47.604   4.053  17.108  0.00  0.00    +0.000 C 
ENDROOT
BRANCH   2   3
ATOM      3  C   UNL     1      49.087   3.691  17.181  0.00  0.00    +0.000 A 
ATOM      4  C   UNL     1      49.463   2.338  17.140  0.00  0.00    +0.000 A 
ATOM      5  C   UNL     1      50.794   1.948  17.336  0.00  0.00    +0.000 A 
ATOM      6  C   UNL     1      51.789   2.901  17.584  0.00  0.00    +0.000 A 
ATOM      7  C   UNL     1      51.431   4.255  17.575  0.00  0.00    +0.000 A 
ATOM      8  C   UNL     1      50.095   4.646  17.392  0.00  0.00    +0.000 A 
BRANCH   6   9
ATOM      9  C   UNL     1      53.203   2.479  17.897  0.00  0.00    +0.000 C 
BRANCH   9  10
ATOM     10  N   UNL     1      53.276   1.185  18.528  0.00  0.00    +0.000 N 
ATOM     11  C   UNL     1      54.039   0.178  17.963  0.00  0.00    +0.000 C 
ATOM     12  O   UNL     1      54.734   0.346  16.965  0.00  0.00    +0.000 OA
ATOM     13  H   UNL     1      52.488   0.863  19.078  0.00  0.00    +0.000 HD
BRANCH  11  14
ATOM     14  C   UNL     1      54.057  -1.125  18.777  0.00  0.00    +0.000 C 
ATOM     15  C   UNL     1      54.678  -2.301  18.047  0.00  0.00    +0.000 C 
ATOM     16  C   UNL     1      54.188  -3.481  18.863  0.00  0.00    +0.000 C 
ATOM     17  C   UNL     1      52.827  -3.044  19.389  0.00  0.00    +0.000 C 
ATOM     18  N   UNL     1      52.693  -1.607  19.108  0.00  0.00    +0.000 NA
ATOM     19  H   UNL     1      52.365  -1.128  19.947  0.00  0.00    +0.000 HD
ENDBRANCH  11  14
ENDBRANCH   9  10
ENDBRANCH   6   9
ENDBRANCH   2   3
BRANCH   2  20
ATOM     20  N   UNL     1      47.286   4.875  15.950  0.00  0.00    +0.000 N 
ATOM     21  C   UNL     1      47.174   4.341  14.684  0.00  0.00    +0.000 C 
ATOM     22  O   UNL     1      47.292   3.142  14.457  0.00  0.00    +0.000 OA
ATOM     23  H   UNL     1      47.517   5.861  16.021  0.00  0.00    +0.000 HD
BRANCH  21  24
ATOM     24  C   UNL     1      46.840   5.280  13.606  0.00  0.00    +0.000 A 
ATOM     25  C   UNL     1      47.796   6.186  13.166  0.00  0.00    +0.000 A 
ATOM     26  S   UNL     1      47.249   7.198  11.909  0.00  0.00    +0.000 S 
ATOM     27  C   UNL     1      45.704   6.486  11.936  0.00  0.00    +0.000 A 
ATOM     28  N   UNL     1      44.713   6.928  11.115  0.00  0.00    +0.000 NA
ATOM     29  C   UNL     1      43.584   6.318  11.266  0.00  0.00    +0.000 A 
ATOM     30  N   UNL     1      43.358   5.304  12.160  0.00  0.00    +0.000 N 
ATOM     31  C   UNL     1      44.337   4.799  12.979  0.00  0.00    +0.000 A 
ATOM     32  O   UNL     1      44.123   3.844  13.718  0.00  0.00    +0.000 OA
ATOM     33  C   UNL     1      45.618   5.470  12.868  0.00  0.00    +0.000 A 
ATOM     34  H   UNL     1      42.455   4.857  12.217  0.00  0.00    +0.000 HD
ENDBRANCH  21  24
ENDBRANCH   2  20
TORSDOF 6
ENDMDL
MODEL 6
REMARK VINA RESULT:    -7.723      2.847      3.521
REMARK INTER + INTRA:         -10.940
REMARK INTER:                 -10.423
REMARK INTRA:                  -0.518
REMARK UNBOUND:                -0.508
REMARK  Name = 
REMARK  7 active torsions:
REMARK  status: ('A' for Active; 'I' for Inactive)
REMARK    1  A    between atoms: C_1  and  C_2
REMARK    2  A    between atoms: C_2  and  N_3
REMARK    3  A    between atoms: C_2  and  C_16
REMARK    4  A    between atoms: C_4  and  C_6
REMARK    5  A    between atoms: C_19  and  C_20
REMARK    6  A    between atoms: C_20  and  N_21
REMARK    7  A    between atoms: C_22  and  C_24
REMARK                            x       y       z     vdW  Elec       q    Type
REMARK                         _______ _______ _______ _____ _____    ______ ____
ROOT
ATOM      1  C   UNL     1      47.547   3.430  14.830  0.00  0.00    +0.000 C 
ATOM      2  C   UNL     1      46.678   4.695  14.851  0.00  0.00    +0.000 C 
ENDROOT
BRANCH   2   3
ATOM      3  C   UNL     1      45.780   4.697  13.615  0.00  0.00    +0.000 A 
ATOM      4  C   UNL     1      45.716   3.543  12.815  0.00  0.00    +0.000 A 
ATOM      5  C   UNL     1      45.012   3.538  11.604  0.00  0.00    +0.000 A 
ATOM      6  C   UNL     1      44.355   4.690  11.153  0.00  0.00    +0.000 A 
ATOM      7  C   UNL     1      44.372   5.828  11.970  0.00  0.00    +0.000 A 
ATOM      8  C   UNL     1      45.087   5.837  13.178  0.00  0.00    +0.000 A 
BRANCH   6   9
ATOM      9  C   UNL     1      43.684   4.718   9.802  0.00  0.00    +0.000 C 
BRANCH   9  10
ATOM     10  N   UNL     1      44.293   3.818   8.855  0.00  0.00    +0.000 N 
ATOM     11  C   UNL     1      45.456   4.183   8.198  0.00  0.00    +0.000 C 
ATOM     12  O   UNL     1      46.056   5.228   8.433  0.00  0.00    +0.000 OA
ATOM     13  H   UNL     1      43.703   3.169   8.345  0.00  0.00    +0.000 HD
BRANCH  11  14
ATOM     14  C   UNL     1      46.010   3.101   7.259  0.00  0.00    +0.000 C 
ATOM     15  C   UNL     1      46.376   1.804   7.957  0.00  0.00    +0.000 C 
ATOM     16  C   UNL     1      47.255   1.122   6.927  0.00  0.00    +0.000 C 
ATOM     17  C   UNL     1      47.942   2.266   6.192  0.00  0.00    +0.000 C 
ATOM     18  N   UNL     1      47.278   3.510   6.606  0.00  0.00    +0.000 NA
ATOM     19  H   UNL     1      47.062   4.068   5.780  0.00  0.00    +0.000 HD
ENDBRANCH  11  14
ENDBRANCH   9  10
ENDBRANCH   6   9
ENDBRANCH   2   3
BRANCH   2  20
ATOM     20  N   UNL     1      47.482   5.904  14.959  0.00  0.00    +0.000 N 
ATOM     21  C   UNL     1      48.343   6.301  13.958  0.00  0.00    +0.000 C 
ATOM     22  O   UNL     1      48.457   5.691  12.901  0.00  0.00    +0.000 OA
ATOM     23  H   UNL     1      47.679   6.230  15.901  0.00  0.00    +0.000 HD
BRANCH  21  24
ATOM     24  C   UNL     1      49.088   7.544  14.193  0.00  0.00    +0.000 A 
ATOM     25  C   UNL     1      48.811   8.665  13.422  0.00  0.00    +0.000 A 
ATOM     26  S   UNL     1      49.760  10.022  13.825  0.00  0.00    +0.000 S 
ATOM     27  C   UNL     1      50.600   9.147  15.018  0.00  0.00    +0.000 A 
ATOM     28  N   UNL     1      51.605   9.720  15.731  0.00  0.00    +0.000 NA
ATOM     29  C   UNL     1      52.176   8.930  16.579  0.00  0.00    +0.000 A 
ATOM     30  N   UNL     1      51.829   7.619  16.780  0.00  0.00    +0.000 N 
ATOM     31  C   UNL     1      50.796   7.010  16.112  0.00  0.00    +0.000 A 
ATOM     32  O   UNL     1      50.463   5.857  16.364  0.00  0.00    +0.000 OA
ATOM     33  C   UNL     1      50.141   7.848  15.128  0.00  0.00    +0.000 A 
ATOM     34  H   UNL     1      52.305   7.058  17.472  0.00  0.00    +0.000 HD
ENDBRANCH  21  24
ENDBRANCH   2  20
TORSDOF 6
ENDMDL
MODEL 7
REMARK VINA RESULT:    -7.590      1.794      2.383
REMARK INTER + INTRA:         -10.760
REMARK INTER:                  -9.690
REMARK INTRA:                  -1.071
REMARK UNBOUND:                -0.508
REMARK  Name = 
REMARK  7 active torsions:
REMARK  status: ('A' for Active; 'I' for Inactive)
REMARK    1  A    between atoms: C_1  and  C_2
REMARK    2  A    between atoms: C_2  and  N_3
REMARK    3  A    between atoms: C_2  and  C_16
REMARK    4  A    between atoms: C_4  and  C_6
REMARK    5  A    between atoms: C_19  and  C_20
REMARK    6  A    between atoms: C_20  and  N_21
REMARK    7  A    between atoms: C_22  and  C_24
REMARK                            x       y       z     vdW  Elec       q    Type
REMARK                         _______ _______ _______ _____ _____    ______ ____
ROOT
ATOM      1  C   UNL     1      45.535   9.744  12.670  0.00  0.00    +0.000 C 
ATOM      2  C   UNL     1      46.450   8.533  12.898  0.00  0.00    +0.000 C 
ENDROOT
BRANCH   2   3
ATOM      3  C   UNL     1      45.710   7.268  12.465  0.00  0.00    +0.000 A 
ATOM      4  C   UNL     1      46.238   6.014  12.815  0.00  0.00    +0.000 A 
ATOM      5  C   UNL     1      45.671   4.827  12.332  0.00  0.00    +0.000 A 
ATOM      6  C   UNL     1      44.562   4.860  11.478  0.00  0.00    +0.000 A 
ATOM      7  C   UNL     1      43.999   6.104  11.165  0.00  0.00    +0.000 A 
ATOM      8  C   UNL     1      44.574   7.294  11.639  0.00  0.00    +0.000 A 
BRANCH   6   9
ATOM      9  C   UNL     1      44.014   3.591  10.874  0.00  0.00    +0.000 C 
BRANCH   9  10
ATOM     10  N   UNL     1      44.994   2.866  10.105  0.00  0.00    +0.000 N 
ATOM     11  C   UNL     1      45.317   3.281   8.824  0.00  0.00    +0.000 C 
ATOM     12  O   UNL     1      44.857   4.298   8.315  0.00  0.00    +0.000 OA
ATOM     13  H   UNL     1      45.115   1.874  10.273  0.00  0.00    +0.000 HD
BRANCH  11  14
ATOM     14  C   UNL     1      46.413   2.439   8.152  0.00  0.00    +0.000 C 
ATOM     15  C   UNL     1      46.517   2.645   6.652  0.00  0.00    +0.000 C 
ATOM     16  C   UNL     1      47.325   1.437   6.219  0.00  0.00    +0.000 C 
ATOM     17  C   UNL     1      46.938   0.343   7.205  0.00  0.00    +0.000 C 
ATOM     18  N   UNL     1      46.171   0.981   8.284  0.00  0.00    +0.000 NA
ATOM     19  H   UNL     1      46.528   0.665   9.185  0.00  0.00    +0.000 HD
ENDBRANCH  11  14
ENDBRANCH   9  10
ENDBRANCH   6   9
ENDBRANCH   2   3
BRANCH   2  20
ATOM     20  N   UNL     1      46.922   8.461  14.273  0.00  0.00    +0.000 N 
ATOM     21  C   UNL     1      48.034   9.155  14.701  0.00  0.00    +0.000 C 
ATOM     22  O   UNL     1      48.669   9.906  13.969  0.00  0.00    +0.000 OA
ATOM     23  H   UNL     1      46.662   7.629  14.795  0.00  0.00    +0.000 HD
BRANCH  21  24
ATOM     24  C   UNL     1      48.397   9.000  16.115  0.00  0.00    +0.000 A 
ATOM     25  C   UNL     1      48.370  10.105  16.955  0.00  0.00    +0.000 A 
ATOM     26  S   UNL     1      48.813   9.751  18.562  0.00  0.00    +0.000 S 
ATOM     27  C   UNL     1      49.093   8.116  18.181  0.00  0.00    +0.000 A 
ATOM     28  N   UNL     1      49.545   7.245  19.122  0.00  0.00    +0.000 NA
ATOM     29  C   UNL     1      49.745   6.045  18.685  0.00  0.00    +0.000 A 
ATOM     30  N   UNL     1      49.528   5.638  17.394  0.00  0.00    +0.000 N 
ATOM     31  C   UNL     1      49.036   6.472  16.422  0.00  0.00    +0.000 A 
ATOM     32  O   UNL     1      48.785   6.062  15.293  0.00  0.00    +0.000 OA
ATOM     33  C   UNL     1      48.821   7.839  16.855  0.00  0.00    +0.000 A 
ATOM     34  H   UNL     1      49.689   4.680  17.120  0.00  0.00    +0.000 HD
ENDBRANCH  21  24
ENDBRANCH   2  20
TORSDOF 6
ENDMDL
MODEL 8
REMARK VINA RESULT:    -7.464      2.556      3.757
REMARK INTER + INTRA:         -10.590
REMARK INTER:                  -9.825
REMARK INTRA:                  -0.765
REMARK UNBOUND:                -0.508
REMARK  Name = 
REMARK  7 active torsions:
REMARK  status: ('A' for Active; 'I' for Inactive)
REMARK    1  A    between atoms: C_1  and  C_2
REMARK    2  A    between atoms: C_2  and  N_3
REMARK    3  A    between atoms: C_2  and  C_16
REMARK    4  A    between atoms: C_4  and  C_6
REMARK    5  A    between atoms: C_19  and  C_20
REMARK    6  A    between atoms: C_20  and  N_21
REMARK    7  A    between atoms: C_22  and  C_24
REMARK                            x       y       z     vdW  Elec       q    Type
REMARK                         _______ _______ _______ _____ _____    ______ ____
ROOT
ATOM      1  C   UNL     1      47.664   3.516  15.580  0.00  0.00    +0.000 C 
ATOM      2  C   UNL     1      47.130   4.896  15.172  0.00  0.00    +0.000 C 
ENDROOT
BRANCH   2   3
ATOM      3  C   UNL     1      46.419   4.772  13.825  0.00  0.00    +0.000 A 
ATOM      4  C   UNL     1      46.017   5.939  13.154  0.00  0.00    +0.000 A 
ATOM      5  C   UNL     1      45.247   5.875  11.985  0.00  0.00    +0.000 A 
ATOM      6  C   UNL     1      44.853   4.641  11.455  0.00  0.00    +0.000 A 
ATOM      7  C   UNL     1      45.293   3.472  12.089  0.00  0.00    +0.000 A 
ATOM      8  C   UNL     1      46.054   3.536  13.268  0.00  0.00    +0.000 A 
BRANCH   6   9
ATOM      9  C   UNL     1      43.939   4.571  10.256  0.00  0.00    +0.000 C 
BRANCH   9  10
ATOM     10  N   UNL     1      44.436   3.700   9.222  0.00  0.00    +0.000 N 
ATOM     11  C   UNL     1      45.458   4.123   8.388  0.00  0.00    +0.000 C 
ATOM     12  O   UNL     1      46.030   5.200   8.526  0.00  0.00    +0.000 OA
ATOM     13  H   UNL     1      43.809   3.016   8.812  0.00  0.00    +0.000 HD
BRANCH  11  14
ATOM     14  C   UNL     1      45.913   3.066   7.370  0.00  0.00    +0.000 C 
ATOM     15  C   UNL     1      46.386   1.767   7.996  0.00  0.00    +0.000 C 
ATOM     16  C   UNL     1      47.145   1.119   6.855  0.00  0.00    +0.000 C 
ATOM     17  C   UNL     1      47.715   2.287   6.061  0.00  0.00    +0.000 C 
ATOM     18  N   UNL     1      47.083   3.511   6.574  0.00  0.00    +0.000 NA
ATOM     19  H   UNL     1      46.757   4.076   5.790  0.00  0.00    +0.000 HD
ENDBRANCH  11  14
ENDBRANCH   9  10
ENDBRANCH   6   9
ENDBRANCH   2   3
BRANCH   2  20
ATOM     20  N   UNL     1      48.182   5.902  15.157  0.00  0.00    +0.000 N 
ATOM     21  C   UNL     1      48.726   6.408  16.319  0.00  0.00    +0.000 C 
ATOM     22  O   UNL     1      48.391   6.018  17.432  0.00  0.00    +0.000 OA
ATOM     23  H   UNL     1      48.239   6.481  14.325  0.00  0.00    +0.000 HD
BRANCH  21  24
ATOM     24  C   UNL     1      49.786   7.412  16.161  0.00  0.00    +0.000 A 
ATOM     25  C   UNL     1      51.056   7.011  15.769  0.00  0.00    +0.000 A 
ATOM     26  S   UNL     1      52.164   8.299  15.630  0.00  0.00    +0.000 S 
ATOM     27  C   UNL     1      50.994   9.430  16.127  0.00  0.00    +0.000 A 
ATOM     28  N   UNL     1      51.306  10.746  16.265  0.00  0.00    +0.000 NA
ATOM     29  C   UNL     1      50.330  11.485  16.680  0.00  0.00    +0.000 A 
ATOM     30  N   UNL     1      49.069  11.025  16.965  0.00  0.00    +0.000 N 
ATOM     31  C   UNL     1      48.699   9.714  16.802  0.00  0.00    +0.000 A 
ATOM     32  O   UNL     1      47.546   9.346  16.996  0.00  0.00    +0.000 OA
ATOM     33  C   UNL     1      49.768   8.838  16.364  0.00  0.00    +0.000 A 
ATOM     34  H   UNL     1      48.345  11.659  17.270  0.00  0.00    +0.000 HD
ENDBRANCH  21  24
ENDBRANCH   2  20
TORSDOF 6
ENDMDL
MODEL 9
REMARK VINA RESULT:    -7.409      3.600      5.794
REMARK INTER + INTRA:         -10.515
REMARK INTER:                  -9.194
REMARK INTRA:                  -1.321
REMARK UNBOUND:                -0.508
REMARK  Name = 
REMARK  7 active torsions:
REMARK  status: ('A' for Active; 'I' for Inactive)
REMARK    1  A    between atoms: C_1  and  C_2
REMARK    2  A    between atoms: C_2  and  N_3
REMARK    3  A    between atoms: C_2  and  C_16
REMARK    4  A    between atoms: C_4  and  C_6
REMARK    5  A    between atoms: C_19  and  C_20
REMARK    6  A    between atoms: C_20  and  N_21
REMARK    7  A    between atoms: C_22  and  C_24
REMARK                            x       y       z     vdW  Elec       q    Type
REMARK                         _______ _______ _______ _____ _____    ______ ____
ROOT
ATOM      1  C   UNL     1      48.680   6.167  15.788  0.00  0.00    +0.000 C 
ATOM      2  C   UNL     1      48.633   7.110  14.578  0.00  0.00    +0.000 C 
ENDROOT
BRANCH   2   3
ATOM      3  C   UNL     1      47.651   6.547  13.552  0.00  0.00    +0.000 A 
ATOM      4  C   UNL     1      47.311   7.326  12.433  0.00  0.00    +0.000 A 
ATOM      5  C   UNL     1      46.319   6.912  11.535  0.00  0.00    +0.000 A 
ATOM      6  C   UNL     1      45.634   5.707  11.732  0.00  0.00    +0.000 A 
ATOM      7  C   UNL     1      46.003   4.901  12.816  0.00  0.00    +0.000 A 
ATOM      8  C   UNL     1      46.988   5.321  13.724  0.00  0.00    +0.000 A 
BRANCH   6   9
ATOM      9  C   UNL     1      44.495   5.308  10.825  0.00  0.00    +0.000 C 
BRANCH   9  10
ATOM     10  N   UNL     1      44.944   4.745   9.577  0.00  0.00    +0.000 N 
ATOM     11  C   UNL     1      44.921   3.374   9.386  0.00  0.00    +0.000 C 
ATOM     12  O   UNL     1      44.464   2.591  10.213  0.00  0.00    +0.000 OA
ATOM     13  H   UNL     1      45.650   5.237   9.042  0.00  0.00    +0.000 HD
BRANCH  11  14
ATOM     14  C   UNL     1      45.381   2.929   7.989  0.00  0.00    +0.000 C 
ATOM     15  C   UNL     1      46.341   1.754   7.999  0.00  0.00    +0.000 C 
ATOM     16  C   UNL     1      46.937   1.815   6.606  0.00  0.00    +0.000 C 
ATOM     17  C   UNL     1      46.938   3.297   6.254  0.00  0.00    +0.000 C 
ATOM     18  N   UNL     1      46.139   3.988   7.277  0.00  0.00    +0.000 NA
ATOM     19  H   UNL     1      45.481   4.620   6.821  0.00  0.00    +0.000 HD
ENDBRANCH  11  14
ENDBRANCH   9  10
ENDBRANCH   6   9
ENDBRANCH   2   3
BRANCH   2  20
ATOM     20  N   UNL     1      49.956   7.341  14.018  0.00  0.00    +0.000 N 
ATOM     21  C   UNL     1      50.527   8.596  13.984  0.00  0.00    +0.000 C 
ATOM     22  O   UNL     1      49.980   9.586  14.457  0.00  0.00    +0.000 OA
ATOM     23  H   UNL     1      50.280   6.662  13.335  0.00  0.00    +0.000 HD
BRANCH  21  24
ATOM     24  C   UNL     1      51.870   8.686  13.399  0.00  0.00    +0.000 A 
ATOM     25  C   UNL     1      52.924   9.158  14.171  0.00  0.00    +0.000 A 
ATOM     26  S   UNL     1      54.413   9.195  13.343  0.00  0.00    +0.000 S 
ATOM     27  C   UNL     1      53.693   8.620  11.913  0.00  0.00    +0.000 A 
ATOM     28  N   UNL     1      54.421   8.459  10.776  0.00  0.00    +0.000 NA
ATOM     29  C   UNL     1      53.739   8.047   9.759  0.00  0.00    +0.000 A 
ATOM     30  N   UNL     1      52.395   7.776   9.778  0.00  0.00    +0.000 N 
ATOM     31  C   UNL     1      51.629   7.885  10.912  0.00  0.00    +0.000 A 
ATOM     32  O   UNL     1      50.444   7.568  10.915  0.00  0.00    +0.000 OA
ATOM     33  C   UNL     1      52.343   8.372  12.075  0.00  0.00    +0.000 A 
ATOM     34  H   UNL     1      51.924   7.440   8.951  0.00  0.00    +0.000 HD
ENDBRANCH  21  24
ENDBRANCH   2  20
TORSDOF 6
ENDMDL
