MODEL 1
REMARK VINA RESULT:    -7.809      0.000      0.000
REMARK INTER + INTRA:         -12.801
REMARK INTER:                 -11.461
REMARK INTRA:                  -1.340
REMARK UNBOUND:                -1.340
REMARK  Name = 
REMARK  9 active torsions:
REMARK  status: ('A' for Active; 'I' for Inactive)
REMARK    1  A    between atoms: C_1  and  O_2
REMARK    2  A    between atoms: O_2  and  C_3
REMARK    3  A    between atoms: C_10  and  C_11
REMARK    4  A    between atoms: N_13  and  C_14
REMARK    5  A    between atoms: C_14  and  C_15
REMARK    6  A    between atoms: C_18  and  C_19
REMARK    7  A    between atoms: C_19  and  O_20
REMARK    8  A    between atoms: O_20  and  C_21
REMARK    9  A    between atoms: C_21  and  C_22
REMARK                            x       y       z     vdW  Elec       q    Type
REMARK                         _______ _______ _______ _____ _____    ______ ____
ROOT
ATOM      1  C   UNL     1      48.039   6.586  13.209  0.00  0.00    +0.000 C 
ENDROOT
BRANCH   1   2
ATOM      2  C   UNL     1      46.814   5.901  12.655  0.00  0.00    +0.000 A 
ATOM      3  C   UNL     1      46.249   6.289  11.432  0.00  0.00    +0.000 A 
ATOM      4  C   UNL     1      45.179   5.570  10.878  0.00  0.00    +0.000 A 
ATOM      5  C   UNL     1      44.655   4.446  11.535  0.00  0.00    +0.000 A 
ATOM      6  C   UNL     1      45.186   4.098  12.782  0.00  0.00    +0.000 A 
ATOM      7  C   UNL     1      46.237   4.827  13.345  0.00  0.00    +0.000 A 
BRANCH   5   8
ATOM      8  C   UNL     1      43.533   3.636  10.932  0.00  0.00    +0.000 C 
BRANCH   8   9
ATOM      9  O   UNL     1      43.838   3.300   9.579  0.00  0.00    +0.000 OA
BRANCH   9  10
ATOM     10  C   UNL     1      44.615   2.106   9.499  0.00  0.00    +0.000 C 
BRANCH  10  11
ATOM     11  C   UNL     1      45.674   2.283   8.446  0.00  0.00    +0.000 A 
ATOM     12  C   UNL     1      46.458   1.198   8.039  0.00  0.00    +0.000 A 
ATOM     13  C   UNL     1      47.425   1.400   7.068  0.00  0.00    +0.000 A 
ATOM     14  N   UNL     1      47.658   2.591   6.476  0.00  0.00    +0.000 NA
ATOM     15  C   UNL     1      46.893   3.626   6.881  0.00  0.00    +0.000 A 
ATOM     16  C   UNL     1      45.900   3.524   7.845  0.00  0.00    +0.000 A 
ENDBRANCH  10  11
ENDBRANCH   9  10
ENDBRANCH   8   9
ENDBRANCH   5   8
ENDBRANCH   1   2
BRANCH   1  19
ATOM     17  C   UNL     1      49.180   6.917  15.357  0.00  0.00    +0.000 C 
ATOM     18  O   UNL     1      50.259   7.065  14.784  0.00  0.00    +0.000 OA
ATOM     19  N   UNL     1      48.036   6.667  14.647  0.00  0.00    +0.000 N 
ATOM     20  H   UNL     1      47.157   6.508  15.129  0.00  0.00    +0.000 HD
BRANCH  17  28
ATOM     21  C   UNL     1      48.953   4.555  17.853  0.00  0.00    +0.000 A 
ATOM     22  N   UNL     1      48.797   3.858  18.996  0.00  0.00    +0.000 NA
ATOM     23  C   UNL     1      48.698   4.541  20.140  0.00  0.00    +0.000 A 
ATOM     24  N   UNL     1      48.736   5.861  20.285  0.00  0.00    +0.000 NA
ATOM     25  C   UNL     1      48.866   6.517  19.119  0.00  0.00    +0.000 A 
ATOM     26  S   UNL     1      48.935   8.213  19.117  0.00  0.00    +0.000 S 
ATOM     27  C   UNL     1      49.080   8.252  17.423  0.00  0.00    +0.000 A 
ATOM     28  C   UNL     1      49.080   6.997  16.826  0.00  0.00    +0.000 A 
ATOM     29  C   UNL     1      48.967   5.959  17.847  0.00  0.00    +0.000 A 
BRANCH  21  31
ATOM     30  C   UNL     1      47.856   3.231  16.287  0.00  0.00    +0.000 C 
ATOM     31  O   UNL     1      49.086   3.839  16.681  0.00  0.00    +0.000 OA
ENDBRANCH  21  31
ENDBRANCH  17  28
ENDBRANCH   1  19
TORSDOF 8
ENDMDL
MODEL 2
REMARK VINA RESULT:    -7.603      1.397      1.736
REMARK INTER + INTRA:         -12.500
REMARK INTER:                 -11.296
REMARK INTRA:                  -1.204
REMARK UNBOUND:                -1.340
REMARK  Name = 
REMARK  9 active torsions:
REMARK  status: ('A' for Active; 'I' for Inactive)
REMARK    1  A    between atoms: C_1  and  O_2
REMARK    2  A    between atoms: O_2  and  C_3
REMARK    3  A    between atoms: C_10  and  C_11
REMARK    4  A    between atoms: N_13  and  C_14
REMARK    5  A    between atoms: C_14  and  C_15
REMARK    6  A    between atoms: C_18  and  C_19
REMARK    7  A    between atoms: C_19  and  O_20
REMARK    8  A    between atoms: O_20  and  C_21
REMARK    9  A    between atoms: C_21  and  C_22
REMARK                            x       y       z     vdW  Elec       q    Type
REMARK                         _______ _______ _______ _____ _____    ______ ____
ROOT
ATOM      1  C   UNL     1      47.353   8.164  13.467  0.00  0.00    +0.000 C 
ENDROOT
BRANCH   1   2
ATOM      2  C   UNL     1      46.378   7.265  12.748  0.00  0.00    +0.000 A 
ATOM      3  C   UNL     1      45.183   7.764  12.210  0.00  0.00    +0.000 A 
ATOM      4  C   UNL     1      44.341   6.939  11.448  0.00  0.00    +0.000 A 
ATOM      5  C   UNL     1      44.681   5.600  11.204  0.00  0.00    +0.000 A 
ATOM      6  C   UNL     1      45.846   5.093  11.789  0.00  0.00    +0.000 A 
ATOM      7  C   UNL     1      46.674   5.908  12.568  0.00  0.00    +0.000 A 
BRANCH   5   8
ATOM      8  C   UNL     1      43.809   4.711  10.349  0.00  0.00    +0.000 C 
BRANCH   8   9
ATOM      9  O   UNL     1      44.605   3.728   9.690  0.00  0.00    +0.000 OA
BRANCH   9  10
ATOM     10  C   UNL     1      44.995   4.159   8.387  0.00  0.00    +0.000 C 
BRANCH  10  11
ATOM     11  C   UNL     1      45.915   3.131   7.788  0.00  0.00    +0.000 A 
ATOM     12  C   UNL     1      46.710   3.449   6.682  0.00  0.00    +0.000 A 
ATOM     13  C   UNL     1      47.543   2.475   6.156  0.00  0.00    +0.000 A 
ATOM     14  N   UNL     1      47.643   1.224   6.653  0.00  0.00    +0.000 NA
ATOM     15  C   UNL     1      46.868   0.935   7.719  0.00  0.00    +0.000 A 
ATOM     16  C   UNL     1      46.003   1.841   8.316  0.00  0.00    +0.000 A 
ENDBRANCH  10  11
ENDBRANCH   9  10
ENDBRANCH   8   9
ENDBRANCH   5   8
ENDBRANCH   1   2
BRANCH   1  19
ATOM     17  C   UNL     1      49.150   7.109  14.765  0.00  0.00    +0.000 C 
ATOM     18  O   UNL     1      49.906   7.157  13.795  0.00  0.00    +0.000 OA
ATOM     19  N   UNL     1      47.867   7.579  14.679  0.00  0.00    +0.000 N 
ATOM     20  H   UNL     1      47.237   7.500  15.471  0.00  0.00    +0.000 HD
BRANCH  17  28
ATOM     21  C   UNL     1      47.990   4.549  16.755  0.00  0.00    +0.000 A 
ATOM     22  N   UNL     1      47.718   3.658  17.730  0.00  0.00    +0.000 NA
ATOM     23  C   UNL     1      48.519   3.632  18.798  0.00  0.00    +0.000 A 
ATOM     24  N   UNL     1      49.580   4.401  19.017  0.00  0.00    +0.000 NA
ATOM     25  C   UNL     1      49.799   5.290  18.034  0.00  0.00    +0.000 A 
ATOM     26  S   UNL     1      51.117   6.354  18.147  0.00  0.00    +0.000 S 
ATOM     27  C   UNL     1      50.720   7.079  16.660  0.00  0.00    +0.000 A 
ATOM     28  C   UNL     1      49.595   6.539  16.051  0.00  0.00    +0.000 A 
ATOM     29  C   UNL     1      49.054   5.457  16.869  0.00  0.00    +0.000 A 
BRANCH  21  31
ATOM     30  C   UNL     1      47.329   3.355  14.872  0.00  0.00    +0.000 C 
ATOM     31  O   UNL     1      47.175   4.547  15.641  0.00  0.00    +0.000 OA
ENDBRANCH  21  31
ENDBRANCH  17  28
ENDBRANCH   1  19
TORSDOF 8
ENDMDL
MODEL 3
REMARK VINA RESULT:    -7.521      1.925      3.612
REMARK INTER + INTRA:         -12.378
REMARK INTER:                 -10.914
REMARK INTRA:                  -1.464
REMARK UNBOUND:                -1.340
REMARK  Name = 
REMARK  9 active torsions:
REMARK  status: ('A' for Active; 'I' for Inactive)
REMARK    1  A    between atoms: C_1  and  O_2
REMARK    2  A    between atoms: O_2  and  C_3
REMARK    3  A    between atoms: C_10  and  C_11
REMARK    4  A    between atoms: N_13  and  C_14
REMARK    5  A    between atoms: C_14  and  C_15
REMARK    6  A    between atoms: C_18  and  C_19
REMARK    7  A    between atoms: C_19  and  O_20
REMARK    8  A    between atoms: O_20  and  C_21
REMARK    9  A    between atoms: C_21  and  C_22
REMARK                            x       y       z     vdW  Elec       q    Type
REMARK                         _______ _______ _______ _____ _____    ______ ____
ROOT
ATOM      1  C   UNL     1      47.155   4.482  14.889  0.00  0.00    +0.000 C 
ENDROOT
BRANCH   1   2
ATOM      2  C   UNL     1      46.356   4.463  13.609  0.00  0.00    +0.000 A 
ATOM      3  C   UNL     1      46.002   3.258  12.985  0.00  0.00    +0.000 A 
ATOM      4  C   UNL     1      45.166   3.253  11.860  0.00  0.00    +0.000 A 
ATOM      5  C   UNL     1      44.661   4.454  11.337  0.00  0.00    +0.000 A 
ATOM      6  C   UNL     1      45.063   5.656  11.929  0.00  0.00    +0.000 A 
ATOM      7  C   UNL     1      45.916   5.663  13.038  0.00  0.00    +0.000 A 
BRANCH   5   8
ATOM      8  C   UNL     1      43.725   4.464  10.153  0.00  0.00    +0.000 C 
BRANCH   8   9
ATOM      9  O   UNL     1      44.199   3.576   9.142  0.00  0.00    +0.000 OA
BRANCH   9  10
ATOM     10  C   UNL     1      45.217   4.184   8.348  0.00  0.00    +0.000 C 
BRANCH  10  11
ATOM     11  C   UNL     1      46.056   3.104   7.721  0.00  0.00    +0.000 A 
ATOM     12  C   UNL     1      46.801   3.366   6.566  0.00  0.00    +0.000 A 
ATOM     13  C   UNL     1      47.560   2.346   6.015  0.00  0.00    +0.000 A 
ATOM     14  N   UNL     1      47.633   1.101   6.532  0.00  0.00    +0.000 NA
ATOM     15  C   UNL     1      46.908   0.867   7.646  0.00  0.00    +0.000 A 
ATOM     16  C   UNL     1      46.118   1.822   8.271  0.00  0.00    +0.000 A 
ENDBRANCH  10  11
ENDBRANCH   9  10
ENDBRANCH   8   9
ENDBRANCH   5   8
ENDBRANCH   1   2
BRANCH   1  19
ATOM     17  C   UNL     1      48.625   6.026  16.106  0.00  0.00    +0.000 C 
ATOM     18  O   UNL     1      49.279   5.084  16.552  0.00  0.00    +0.000 OA
ATOM     19  N   UNL     1      47.552   5.809  15.283  0.00  0.00    +0.000 N 
ATOM     20  H   UNL     1      46.994   6.589  14.950  0.00  0.00    +0.000 HD
BRANCH  17  28
ATOM     21  C   UNL     1      48.862   8.926  14.264  0.00  0.00    +0.000 A 
ATOM     22  N   UNL     1      49.084  10.165  13.781  0.00  0.00    +0.000 NA
ATOM     23  C   UNL     1      49.471  11.113  14.638  0.00  0.00    +0.000 A 
ATOM     24  N   UNL     1      49.669  10.973  15.945  0.00  0.00    +0.000 NA
ATOM     25  C   UNL     1      49.463   9.719  16.378  0.00  0.00    +0.000 A 
ATOM     26  S   UNL     1      49.667   9.359  18.025  0.00  0.00    +0.000 S 
ATOM     27  C   UNL     1      49.264   7.727  17.767  0.00  0.00    +0.000 A 
ATOM     28  C   UNL     1      48.968   7.420  16.445  0.00  0.00    +0.000 A 
ATOM     29  C   UNL     1      49.073   8.619  15.618  0.00  0.00    +0.000 A 
BRANCH  21  31
ATOM     30  C   UNL     1      49.504   7.452  12.584  0.00  0.00    +0.000 C 
ATOM     31  O   UNL     1      48.432   7.961  13.376  0.00  0.00    +0.000 OA
ENDBRANCH  21  31
ENDBRANCH  17  28
ENDBRANCH   1  19
TORSDOF 8
ENDMDL
MODEL 4
REMARK VINA RESULT:    -7.329      1.533      2.477
REMARK INTER + INTRA:         -12.097
REMARK INTER:                 -10.959
REMARK INTRA:                  -1.138
REMARK UNBOUND:                -1.340
REMARK  Name = 
REMARK  9 active torsions:
REMARK  status: ('A' for Active; 'I' for Inactive)
REMARK    1  A    between atoms: C_1  and  O_2
REMARK    2  A    between atoms: O_2  and  C_3
REMARK    3  A    between atoms: C_10  and  C_11
REMARK    4  A    between atoms: N_13  and  C_14
REMARK    5  A    between atoms: C_14  and  C_15
REMARK    6  A    between atoms: C_18  and  C_19
REMARK    7  A    between atoms: C_19  and  O_20
REMARK    8  A    between atoms: O_20  and  C_21
REMARK    9  A    between atoms: C_21  and  C_22
REMARK                            x       y       z     vdW  Elec       q    Type
REMARK                         _______ _______ _______ _____ _____    ______ ____
ROOT
ATOM      1  C   UNL     1      48.133   6.362  13.612  0.00  0.00    +0.000 C 
ENDROOT
BRANCH   1   2
ATOM      2  C   UNL     1      46.911   6.004  12.804  0.00  0.00    +0.000 A 
ATOM      3  C   UNL     1      46.714   6.511  11.512  0.00  0.00    +0.000 A 
ATOM      4  C   UNL     1      45.631   6.082  10.731  0.00  0.00    +0.000 A 
ATOM      5  C   UNL     1      44.724   5.132  11.225  0.00  0.00    +0.000 A 
ATOM      6  C   UNL     1      44.893   4.671  12.536  0.00  0.00    +0.000 A 
ATOM      7  C   UNL     1      45.960   5.115  13.323  0.00  0.00    +0.000 A 
BRANCH   5   8
ATOM      8  C   UNL     1      43.578   4.626  10.383  0.00  0.00    +0.000 C 
BRANCH   8   9
ATOM      9  O   UNL     1      44.074   4.000   9.200  0.00  0.00    +0.000 OA
BRANCH   9  10
ATOM     10  C   UNL     1      44.667   2.735   9.488  0.00  0.00    +0.000 C 
BRANCH  10  11
ATOM     11  C   UNL     1      45.688   2.423   8.429  0.00  0.00    +0.000 A 
ATOM     12  C   UNL     1      46.133   1.110   8.237  0.00  0.00    +0.000 A 
ATOM     13  C   UNL     1      47.077   0.862   7.253  0.00  0.00    +0.000 A 
ATOM     14  N   UNL     1      47.596   1.817   6.453  0.00  0.00    +0.000 NA
ATOM     15  C   UNL     1      47.156   3.077   6.653  0.00  0.00    +0.000 A 
ATOM     16  C   UNL     1      46.214   3.425   7.610  0.00  0.00    +0.000 A 
ENDBRANCH  10  11
ENDBRANCH   9  10
ENDBRANCH   8   9
ENDBRANCH   5   8
ENDBRANCH   1   2
BRANCH   1  19
ATOM     17  C   UNL     1      48.950   6.366  15.927  0.00  0.00    +0.000 C 
ATOM     18  O   UNL     1      50.102   6.559  15.542  0.00  0.00    +0.000 OA
ATOM     19  N   UNL     1      47.920   6.248  15.033  0.00  0.00    +0.000 N 
ATOM     20  H   UNL     1      46.978   6.050  15.356  0.00  0.00    +0.000 HD
BRANCH  17  28
ATOM     21  C   UNL     1      47.770   8.582  18.284  0.00  0.00    +0.000 A 
ATOM     22  N   UNL     1      47.385   9.243  19.394  0.00  0.00    +0.000 NA
ATOM     23  C   UNL     1      47.334   8.565  20.544  0.00  0.00    +0.000 A 
ATOM     24  N   UNL     1      47.627   7.281  20.724  0.00  0.00    +0.000 NA
ATOM     25  C   UNL     1      48.030   6.669  19.599  0.00  0.00    +0.000 A 
ATOM     26  S   UNL     1      48.442   5.022  19.644  0.00  0.00    +0.000 S 
ATOM     27  C   UNL     1      48.814   5.020  17.985  0.00  0.00    +0.000 A 
ATOM     28  C   UNL     1      48.636   6.251  17.364  0.00  0.00    +0.000 A 
ATOM     29  C   UNL     1      48.151   7.232  18.331  0.00  0.00    +0.000 A 
BRANCH  21  31
ATOM     30  C   UNL     1      49.007  10.008  16.926  0.00  0.00    +0.000 C 
ATOM     31  O   UNL     1      47.789   9.285  17.096  0.00  0.00    +0.000 OA
ENDBRANCH  21  31
ENDBRANCH  17  28
ENDBRANCH   1  19
TORSDOF 8
ENDMDL
MODEL 5
REMARK VINA RESULT:    -6.902      1.938      2.852
REMARK INTER + INTRA:         -11.470
REMARK INTER:                 -10.505
REMARK INTRA:                  -0.965
REMARK UNBOUND:                -1.340
REMARK  Name = 
REMARK  9 active torsions:
REMARK  status: ('A' for Active; 'I' for Inactive)
REMARK    1  A    between atoms: C_1  and  O_2
REMARK    2  A    between atoms: O_2  and  C_3
REMARK    3  A    between atoms: C_10  and  C_11
REMARK    4  A    between atoms: N_13  and  C_14
REMARK    5  A    between atoms: C_14  and  C_15
REMARK    6  A    between atoms: C_18  and  C_19
REMARK    7  A    between atoms: C_19  and  O_20
REMARK    8  A    between atoms: O_20  and  C_21
REMARK    9  A    between atoms: C_21  and  C_22
REMARK                            x       y       z     vdW  Elec       q    Type
REMARK                         _______ _______ _______ _____ _____    ______ ____
ROOT
ATOM      1  C   UNL     1      46.923   4.423  14.838  0.00  0.00    +0.000 C 
ENDROOT
BRANCH   1   2
ATOM      2  C   UNL     1      46.003   4.459  13.643  0.00  0.00    +0.000 A 
ATOM      3  C   UNL     1      45.436   5.660  13.192  0.00  0.00    +0.000 A 
ATOM      4  C   UNL     1      44.675   5.694  12.015  0.00  0.00    +0.000 A 
ATOM      5  C   UNL     1      44.469   4.529  11.261  0.00  0.00    +0.000 A 
ATOM      6  C   UNL     1      44.989   3.323  11.745  0.00  0.00    +0.000 A 
ATOM      7  C   UNL     1      45.730   3.284  12.931  0.00  0.00    +0.000 A 
BRANCH   5   8
ATOM      8  C   UNL     1      43.689   4.556   9.968  0.00  0.00    +0.000 C 
BRANCH   8   9
ATOM      9  O   UNL     1      44.240   3.623   9.040  0.00  0.00    +0.000 OA
BRANCH   9  10
ATOM     10  C   UNL     1      45.280   4.212   8.261  0.00  0.00    +0.000 C 
BRANCH  10  11
ATOM     11  C   UNL     1      46.148   3.119   7.701  0.00  0.00    +0.000 A 
ATOM     12  C   UNL     1      46.085   1.824   8.227  0.00  0.00    +0.000 A 
ATOM     13  C   UNL     1      46.903   0.844   7.687  0.00  0.00    +0.000 A 
ATOM     14  N   UNL     1      47.763   1.060   6.669  0.00  0.00    +0.000 NA
ATOM     15  C   UNL     1      47.810   2.315   6.176  0.00  0.00    +0.000 A 
ATOM     16  C   UNL     1      47.032   3.363   6.648  0.00  0.00    +0.000 A 
ENDBRANCH  10  11
ENDBRANCH   9  10
ENDBRANCH   8   9
ENDBRANCH   5   8
ENDBRANCH   1   2
BRANCH   1  19
ATOM     17  C   UNL     1      48.668   5.764  15.926  0.00  0.00    +0.000 C 
ATOM     18  O   UNL     1      49.033   4.791  16.585  0.00  0.00    +0.000 OA
ATOM     19  N   UNL     1      47.623   5.664  15.046  0.00  0.00    +0.000 N 
ATOM     20  H   UNL     1      47.303   6.480  14.535  0.00  0.00    +0.000 HD
BRANCH  17  28
ATOM     21  C   UNL     1      49.285   7.844  18.599  0.00  0.00    +0.000 A 
ATOM     22  N   UNL     1      49.596   8.851  19.441  0.00  0.00    +0.000 NA
ATOM     23  C   UNL     1      50.215   9.922  18.937  0.00  0.00    +0.000 A 
ATOM     24  N   UNL     1      50.569  10.115  17.671  0.00  0.00    +0.000 NA
ATOM     25  C   UNL     1      50.217   9.101  16.864  0.00  0.00    +0.000 A 
ATOM     26  S   UNL     1      50.594   9.178  15.211  0.00  0.00    +0.000 S 
ATOM     27  C   UNL     1      49.872   7.664  14.926  0.00  0.00    +0.000 A 
ATOM     28  C   UNL     1      49.336   7.071  16.063  0.00  0.00    +0.000 A 
ATOM     29  C   UNL     1      49.559   7.928  17.225  0.00  0.00    +0.000 A 
BRANCH  21  31
ATOM     30  C   UNL     1      47.858   7.059  20.259  0.00  0.00    +0.000 C 
ATOM     31  O   UNL     1      48.674   6.729  19.135  0.00  0.00    +0.000 OA
ENDBRANCH  21  31
ENDBRANCH  17  28
ENDBRANCH   1  19
TORSDOF 8
ENDMDL
MODEL 6
REMARK VINA RESULT:    -6.719      4.844      9.318
REMARK INTER + INTRA:         -11.202
REMARK INTER:                 -10.239
REMARK INTRA:                  -0.963
REMARK UNBOUND:                -1.340
REMARK  Name = 
REMARK  9 active torsions:
REMARK  status: ('A' for Active; 'I' for Inactive)
REMARK    1  A    between atoms: C_1  and  O_2
REMARK    2  A    between atoms: O_2  and  C_3
REMARK    3  A    between atoms: C_10  and  C_11
REMARK    4  A    between atoms: N_13  and  C_14
REMARK    5  A    between atoms: C_14  and  C_15
REMARK    6  A    between atoms: C_18  and  C_19
REMARK    7  A    between atoms: C_19  and  O_20
REMARK    8  A    between atoms: O_20  and  C_21
REMARK    9  A    between atoms: C_21  and  C_22
REMARK                            x       y       z     vdW  Elec       q    Type
REMARK                         _______ _______ _______ _____ _____    ______ ____
ROOT
ATOM      1  C   UNL     1      47.289   3.452  16.753  0.00  0.00    +0.000 C 
ENDROOT
BRANCH   1   2
ATOM      2  C   UNL     1      48.766   3.334  17.038  0.00  0.00    +0.000 A 
ATOM      3  C   UNL     1      49.508   4.423  17.517  0.00  0.00    +0.000 A 
ATOM      4  C   UNL     1      50.853   4.268  17.883  0.00  0.00    +0.000 A 
ATOM      5  C   UNL     1      51.482   3.018  17.781  0.00  0.00    +0.000 A 
ATOM      6  C   UNL     1      50.754   1.948  17.249  0.00  0.00    +0.000 A 
ATOM      7  C   UNL     1      49.419   2.108  16.863  0.00  0.00    +0.000 A 
BRANCH   5   8
ATOM      8  C   UNL     1      52.917   2.822  18.211  0.00  0.00    +0.000 C 
BRANCH   8   9
ATOM      9  O   UNL     1      53.138   1.463  18.585  0.00  0.00    +0.000 OA
BRANCH   9  10
ATOM     10  C   UNL     1      54.525   1.131  18.549  0.00  0.00    +0.000 C 
BRANCH  10  11
ATOM     11  C   UNL     1      54.684  -0.236  17.941  0.00  0.00    +0.000 A 
ATOM     12  C   UNL     1      54.638  -1.380  18.744  0.00  0.00    +0.000 A 
ATOM     13  C   UNL     1      54.790  -2.621  18.148  0.00  0.00    +0.000 A 
ATOM     14  N   UNL     1      54.976  -2.800  16.823  0.00  0.00    +0.000 NA
ATOM     15  C   UNL     1      55.018  -1.686  16.064  0.00  0.00    +0.000 A 
ATOM     16  C   UNL     1      54.875  -0.400  16.567  0.00  0.00    +0.000 A 
ENDBRANCH  10  11
ENDBRANCH   9  10
ENDBRANCH   8   9
ENDBRANCH   5   8
ENDBRANCH   1   2
BRANCH   1  19
ATOM     17  C   UNL     1      46.934   4.306  14.479  0.00  0.00    +0.000 C 
ATOM     18  O   UNL     1      47.177   3.198  14.003  0.00  0.00    +0.000 OA
ATOM     19  N   UNL     1      46.978   4.515  15.831  0.00  0.00    +0.000 N 
ATOM     20  H   UNL     1      46.814   5.441  16.214  0.00  0.00    +0.000 HD
BRANCH  17  28
ATOM     21  C   UNL     1      44.131   5.155  12.669  0.00  0.00    +0.000 A 
ATOM     22  N   UNL     1      43.208   5.685  11.840  0.00  0.00    +0.000 NA
ATOM     23  C   UNL     1      43.505   6.830  11.219  0.00  0.00    +0.000 A 
ATOM     24  N   UNL     1      44.633   7.524  11.326  0.00  0.00    +0.000 NA
ATOM     25  C   UNL     1      45.533   6.948  12.139  0.00  0.00    +0.000 A 
ATOM     26  S   UNL     1      47.033   7.701  12.395  0.00  0.00    +0.000 S 
ATOM     27  C   UNL     1      47.536   6.453  13.435  0.00  0.00    +0.000 A 
ATOM     28  C   UNL     1      46.592   5.449  13.611  0.00  0.00    +0.000 A 
ATOM     29  C   UNL     1      45.386   5.757  12.846  0.00  0.00    +0.000 A 
BRANCH  21  31
ATOM     30  C   UNL     1      43.671   2.888  12.431  0.00  0.00    +0.000 C 
ATOM     31  O   UNL     1      43.802   3.989  13.329  0.00  0.00    +0.000 OA
ENDBRANCH  21  31
ENDBRANCH  17  28
ENDBRANCH   1  19
TORSDOF 8
ENDMDL
MODEL 7
REMARK VINA RESULT:    -6.639      1.801      2.275
REMARK INTER + INTRA:         -11.084
REMARK INTER:                 -10.282
REMARK INTRA:                  -0.802
REMARK UNBOUND:                -1.340
REMARK  Name = 
REMARK  9 active torsions:
REMARK  status: ('A' for Active; 'I' for Inactive)
REMARK    1  A    between atoms: C_1  and  O_2
REMARK    2  A    between atoms: O_2  and  C_3
REMARK    3  A    between atoms: C_10  and  C_11
REMARK    4  A    between atoms: N_13  and  C_14
REMARK    5  A    between atoms: C_14  and  C_15
REMARK    6  A    between atoms: C_18  and  C_19
REMARK    7  A    between atoms: C_19  and  O_20
REMARK    8  A    between atoms: O_20  and  C_21
REMARK    9  A    between atoms: C_21  and  C_22
REMARK                            x       y       z     vdW  Elec       q    Type
REMARK                         _______ _______ _______ _____ _____    ______ ____
ROOT
ATOM      1  C   UNL     1      48.197   6.788  13.657  0.00  0.00    +0.000 C 
ENDROOT
BRANCH   1   2
ATOM      2  C   UNL     1      47.047   6.157  12.912  0.00  0.00    +0.000 A 
ATOM      3  C   UNL     1      46.304   5.105  13.467  0.00  0.00    +0.000 A 
ATOM      4  C   UNL     1      45.170   4.605  12.810  0.00  0.00    +0.000 A 
ATOM      5  C   UNL     1      44.752   5.151  11.587  0.00  0.00    +0.000 A 
ATOM      6  C   UNL     1      45.529   6.162  11.010  0.00  0.00    +0.000 A 
ATOM      7  C   UNL     1      46.673   6.645  11.654  0.00  0.00    +0.000 A 
BRANCH   5   8
ATOM      8  C   UNL     1      43.509   4.654  10.888  0.00  0.00    +0.000 C 
BRANCH   8   9
ATOM      9  O   UNL     1      43.832   4.191   9.578  0.00  0.00    +0.000 OA
BRANCH   9  10
ATOM     10  C   UNL     1      44.311   2.847   9.601  0.00  0.00    +0.000 C 
BRANCH  10  11
ATOM     11  C   UNL     1      45.419   2.707   8.594  0.00  0.00    +0.000 A 
ATOM     12  C   UNL     1      46.021   1.464   8.370  0.00  0.00    +0.000 A 
ATOM     13  C   UNL     1      47.041   1.375   7.436  0.00  0.00    +0.000 A 
ATOM     14  N   UNL     1      47.492   2.422   6.714  0.00  0.00    +0.000 NA
ATOM     15  C   UNL     1      46.900   3.613   6.944  0.00  0.00    +0.000 A 
ATOM     16  C   UNL     1      45.872   3.804   7.856  0.00  0.00    +0.000 A 
ENDBRANCH  10  11
ENDBRANCH   9  10
ENDBRANCH   8   9
ENDBRANCH   5   8
ENDBRANCH   1   2
BRANCH   1  19
ATOM     17  C   UNL     1      49.393   6.600  15.793  0.00  0.00    +0.000 C 
ATOM     18  O   UNL     1      50.362   7.197  15.326  0.00  0.00    +0.000 OA
ATOM     19  N   UNL     1      48.286   6.350  15.027  0.00  0.00    +0.000 N 
ATOM     20  H   UNL     1      47.506   5.823  15.407  0.00  0.00    +0.000 HD
BRANCH  17  28
ATOM     21  C   UNL     1      51.883   5.911  18.069  0.00  0.00    +0.000 A 
ATOM     22  N   UNL     1      52.643   5.519  19.111  0.00  0.00    +0.000 NA
ATOM     23  C   UNL     1      52.024   5.089  20.214  0.00  0.00    +0.000 A 
ATOM     24  N   UNL     1      50.713   5.000  20.407  0.00  0.00    +0.000 NA
ATOM     25  C   UNL     1      49.995   5.375  19.336  0.00  0.00    +0.000 A 
ATOM     26  S   UNL     1      48.299   5.328  19.407  0.00  0.00    +0.000 S 
ATOM     27  C   UNL     1      48.169   5.892  17.808  0.00  0.00    +0.000 A 
ATOM     28  C   UNL     1      49.390   6.127  17.190  0.00  0.00    +0.000 A 
ATOM     29  C   UNL     1      50.483   5.831  18.114  0.00  0.00    +0.000 A 
BRANCH  21  31
ATOM     30  C   UNL     1      53.793   5.743  16.752  0.00  0.00    +0.000 C 
ATOM     31  O   UNL     1      52.532   6.383  16.946  0.00  0.00    +0.000 OA
ENDBRANCH  21  31
ENDBRANCH  17  28
ENDBRANCH   1  19
TORSDOF 8
ENDMDL
MODEL 8
REMARK VINA RESULT:    -6.626      3.409      8.208
REMARK INTER + INTRA:         -11.065
REMARK INTER:                  -9.558
REMARK INTRA:                  -1.507
REMARK UNBOUND:                -1.340
REMARK  Name = 
REMARK  9 active torsions:
REMARK  status: ('A' for Active; 'I' for Inactive)
REMARK    1  A    between atoms: C_1  and  O_2
REMARK    2  A    between atoms: O_2  and  C_3
REMARK    3  A    between atoms: C_10  and  C_11
REMARK    4  A    between atoms: N_13  and  C_14
REMARK    5  A    between atoms: C_14  and  C_15
REMARK    6  A    between atoms: C_18  and  C_19
REMARK    7  A    between atoms: C_19  and  O_20
REMARK    8  A    between atoms: O_20  and  C_21
REMARK    9  A    between atoms: C_21  and  C_22
REMARK                            x       y       z     vdW  Elec       q    Type
REMARK                         _______ _______ _______ _____ _____    ______ ____
ROOT
ATOM      1  C   UNL     1      48.232   8.095  12.091  0.00  0.00    +0.000 C 
ENDROOT
BRANCH   1   2
ATOM      2  C   UNL     1      48.452   7.922  13.574  0.00  0.00    +0.000 A 
ATOM      3  C   UNL     1      49.246   6.882  14.079  0.00  0.00    +0.000 A 
ATOM      4  C   UNL     1      49.532   6.801  15.450  0.00  0.00    +0.000 A 
ATOM      5  C   UNL     1      49.034   7.762  16.343  0.00  0.00    +0.000 A 
ATOM      6  C   UNL     1      48.196   8.765  15.842  0.00  0.00    +0.000 A 
ATOM      7  C   UNL     1      47.892   8.833  14.478  0.00  0.00    +0.000 A 
BRANCH   5   8
ATOM      8  C   UNL     1      49.368   7.715  17.815  0.00  0.00    +0.000 C 
BRANCH   8   9
ATOM      9  O   UNL     1      49.983   6.469  18.141  0.00  0.00    +0.000 OA
BRANCH   9  10
ATOM     10  C   UNL     1      49.032   5.531  18.641  0.00  0.00    +0.000 C 
BRANCH  10  11
ATOM     11  C   UNL     1      49.118   4.268  17.828  0.00  0.00    +0.000 A 
ATOM     12  C   UNL     1      50.296   3.513  17.814  0.00  0.00    +0.000 A 
ATOM     13  C   UNL     1      50.339   2.357  17.051  0.00  0.00    +0.000 A 
ATOM     14  N   UNL     1      49.301   1.903  16.317  0.00  0.00    +0.000 NA
ATOM     15  C   UNL     1      48.174   2.645  16.342  0.00  0.00    +0.000 A 
ATOM     16  C   UNL     1      48.033   3.816  17.074  0.00  0.00    +0.000 A 
ENDBRANCH  10  11
ENDBRANCH   9  10
ENDBRANCH   8   9
ENDBRANCH   5   8
ENDBRANCH   1   2
BRANCH   1  19
ATOM     17  C   UNL     1      46.194   6.901  11.423  0.00  0.00    +0.000 C 
ATOM     18  O   UNL     1      45.491   7.794  11.896  0.00  0.00    +0.000 OA
ATOM     19  N   UNL     1      47.559   6.973  11.488  0.00  0.00    +0.000 N 
ATOM     20  H   UNL     1      48.131   6.214  11.131  0.00  0.00    +0.000 HD
BRANCH  17  28
ATOM     21  C   UNL     1      44.377   4.220  12.592  0.00  0.00    +0.000 A 
ATOM     22  N   UNL     1      43.716   3.061  12.786  0.00  0.00    +0.000 NA
ATOM     23  C   UNL     1      43.474   2.290  11.723  0.00  0.00    +0.000 A 
ATOM     24  N   UNL     1      43.817   2.540  10.463  0.00  0.00    +0.000 NA
ATOM     25  C   UNL     1      44.495   3.690  10.319  0.00  0.00    +0.000 A 
ATOM     26  S   UNL     1      45.010   4.169   8.775  0.00  0.00    +0.000 S 
ATOM     27  C   UNL     1      45.725   5.581   9.399  0.00  0.00    +0.000 A 
ATOM     28  C   UNL     1      45.592   5.721  10.774  0.00  0.00    +0.000 A 
ATOM     29  C   UNL     1      44.840   4.594  11.321  0.00  0.00    +0.000 A 
BRANCH  21  31
ATOM     30  C   UNL     1      45.919   4.876  14.204  0.00  0.00    +0.000 C 
ATOM     31  O   UNL     1      44.595   5.023  13.692  0.00  0.00    +0.000 OA
ENDBRANCH  21  31
ENDBRANCH  17  28
ENDBRANCH   1  19
TORSDOF 8
ENDMDL
MODEL 9
REMARK VINA RESULT:    -6.580      3.777      8.684
REMARK INTER + INTRA:         -10.998
REMARK INTER:                  -9.620
REMARK INTRA:                  -1.378
REMARK UNBOUND:                -1.340
REMARK  Name = 
REMARK  9 active torsions:
REMARK  status: ('A' for Active; 'I' for Inactive)
REMARK    1  A    between atoms: C_1  and  O_2
REMARK    2  A    between atoms: O_2  and  C_3
REMARK    3  A    between atoms: C_10  and  C_11
REMARK    4  A    between atoms: N_13  and  C_14
REMARK    5  A    between atoms: C_14  and  C_15
REMARK    6  A    between atoms: C_18  and  C_19
REMARK    7  A    between atoms: C_19  and  O_20
REMARK    8  A    between atoms: O_20  and  C_21
REMARK    9  A    between atoms: C_21  and  C_22
REMARK                            x       y       z     vdW  Elec       q    Type
REMARK                         _______ _______ _______ _____ _____    ______ ____
ROOT
ATOM      1  C   UNL     1      47.181   3.275  16.814  0.00  0.00    +0.000 C 
ENDROOT
BRANCH   1   2
ATOM      2  C   UNL     1      48.618   3.324  17.271  0.00  0.00    +0.000 A 
ATOM      3  C   UNL     1      49.510   2.279  16.993  0.00  0.00    +0.000 A 
ATOM      4  C   UNL     1      50.868   2.389  17.327  0.00  0.00    +0.000 A 
ATOM      5  C   UNL     1      51.362   3.550  17.941  0.00  0.00    +0.000 A 
ATOM      6  C   UNL     1      50.457   4.566  18.267  0.00  0.00    +0.000 A 
ATOM      7  C   UNL     1      49.099   4.447  17.955  0.00  0.00    +0.000 A 
BRANCH   5   8
ATOM      8  C   UNL     1      52.829   3.703  18.267  0.00  0.00    +0.000 C 
BRANCH   8   9
ATOM      9  O   UNL     1      53.229   5.064  18.110  0.00  0.00    +0.000 OA
BRANCH   9  10
ATOM     10  C   UNL     1      54.199   5.208  17.074  0.00  0.00    +0.000 C 
BRANCH  10  11
ATOM     11  C   UNL     1      53.728   6.261  16.109  0.00  0.00    +0.000 A 
ATOM     12  C   UNL     1      52.440   6.797  16.216  0.00  0.00    +0.000 A 
ATOM     13  C   UNL     1      52.042   7.764  15.307  0.00  0.00    +0.000 A 
ATOM     14  N   UNL     1      52.829   8.234  14.316  0.00  0.00    +0.000 NA
ATOM     15  C   UNL     1      54.067   7.705  14.228  0.00  0.00    +0.000 A 
ATOM     16  C   UNL     1      54.558   6.734  15.089  0.00  0.00    +0.000 A 
ENDBRANCH  10  11
ENDBRANCH   9  10
ENDBRANCH   8   9
ENDBRANCH   5   8
ENDBRANCH   1   2
BRANCH   1  19
ATOM     17  C   UNL     1      46.953   4.200  14.552  0.00  0.00    +0.000 C 
ATOM     18  O   UNL     1      47.364   3.151  14.059  0.00  0.00    +0.000 OA
ATOM     19  N   UNL     1      46.842   4.344  15.909  0.00  0.00    +0.000 N 
ATOM     20  H   UNL     1      46.540   5.226  16.310  0.00  0.00    +0.000 HD
BRANCH  17  28
ATOM     21  C   UNL     1      44.139   4.952  12.714  0.00  0.00    +0.000 A 
ATOM     22  N   UNL     1      43.205   5.453  11.882  0.00  0.00    +0.000 NA
ATOM     23  C   UNL     1      43.456   6.623  11.287  0.00  0.00    +0.000 A 
ATOM     24  N   UNL     1      44.548   7.368  11.425  0.00  0.00    +0.000 NA
ATOM     25  C   UNL     1      45.462   6.818  12.241  0.00  0.00    +0.000 A 
ATOM     26  S   UNL     1      46.920   7.637  12.535  0.00  0.00    +0.000 S 
ATOM     27  C   UNL     1      47.467   6.394  13.558  0.00  0.00    +0.000 A 
ATOM     28  C   UNL     1      46.570   5.343  13.701  0.00  0.00    +0.000 A 
ATOM     29  C   UNL     1      45.362   5.608  12.923  0.00  0.00    +0.000 A 
BRANCH  21  31
ATOM     30  C   UNL     1      43.588   2.712  12.414  0.00  0.00    +0.000 C 
ATOM     31  O   UNL     1      43.857   3.758  13.347  0.00  0.00    +0.000 OA
ENDBRANCH  21  31
ENDBRANCH  17  28
ENDBRANCH   1  19
TORSDOF 8
ENDMDL
