MODEL 1
REMARK VINA RESULT:    -6.473      0.000      0.000
REMARK INTER + INTRA:          -8.083
REMARK INTER:                  -7.798
REMARK INTRA:                  -0.285
REMARK UNBOUND:                -0.285
REMARK  Name = 
REMARK  4 active torsions:
REMARK  status: ('A' for Active; 'I' for Inactive)
REMARK    1  A    between atoms: N_1  and  C_2
REMARK    2  A    between atoms: C_2  and  C_3
REMARK    3  A    between atoms: C_7  and  C_8
REMARK    4  A    between atoms: C_9  and  C_10
REMARK                            x       y       z     vdW  Elec       q    Type
REMARK                         _______ _______ _______ _____ _____    ______ ____
ROOT
ATOM      1  C   UNL     1      43.007   5.661  11.775  0.00  0.00    +0.000 A 
ATOM      2  C   UNL     1      42.820   5.068  13.019  0.00  0.00    +0.000 A 
ATOM      3  N   UNL     1      43.345   3.865  13.345  0.00  0.00    +0.000 NA
ATOM      4  C   UNL     1      44.086   3.283  12.370  0.00  0.00    +0.000 A 
ATOM      5  C   UNL     1      44.298   3.862  11.121  0.00  0.00    +0.000 A 
ATOM      6  N   UNL     1      43.759   5.066  10.807  0.00  0.00    +0.000 NA
ENDROOT
BRANCH   5   7
ATOM      7  C   UNL     1      45.073   3.158  10.091  0.00  0.00    +0.000 C 
ATOM      8  C   UNL     1      45.334   3.652   8.869  0.00  0.00    +0.000 C 
BRANCH   8   9
ATOM      9  C   UNL     1      46.027   2.910   7.805  0.00  0.00    +0.000 A 
ATOM     10  C   UNL     1      46.406   3.513   6.596  0.00  0.00    +0.000 A 
ATOM     11  C   UNL     1      47.136   2.804   5.639  0.00  0.00    +0.000 A 
ATOM     12  C   UNL     1      47.507   1.486   5.882  0.00  0.00    +0.000 A 
ATOM     13  C   UNL     1      47.143   0.873   7.080  0.00  0.00    +0.000 A 
ATOM     14  C   UNL     1      46.411   1.581   8.036  0.00  0.00    +0.000 A 
ENDBRANCH   8   9
ENDBRANCH   5   7
BRANCH   1  15
ATOM     15  C   UNL     1      42.424   7.019  11.476  0.00  0.00    +0.000 C 
BRANCH  15  16
ATOM     16  N   UNL     1      43.459   7.992  11.125  0.00  0.00    +0.000 NA
ATOM     17  H   UNL     1      43.278   8.860  11.623  0.00  0.00    +0.000 HD
ATOM     18  H   UNL     1      43.347   8.211  10.132  0.00  0.00    +0.000 HD
ENDBRANCH  15  16
ENDBRANCH   1  15
TORSDOF 4
ENDMDL
MODEL 2
REMARK VINA RESULT:    -6.257      1.509      2.327
REMARK INTER + INTRA:          -7.823
REMARK INTER:                  -7.552
REMARK INTRA:                  -0.270
REMARK UNBOUND:                -0.285
REMARK  Name = 
REMARK  4 active torsions:
REMARK  status: ('A' for Active; 'I' for Inactive)
REMARK    1  A    between atoms: N_1  and  C_2
REMARK    2  A    between atoms: C_2  and  C_3
REMARK    3  A    between atoms: C_7  and  C_8
REMARK    4  A    between atoms: C_9  and  C_10
REMARK                            x       y       z     vdW  Elec       q    Type
REMARK                         _______ _______ _______ _____ _____    ______ ____
ROOT
ATOM      1  C   UNL     1      44.850   4.794  13.044  0.00  0.00    +0.000 A 
ATOM      2  C   UNL     1      43.524   5.187  13.193  0.00  0.00    +0.000 A 
ATOM      3  N   UNL     1      42.655   5.246  12.158  0.00  0.00    +0.000 NA
ATOM      4  C   UNL     1      43.170   4.875  10.960  0.00  0.00    +0.000 A 
ATOM      5  C   UNL     1      44.490   4.467  10.787  0.00  0.00    +0.000 A 
ATOM      6  N   UNL     1      45.351   4.419  11.834  0.00  0.00    +0.000 NA
ENDROOT
BRANCH   5   7
ATOM      7  C   UNL     1      44.999   4.122   9.453  0.00  0.00    +0.000 C 
ATOM      8  C   UNL     1      45.578   2.950   9.143  0.00  0.00    +0.000 C 
BRANCH   8   9
ATOM      9  C   UNL     1      46.174   2.640   7.834  0.00  0.00    +0.000 A 
ATOM     10  C   UNL     1      46.209   3.573   6.787  0.00  0.00    +0.000 A 
ATOM     11  C   UNL     1      46.855   3.278   5.584  0.00  0.00    +0.000 A 
ATOM     12  C   UNL     1      47.483   2.048   5.415  0.00  0.00    +0.000 A 
ATOM     13  C   UNL     1      47.461   1.111   6.446  0.00  0.00    +0.000 A 
ATOM     14  C   UNL     1      46.814   1.406   7.648  0.00  0.00    +0.000 A 
ENDBRANCH   8   9
ENDBRANCH   5   7
BRANCH   1  15
ATOM     15  C   UNL     1      45.767   4.717  14.239  0.00  0.00    +0.000 C 
BRANCH  15  16
ATOM     16  N   UNL     1      46.742   3.634  14.108  0.00  0.00    +0.000 NA
ATOM     17  H   UNL     1      46.297   2.842  13.650  0.00  0.00    +0.000 HD
ATOM     18  H   UNL     1      46.973   3.316  15.052  0.00  0.00    +0.000 HD
ENDBRANCH  15  16
ENDBRANCH   1  15
TORSDOF 4
ENDMDL
MODEL 3
REMARK VINA RESULT:    -5.692      3.300      6.904
REMARK INTER + INTRA:          -7.142
REMARK INTER:                  -6.895
REMARK INTRA:                  -0.247
REMARK UNBOUND:                -0.285
REMARK  Name = 
REMARK  4 active torsions:
REMARK  status: ('A' for Active; 'I' for Inactive)
REMARK    1  A    between atoms: N_1  and  C_2
REMARK    2  A    between atoms: C_2  and  C_3
REMARK    3  A    between atoms: C_7  and  C_8
REMARK    4  A    between atoms: C_9  and  C_10
REMARK                            x       y       z     vdW  Elec       q    Type
REMARK                         _______ _______ _______ _____ _____    ______ ____
ROOT
ATOM      1  C   UNL     1      46.495   2.811   7.165  0.00  0.00    +0.000 A 
ATOM      2  C   UNL     1      45.938   1.702   7.794  0.00  0.00    +0.000 A 
ATOM      3  N   UNL     1      45.283   1.780   8.976  0.00  0.00    +0.000 NA
ATOM      4  C   UNL     1      45.195   3.028   9.497  0.00  0.00    +0.000 A 
ATOM      5  C   UNL     1      45.733   4.155   8.881  0.00  0.00    +0.000 A 
ATOM      6  N   UNL     1      46.391   4.060   7.700  0.00  0.00    +0.000 NA
ENDROOT
BRANCH   5   7
ATOM      7  C   UNL     1      45.642   5.475   9.521  0.00  0.00    +0.000 C 
ATOM      8  C   UNL     1      45.745   5.683  10.843  0.00  0.00    +0.000 C 
BRANCH   8   9
ATOM      9  C   UNL     1      45.559   6.990  11.494  0.00  0.00    +0.000 A 
ATOM     10  C   UNL     1      46.418   7.454  12.500  0.00  0.00    +0.000 A 
ATOM     11  C   UNL     1      46.266   8.734  13.041  0.00  0.00    +0.000 A 
ATOM     12  C   UNL     1      45.257   9.570  12.574  0.00  0.00    +0.000 A 
ATOM     13  C   UNL     1      44.397   9.126  11.571  0.00  0.00    +0.000 A 
ATOM     14  C   UNL     1      44.548   7.846  11.032  0.00  0.00    +0.000 A 
ENDBRANCH   8   9
ENDBRANCH   5   7
BRANCH   1  15
ATOM     15  C   UNL     1      47.186   2.670   5.833  0.00  0.00    +0.000 C 
BRANCH  15  16
ATOM     16  N   UNL     1      48.368   1.811   5.921  0.00  0.00    +0.000 NA
ATOM     17  H   UNL     1      48.404   1.215   5.097  0.00  0.00    +0.000 HD
ATOM     18  H   UNL     1      48.229   1.181   6.714  0.00  0.00    +0.000 HD
ENDBRANCH  15  16
ENDBRANCH   1  15
TORSDOF 4
ENDMDL
MODEL 4
REMARK VINA RESULT:    -5.559      4.710      7.667
REMARK INTER + INTRA:          -6.982
REMARK INTER:                  -6.685
REMARK INTRA:                  -0.297
REMARK UNBOUND:                -0.285
REMARK  Name = 
REMARK  4 active torsions:
REMARK  status: ('A' for Active; 'I' for Inactive)
REMARK    1  A    between atoms: N_1  and  C_2
REMARK    2  A    between atoms: C_2  and  C_3
REMARK    3  A    between atoms: C_7  and  C_8
REMARK    4  A    between atoms: C_9  and  C_10
REMARK                            x       y       z     vdW  Elec       q    Type
REMARK                         _______ _______ _______ _____ _____    ______ ____
ROOT
ATOM      1  C   UNL     1      44.506   4.167  11.590  0.00  0.00    +0.000 A 
ATOM      2  C   UNL     1      44.718   5.145  10.624  0.00  0.00    +0.000 A 
ATOM      3  N   UNL     1      45.642   6.124  10.761  0.00  0.00    +0.000 NA
ATOM      4  C   UNL     1      46.362   6.071  11.908  0.00  0.00    +0.000 A 
ATOM      5  C   UNL     1      46.177   5.096  12.885  0.00  0.00    +0.000 A 
ATOM      6  N   UNL     1      45.243   4.125  12.736  0.00  0.00    +0.000 NA
ENDROOT
BRANCH   5   7
ATOM      7  C   UNL     1      46.960   5.122  14.128  0.00  0.00    +0.000 C 
ATOM      8  C   UNL     1      46.966   4.135  15.039  0.00  0.00    +0.000 C 
BRANCH   8   9
ATOM      9  C   UNL     1      47.674   4.201  16.328  0.00  0.00    +0.000 A 
ATOM     10  C   UNL     1      47.663   3.139  17.243  0.00  0.00    +0.000 A 
ATOM     11  C   UNL     1      48.412   3.199  18.421  0.00  0.00    +0.000 A 
ATOM     12  C   UNL     1      49.190   4.319  18.695  0.00  0.00    +0.000 A 
ATOM     13  C   UNL     1      49.215   5.382  17.793  0.00  0.00    +0.000 A 
ATOM     14  C   UNL     1      48.465   5.323  16.617  0.00  0.00    +0.000 A 
ENDBRANCH   8   9
ENDBRANCH   5   7
BRANCH   1  15
ATOM     15  C   UNL     1      43.483   3.082  11.371  0.00  0.00    +0.000 C 
BRANCH  15  16
ATOM     16  N   UNL     1      43.510   2.084  12.441  0.00  0.00    +0.000 NA
ATOM     17  H   UNL     1      43.078   1.227  12.105  0.00  0.00    +0.000 HD
ATOM     18  H   UNL     1      42.904   2.425  13.192  0.00  0.00    +0.000 HD
ENDBRANCH  15  16
ENDBRANCH   1  15
TORSDOF 4
ENDMDL
MODEL 5
REMARK VINA RESULT:    -5.463      4.273      6.146
REMARK INTER + INTRA:          -6.866
REMARK INTER:                  -6.590
REMARK INTRA:                  -0.276
REMARK UNBOUND:                -0.285
REMARK  Name = 
REMARK  4 active torsions:
REMARK  status: ('A' for Active; 'I' for Inactive)
REMARK    1  A    between atoms: N_1  and  C_2
REMARK    2  A    between atoms: C_2  and  C_3
REMARK    3  A    between atoms: C_7  and  C_8
REMARK    4  A    between atoms: C_9  and  C_10
REMARK                            x       y       z     vdW  Elec       q    Type
REMARK                         _______ _______ _______ _____ _____    ______ ____
ROOT
ATOM      1  C   UNL     1      44.367   3.290  10.687  0.00  0.00    +0.000 A 
ATOM      2  C   UNL     1      43.653   2.874  11.806  0.00  0.00    +0.000 A 
ATOM      3  N   UNL     1      43.585   3.600  12.946  0.00  0.00    +0.000 NA
ATOM      4  C   UNL     1      44.255   4.779  12.911  0.00  0.00    +0.000 A 
ATOM      5  C   UNL     1      44.967   5.223  11.799  0.00  0.00    +0.000 A 
ATOM      6  N   UNL     1      45.030   4.480  10.667  0.00  0.00    +0.000 NA
ENDROOT
BRANCH   5   7
ATOM      7  C   UNL     1      45.709   6.490  11.841  0.00  0.00    +0.000 C 
ATOM      8  C   UNL     1      47.045   6.588  11.743  0.00  0.00    +0.000 C 
BRANCH   8   9
ATOM      9  C   UNL     1      47.797   7.845  11.881  0.00  0.00    +0.000 A 
ATOM     10  C   UNL     1      49.162   7.939  11.574  0.00  0.00    +0.000 A 
ATOM     11  C   UNL     1      49.829   9.165  11.636  0.00  0.00    +0.000 A 
ATOM     12  C   UNL     1      49.137  10.316  11.997  0.00  0.00    +0.000 A 
ATOM     13  C   UNL     1      47.778  10.241  12.301  0.00  0.00    +0.000 A 
ATOM     14  C   UNL     1      47.112   9.016  12.240  0.00  0.00    +0.000 A 
ENDBRANCH   8   9
ENDBRANCH   5   7
BRANCH   1  15
ATOM     15  C   UNL     1      44.382   2.454   9.433  0.00  0.00    +0.000 C 
BRANCH  15  16
ATOM     16  N   UNL     1      44.347   3.282   8.226  0.00  0.00    +0.000 NA
ATOM     17  H   UNL     1      44.204   2.681   7.418  0.00  0.00    +0.000 HD
ATOM     18  H   UNL     1      45.277   3.690   8.109  0.00  0.00    +0.000 HD
ENDBRANCH  15  16
ENDBRANCH   1  15
TORSDOF 4
ENDMDL
MODEL 6
REMARK VINA RESULT:    -5.334      4.630      6.166
REMARK INTER + INTRA:          -6.711
REMARK INTER:                  -6.425
REMARK INTRA:                  -0.285
REMARK UNBOUND:                -0.285
REMARK  Name = 
REMARK  4 active torsions:
REMARK  status: ('A' for Active; 'I' for Inactive)
REMARK    1  A    between atoms: N_1  and  C_2
REMARK    2  A    between atoms: C_2  and  C_3
REMARK    3  A    between atoms: C_7  and  C_8
REMARK    4  A    between atoms: C_9  and  C_10
REMARK                            x       y       z     vdW  Elec       q    Type
REMARK                         _______ _______ _______ _____ _____    ______ ____
ROOT
ATOM      1  C   UNL     1      48.191   4.755  16.902  0.00  0.00    +0.000 A 
ATOM      2  C   UNL     1      49.063   5.816  17.121  0.00  0.00    +0.000 A 
ATOM      3  N   UNL     1      49.313   6.766  16.190  0.00  0.00    +0.000 NA
ATOM      4  C   UNL     1      48.634   6.615  15.027  0.00  0.00    +0.000 A 
ATOM      5  C   UNL     1      47.747   5.569  14.787  0.00  0.00    +0.000 A 
ATOM      6  N   UNL     1      47.511   4.622  15.728  0.00  0.00    +0.000 NA
ENDROOT
BRANCH   5   7
ATOM      7  C   UNL     1      47.077   5.438  13.486  0.00  0.00    +0.000 C 
ATOM      8  C   UNL     1      46.062   4.593  13.239  0.00  0.00    +0.000 C 
BRANCH   8   9
ATOM      9  C   UNL     1      45.454   4.392  11.914  0.00  0.00    +0.000 A 
ATOM     10  C   UNL     1      45.666   5.281  10.851  0.00  0.00    +0.000 A 
ATOM     11  C   UNL     1      45.143   5.020   9.582  0.00  0.00    +0.000 A 
ATOM     12  C   UNL     1      44.410   3.860   9.357  0.00  0.00    +0.000 A 
ATOM     13  C   UNL     1      44.193   2.963  10.402  0.00  0.00    +0.000 A 
ATOM     14  C   UNL     1      44.714   3.226  11.671  0.00  0.00    +0.000 A 
ENDBRANCH   8   9
ENDBRANCH   5   7
BRANCH   1  15
ATOM     15  C   UNL     1      47.926   3.743  17.987  0.00  0.00    +0.000 C 
BRANCH  15  16
ATOM     16  N   UNL     1      46.774   2.896  17.672  0.00  0.00    +0.000 NA
ATOM     17  H   UNL     1      46.661   2.206  18.411  0.00  0.00    +0.000 HD
ATOM     18  H   UNL     1      47.007   2.366  16.829  0.00  0.00    +0.000 HD
ENDBRANCH  15  16
ENDBRANCH   1  15
TORSDOF 4
ENDMDL
MODEL 7
REMARK VINA RESULT:    -5.271      4.331      6.919
REMARK INTER + INTRA:          -6.635
REMARK INTER:                  -6.385
REMARK INTRA:                  -0.250
REMARK UNBOUND:                -0.285
REMARK  Name = 
REMARK  4 active torsions:
REMARK  status: ('A' for Active; 'I' for Inactive)
REMARK    1  A    between atoms: N_1  and  C_2
REMARK    2  A    between atoms: C_2  and  C_3
REMARK    3  A    between atoms: C_7  and  C_8
REMARK    4  A    between atoms: C_9  and  C_10
REMARK                            x       y       z     vdW  Elec       q    Type
REMARK                         _______ _______ _______ _____ _____    ______ ____
ROOT
ATOM      1  C   UNL     1      44.418   4.654  10.594  0.00  0.00    +0.000 A 
ATOM      2  C   UNL     1      43.119   4.860  11.047  0.00  0.00    +0.000 A 
ATOM      3  N   UNL     1      42.829   5.150  12.337  0.00  0.00    +0.000 NA
ATOM      4  C   UNL     1      43.906   5.242  13.156  0.00  0.00    +0.000 A 
ATOM      5  C   UNL     1      45.216   5.052  12.723  0.00  0.00    +0.000 A 
ATOM      6  N   UNL     1      45.489   4.756  11.429  0.00  0.00    +0.000 NA
ENDROOT
BRANCH   5   7
ATOM      7  C   UNL     1      46.335   5.121  13.672  0.00  0.00    +0.000 C 
ATOM      8  C   UNL     1      46.537   4.246  14.671  0.00  0.00    +0.000 C 
BRANCH   8   9
ATOM      9  C   UNL     1      47.602   4.368  15.678  0.00  0.00    +0.000 A 
ATOM     10  C   UNL     1      48.275   5.576  15.914  0.00  0.00    +0.000 A 
ATOM     11  C   UNL     1      49.224   5.682  16.934  0.00  0.00    +0.000 A 
ATOM     12  C   UNL     1      49.505   4.583  17.739  0.00  0.00    +0.000 A 
ATOM     13  C   UNL     1      48.842   3.377  17.522  0.00  0.00    +0.000 A 
ATOM     14  C   UNL     1      47.895   3.270  16.501  0.00  0.00    +0.000 A 
ENDBRANCH   8   9
ENDBRANCH   5   7
BRANCH   1  15
ATOM     15  C   UNL     1      44.686   4.364   9.139  0.00  0.00    +0.000 C 
BRANCH  15  16
ATOM     16  N   UNL     1      45.818   5.137   8.628  0.00  0.00    +0.000 NA
ATOM     17  H   UNL     1      46.678   4.630   8.820  0.00  0.00    +0.000 HD
ATOM     18  H   UNL     1      45.872   5.998   9.179  0.00  0.00    +0.000 HD
ENDBRANCH  15  16
ENDBRANCH   1  15
TORSDOF 4
ENDMDL
MODEL 8
REMARK VINA RESULT:    -5.264      4.235      6.585
REMARK INTER + INTRA:          -6.626
REMARK INTER:                  -6.358
REMARK INTRA:                  -0.269
REMARK UNBOUND:                -0.285
REMARK  Name = 
REMARK  4 active torsions:
REMARK  status: ('A' for Active; 'I' for Inactive)
REMARK    1  A    between atoms: N_1  and  C_2
REMARK    2  A    between atoms: C_2  and  C_3
REMARK    3  A    between atoms: C_7  and  C_8
REMARK    4  A    between atoms: C_9  and  C_10
REMARK                            x       y       z     vdW  Elec       q    Type
REMARK                         _______ _______ _______ _____ _____    ______ ____
ROOT
ATOM      1  C   UNL     1      45.180   3.628   8.687  0.00  0.00    +0.000 A 
ATOM      2  C   UNL     1      44.251   2.805   9.316  0.00  0.00    +0.000 A 
ATOM      3  N   UNL     1      43.764   3.059  10.552  0.00  0.00    +0.000 NA
ATOM      4  C   UNL     1      44.238   4.191  11.129  0.00  0.00    +0.000 A 
ATOM      5  C   UNL     1      45.158   5.037  10.515  0.00  0.00    +0.000 A 
ATOM      6  N   UNL     1      45.641   4.765   9.278  0.00  0.00    +0.000 NA
ENDROOT
BRANCH   5   7
ATOM      7  C   UNL     1      45.666   6.225  11.214  0.00  0.00    +0.000 C 
ATOM      8  C   UNL     1      46.969   6.497  11.395  0.00  0.00    +0.000 C 
BRANCH   8   9
ATOM      9  C   UNL     1      47.478   7.635  12.177  0.00  0.00    +0.000 A 
ATOM     10  C   UNL     1      46.947   7.981  13.428  0.00  0.00    +0.000 A 
ATOM     11  C   UNL     1      47.505   9.015  14.183  0.00  0.00    +0.000 A 
ATOM     12  C   UNL     1      48.609   9.711  13.702  0.00  0.00    +0.000 A 
ATOM     13  C   UNL     1      49.152   9.377  12.462  0.00  0.00    +0.000 A 
ATOM     14  C   UNL     1      48.592   8.345  11.706  0.00  0.00    +0.000 A 
ENDBRANCH   8   9
ENDBRANCH   5   7
BRANCH   1  15
ATOM     15  C   UNL     1      45.665   3.312   7.294  0.00  0.00    +0.000 C 
BRANCH  15  16
ATOM     16  N   UNL     1      46.788   4.165   6.902  0.00  0.00    +0.000 NA
ATOM     17  H   UNL     1      46.667   4.445   5.932  0.00  0.00    +0.000 HD
ATOM     18  H   UNL     1      47.632   3.588   6.923  0.00  0.00    +0.000 HD
ENDBRANCH  15  16
ENDBRANCH   1  15
TORSDOF 4
ENDMDL
MODEL 9
REMARK VINA RESULT:    -5.193      5.121      5.998
REMARK INTER + INTRA:          -6.540
REMARK INTER:                  -6.254
REMARK INTRA:                  -0.287
REMARK UNBOUND:                -0.285
REMARK  Name = 
REMARK  4 active torsions:
REMARK  status: ('A' for Active; 'I' for Inactive)
REMARK    1  A    between atoms: N_1  and  C_2
REMARK    2  A    between atoms: C_2  and  C_3
REMARK    3  A    between atoms: C_7  and  C_8
REMARK    4  A    between atoms: C_9  and  C_10
REMARK                            x       y       z     vdW  Elec       q    Type
REMARK                         _______ _______ _______ _____ _____    ______ ____
ROOT
ATOM      1  C   UNL     1      43.949   5.454  12.145  0.00  0.00    +0.000 A 
ATOM      2  C   UNL     1      44.013   4.360  13.002  0.00  0.00    +0.000 A 
ATOM      3  N   UNL     1      45.166   3.940  13.571  0.00  0.00    +0.000 NA
ATOM      4  C   UNL     1      46.258   4.678  13.257  0.00  0.00    +0.000 A 
ATOM      5  C   UNL     1      46.218   5.784  12.412  0.00  0.00    +0.000 A 
ATOM      6  N   UNL     1      45.056   6.189  11.844  0.00  0.00    +0.000 NA
ENDROOT
BRANCH   5   7
ATOM      7  C   UNL     1      47.447   6.515  12.075  0.00  0.00    +0.000 C 
ATOM      8  C   UNL     1      47.557   7.853  12.074  0.00  0.00    +0.000 C 
BRANCH   8   9
ATOM      9  C   UNL     1      48.758   8.587  11.644  0.00  0.00    +0.000 A 
ATOM     10  C   UNL     1      48.752   9.973  11.431  0.00  0.00    +0.000 A 
ATOM     11  C   UNL     1      49.928  10.654  11.104  0.00  0.00    +0.000 A 
ATOM     12  C   UNL     1      51.127   9.958  10.995  0.00  0.00    +0.000 A 
ATOM     13  C   UNL     1      51.151   8.581  11.207  0.00  0.00    +0.000 A 
ATOM     14  C   UNL     1      49.976   7.900  11.533  0.00  0.00    +0.000 A 
ENDBRANCH   8   9
ENDBRANCH   5   7
BRANCH   1  15
ATOM     15  C   UNL     1      42.630   5.897  11.563  0.00  0.00    +0.000 C 
BRANCH  15  16
ATOM     16  N   UNL     1      42.679   7.283  11.097  0.00  0.00    +0.000 NA
ATOM     17  H   UNL     1      42.679   7.903  11.904  0.00  0.00    +0.000 HD
ATOM     18  H   UNL     1      41.803   7.470  10.603  0.00  0.00    +0.000 HD
ENDBRANCH  15  16
ENDBRANCH   1  15
TORSDOF 4
ENDMDL
