MODEL 1
REMARK VINA RESULT:    -6.947      0.000      0.000
REMARK INTER + INTRA:          -9.247
REMARK INTER:                  -8.775
REMARK INTRA:                  -0.473
REMARK UNBOUND:                -0.473
REMARK  Name = 
REMARK  6 active torsions:
REMARK  status: ('A' for Active; 'I' for Inactive)
REMARK    1  A    between atoms: C_1  and  O_2
REMARK    2  A    between atoms: O_2  and  C_3
REMARK    3  A    between atoms: N_10  and  C_11
REMARK    4  A    between atoms: C_11  and  C_12
REMARK    5  A    between atoms: C_16  and  C_17
REMARK    6  A    between atoms: C_17  and  N_18
REMARK                            x       y       z     vdW  Elec       q    Type
REMARK                         _______ _______ _______ _____ _____    ______ ____
ROOT
ATOM      1  C   UNL     1      46.596   6.541  12.934  0.00  0.00    +0.000 A 
ATOM      2  C   UNL     1      46.817   6.660  11.563  0.00  0.00    +0.000 A 
ATOM      3  C   UNL     1      46.094   5.893  10.640  0.00  0.00    +0.000 A 
ATOM      4  C   UNL     1      45.122   5.008  11.128  0.00  0.00    +0.000 A 
ATOM      5  C   UNL     1      44.853   4.896  12.494  0.00  0.00    +0.000 A 
ATOM      6  C   UNL     1      43.790   3.966  12.642  0.00  0.00    +0.000 A 
ATOM      7  C   UNL     1      43.429   3.541  11.384  0.00  0.00    +0.000 A 
ATOM      8  N   UNL     1      44.274   4.134  10.473  0.00  0.00    +0.000 N 
ATOM      9  C   UNL     1      45.606   5.667  13.404  0.00  0.00    +0.000 A 
ENDROOT
BRANCH   1  11
ATOM     10  C   UNL     1      48.614   6.827  14.152  0.00  0.00    +0.000 C 
ATOM     11  O   UNL     1      47.265   7.221  13.917  0.00  0.00    +0.000 OA
ENDBRANCH   1  11
BRANCH   8  12
ATOM     12  C   UNL     1      44.172   3.968   9.025  0.00  0.00    +0.000 C 
BRANCH  12  13
ATOM     13  C   UNL     1      45.208   3.043   8.427  0.00  0.00    +0.000 A 
ATOM     14  C   UNL     1      45.356   1.735   8.891  0.00  0.00    +0.000 A 
ATOM     15  C   UNL     1      46.165   0.850   8.186  0.00  0.00    +0.000 A 
ATOM     16  C   UNL     1      46.817   1.289   7.042  0.00  0.00    +0.000 A 
ATOM     17  C   UNL     1      46.668   2.615   6.649  0.00  0.00    +0.000 A 
ATOM     18  N   UNL     1      45.865   3.488   7.318  0.00  0.00    +0.000 NA
BRANCH  17  19
ATOM     19  C   UNL     1      47.391   3.118   5.414  0.00  0.00    +0.000 C 
BRANCH  19  20
ATOM     20  N   UNL     1      48.439   2.200   4.951  0.00  0.00    +0.000 NA
ATOM     21  H   UNL     1      49.338   2.673   5.053  0.00  0.00    +0.000 HD
ATOM     22  H   UNL     1      48.317   2.038   3.954  0.00  0.00    +0.000 HD
ENDBRANCH  19  20
ENDBRANCH  17  19
ENDBRANCH  12  13
ENDBRANCH   8  12
TORSDOF 5
ENDMDL
MODEL 2
REMARK VINA RESULT:    -6.897      1.893      2.445
REMARK INTER + INTRA:          -9.183
REMARK INTER:                  -8.805
REMARK INTRA:                  -0.378
REMARK UNBOUND:                -0.473
REMARK  Name = 
REMARK  6 active torsions:
REMARK  status: ('A' for Active; 'I' for Inactive)
REMARK    1  A    between atoms: C_1  and  O_2
REMARK    2  A    between atoms: O_2  and  C_3
REMARK    3  A    between atoms: N_10  and  C_11
REMARK    4  A    between atoms: C_11  and  C_12
REMARK    5  A    between atoms: C_16  and  C_17
REMARK    6  A    between atoms: C_17  and  N_18
REMARK                            x       y       z     vdW  Elec       q    Type
REMARK                         _______ _______ _______ _____ _____    ______ ____
ROOT
ATOM      1  C   UNL     1      46.741   4.718  14.274  0.00  0.00    +0.000 A 
ATOM      2  C   UNL     1      46.908   3.503  13.611  0.00  0.00    +0.000 A 
ATOM      3  C   UNL     1      46.123   3.165  12.501  0.00  0.00    +0.000 A 
ATOM      4  C   UNL     1      45.169   4.092  12.056  0.00  0.00    +0.000 A 
ATOM      5  C   UNL     1      45.005   5.332  12.678  0.00  0.00    +0.000 A 
ATOM      6  C   UNL     1      44.009   6.041  11.955  0.00  0.00    +0.000 A 
ATOM      7  C   UNL     1      43.595   5.238  10.917  0.00  0.00    +0.000 A 
ATOM      8  N   UNL     1      44.262   4.037  11.013  0.00  0.00    +0.000 N 
ATOM      9  C   UNL     1      45.796   5.641  13.804  0.00  0.00    +0.000 A 
ENDROOT
BRANCH   1  11
ATOM     10  C   UNL     1      47.371   4.277  16.521  0.00  0.00    +0.000 C 
ATOM     11  O   UNL     1      47.434   5.130  15.381  0.00  0.00    +0.000 OA
ENDBRANCH   1  11
BRANCH   8  12
ATOM     12  C   UNL     1      44.128   2.941  10.056  0.00  0.00    +0.000 C 
BRANCH  12  13
ATOM     13  C   UNL     1      45.093   3.003   8.894  0.00  0.00    +0.000 A 
ATOM     14  C   UNL     1      45.511   4.228   8.373  0.00  0.00    +0.000 A 
ATOM     15  C   UNL     1      46.551   4.256   7.450  0.00  0.00    +0.000 A 
ATOM     16  C   UNL     1      47.144   3.065   7.058  0.00  0.00    +0.000 A 
ATOM     17  C   UNL     1      46.658   1.868   7.576  0.00  0.00    +0.000 A 
ATOM     18  N   UNL     1      45.653   1.827   8.494  0.00  0.00    +0.000 NA
BRANCH  17  19
ATOM     19  C   UNL     1      47.279   0.555   7.142  0.00  0.00    +0.000 C 
BRANCH  19  20
ATOM     20  N   UNL     1      46.690  -0.609   7.815  0.00  0.00    +0.000 NA
ATOM     21  H   UNL     1      47.439  -1.104   8.300  0.00  0.00    +0.000 HD
ATOM     22  H   UNL     1      46.336  -1.253   7.111  0.00  0.00    +0.000 HD
ENDBRANCH  19  20
ENDBRANCH  17  19
ENDBRANCH  12  13
ENDBRANCH   8  12
TORSDOF 5
ENDMDL
MODEL 3
REMARK VINA RESULT:    -6.760      3.074      6.337
REMARK INTER + INTRA:          -9.011
REMARK INTER:                  -8.704
REMARK INTRA:                  -0.306
REMARK UNBOUND:                -0.473
REMARK  Name = 
REMARK  6 active torsions:
REMARK  status: ('A' for Active; 'I' for Inactive)
REMARK    1  A    between atoms: C_1  and  O_2
REMARK    2  A    between atoms: O_2  and  C_3
REMARK    3  A    between atoms: N_10  and  C_11
REMARK    4  A    between atoms: C_11  and  C_12
REMARK    5  A    between atoms: C_16  and  C_17
REMARK    6  A    between atoms: C_17  and  N_18
REMARK                            x       y       z     vdW  Elec       q    Type
REMARK                         _______ _______ _______ _____ _____    ______ ____
ROOT
ATOM      1  C   UNL     1      45.968   2.538   8.095  0.00  0.00    +0.000 A 
ATOM      2  C   UNL     1      46.033   3.924   7.954  0.00  0.00    +0.000 A 
ATOM      3  C   UNL     1      45.330   4.777   8.815  0.00  0.00    +0.000 A 
ATOM      4  C   UNL     1      44.566   4.202   9.842  0.00  0.00    +0.000 A 
ATOM      5  C   UNL     1      44.513   2.819  10.029  0.00  0.00    +0.000 A 
ATOM      6  C   UNL     1      43.707   2.577  11.173  0.00  0.00    +0.000 A 
ATOM      7  C   UNL     1      43.297   3.796  11.660  0.00  0.00    +0.000 A 
ATOM      8  N   UNL     1      43.776   4.776  10.820  0.00  0.00    +0.000 N 
ATOM      9  C   UNL     1      45.217   1.981   9.138  0.00  0.00    +0.000 A 
ENDROOT
BRANCH   1  11
ATOM     10  C   UNL     1      47.906   1.955   6.853  0.00  0.00    +0.000 C 
ATOM     11  O   UNL     1      46.592   1.621   7.292  0.00  0.00    +0.000 OA
ENDBRANCH   1  11
BRANCH   8  12
ATOM     12  C   UNL     1      43.591   6.210  11.036  0.00  0.00    +0.000 C 
BRANCH  12  13
ATOM     13  C   UNL     1      44.774   6.903  11.673  0.00  0.00    +0.000 A 
ATOM     14  C   UNL     1      44.891   8.294  11.647  0.00  0.00    +0.000 A 
ATOM     15  C   UNL     1      45.872   8.909  12.417  0.00  0.00    +0.000 A 
ATOM     16  C   UNL     1      46.723   8.128  13.186  0.00  0.00    +0.000 A 
ATOM     17  C   UNL     1      46.590   6.743  13.140  0.00  0.00    +0.000 A 
ATOM     18  N   UNL     1      45.622   6.128  12.406  0.00  0.00    +0.000 NA
BRANCH  17  19
ATOM     19  C   UNL     1      47.525   5.872  13.956  0.00  0.00    +0.000 C 
BRANCH  19  20
ATOM     20  N   UNL     1      46.815   4.928  14.829  0.00  0.00    +0.000 NA
ATOM     21  H   UNL     1      47.405   4.746  15.641  0.00  0.00    +0.000 HD
ATOM     22  H   UNL     1      46.720   4.039  14.343  0.00  0.00    +0.000 HD
ENDBRANCH  19  20
ENDBRANCH  17  19
ENDBRANCH  12  13
ENDBRANCH   8  12
TORSDOF 5
ENDMDL
MODEL 4
REMARK VINA RESULT:    -6.687      3.096      6.411
REMARK INTER + INTRA:          -8.918
REMARK INTER:                  -8.516
REMARK INTRA:                  -0.402
REMARK UNBOUND:                -0.473
REMARK  Name = 
REMARK  6 active torsions:
REMARK  status: ('A' for Active; 'I' for Inactive)
REMARK    1  A    between atoms: C_1  and  O_2
REMARK    2  A    between atoms: O_2  and  C_3
REMARK    3  A    between atoms: N_10  and  C_11
REMARK    4  A    between atoms: C_11  and  C_12
REMARK    5  A    between atoms: C_16  and  C_17
REMARK    6  A    between atoms: C_17  and  N_18
REMARK                            x       y       z     vdW  Elec       q    Type
REMARK                         _______ _______ _______ _____ _____    ______ ____
ROOT
ATOM      1  C   UNL     1      45.968   2.694   8.071  0.00  0.00    +0.000 A 
ATOM      2  C   UNL     1      46.052   4.085   8.058  0.00  0.00    +0.000 A 
ATOM      3  C   UNL     1      45.349   4.865   8.985  0.00  0.00    +0.000 A 
ATOM      4  C   UNL     1      44.564   4.210   9.946  0.00  0.00    +0.000 A 
ATOM      5  C   UNL     1      44.491   2.816  10.004  0.00  0.00    +0.000 A 
ATOM      6  C   UNL     1      43.666   2.482  11.112  0.00  0.00    +0.000 A 
ATOM      7  C   UNL     1      43.266   3.657  11.704  0.00  0.00    +0.000 A 
ATOM      8  N   UNL     1      43.768   4.703  10.963  0.00  0.00    +0.000 N 
ATOM      9  C   UNL     1      45.195   2.054   9.049  0.00  0.00    +0.000 A 
ENDROOT
BRANCH   1  11
ATOM     10  C   UNL     1      46.792   0.508   7.644  0.00  0.00    +0.000 C 
ATOM     11  O   UNL     1      46.590   1.845   7.195  0.00  0.00    +0.000 OA
ENDBRANCH   1  11
BRANCH   8  12
ATOM     12  C   UNL     1      43.599   6.113  11.307  0.00  0.00    +0.000 C 
BRANCH  12  13
ATOM     13  C   UNL     1      44.773   6.722  12.040  0.00  0.00    +0.000 A 
ATOM     14  C   UNL     1      45.678   5.922  12.738  0.00  0.00    +0.000 A 
ATOM     15  C   UNL     1      46.854   6.487  13.222  0.00  0.00    +0.000 A 
ATOM     16  C   UNL     1      47.097   7.836  13.010  0.00  0.00    +0.000 A 
ATOM     17  C   UNL     1      46.140   8.597  12.346  0.00  0.00    +0.000 A 
ATOM     18  N   UNL     1      44.993   8.054  11.851  0.00  0.00    +0.000 NA
BRANCH  17  19
ATOM     19  C   UNL     1      46.379  10.078  12.125  0.00  0.00    +0.000 C 
BRANCH  19  20
ATOM     20  N   UNL     1      45.141  10.868  12.149  0.00  0.00    +0.000 NA
ATOM     21  H   UNL     1      44.434  10.360  11.616  0.00  0.00    +0.000 HD
ATOM     22  H   UNL     1      45.299  11.741  11.649  0.00  0.00    +0.000 HD
ENDBRANCH  19  20
ENDBRANCH  17  19
ENDBRANCH  12  13
ENDBRANCH   8  12
TORSDOF 5
ENDMDL
MODEL 5
REMARK VINA RESULT:    -6.455      1.703      2.115
REMARK INTER + INTRA:          -8.626
REMARK INTER:                  -8.284
REMARK INTRA:                  -0.342
REMARK UNBOUND:                -0.473
REMARK  Name = 
REMARK  6 active torsions:
REMARK  status: ('A' for Active; 'I' for Inactive)
REMARK    1  A    between atoms: C_1  and  O_2
REMARK    2  A    between atoms: O_2  and  C_3
REMARK    3  A    between atoms: N_10  and  C_11
REMARK    4  A    between atoms: C_11  and  C_12
REMARK    5  A    between atoms: C_16  and  C_17
REMARK    6  A    between atoms: C_17  and  N_18
REMARK                            x       y       z     vdW  Elec       q    Type
REMARK                         _______ _______ _______ _____ _____    ______ ____
ROOT
ATOM      1  C   UNL     1      46.247   7.474  12.898  0.00  0.00    +0.000 A 
ATOM      2  C   UNL     1      46.996   6.330  12.626  0.00  0.00    +0.000 A 
ATOM      3  C   UNL     1      46.411   5.198  12.044  0.00  0.00    +0.000 A 
ATOM      4  C   UNL     1      45.047   5.247  11.721  0.00  0.00    +0.000 A 
ATOM      5  C   UNL     1      44.281   6.393  11.948  0.00  0.00    +0.000 A 
ATOM      6  C   UNL     1      42.972   6.130  11.463  0.00  0.00    +0.000 A 
ATOM      7  C   UNL     1      42.965   4.854  10.950  0.00  0.00    +0.000 A 
ATOM      8  N   UNL     1      44.209   4.303  11.157  0.00  0.00    +0.000 N 
ATOM      9  C   UNL     1      44.890   7.514  12.550  0.00  0.00    +0.000 A 
ENDROOT
BRANCH   1  11
ATOM     10  C   UNL     1      48.095   8.627  13.844  0.00  0.00    +0.000 C 
ATOM     11  O   UNL     1      46.715   8.618  13.488  0.00  0.00    +0.000 OA
ENDBRANCH   1  11
BRANCH   8  12
ATOM     12  C   UNL     1      44.608   2.972  10.702  0.00  0.00    +0.000 C 
BRANCH  12  13
ATOM     13  C   UNL     1      45.197   2.938   9.310  0.00  0.00    +0.000 A 
ATOM     14  C   UNL     1      45.182   4.070   8.495  0.00  0.00    +0.000 A 
ATOM     15  C   UNL     1      45.912   4.067   7.311  0.00  0.00    +0.000 A 
ATOM     16  C   UNL     1      46.632   2.934   6.959  0.00  0.00    +0.000 A 
ATOM     17  C   UNL     1      46.576   1.817   7.787  0.00  0.00    +0.000 A 
ATOM     18  N   UNL     1      45.881   1.812   8.958  0.00  0.00    +0.000 NA
BRANCH  17  19
ATOM     19  C   UNL     1      47.338   0.563   7.407  0.00  0.00    +0.000 C 
BRANCH  19  20
ATOM     20  N   UNL     1      46.580  -0.669   7.664  0.00  0.00    +0.000 NA
ATOM     21  H   UNL     1      45.807  -0.706   6.998  0.00  0.00    +0.000 HD
ATOM     22  H   UNL     1      46.155  -0.606   8.586  0.00  0.00    +0.000 HD
ENDBRANCH  19  20
ENDBRANCH  17  19
ENDBRANCH  12  13
ENDBRANCH   8  12
TORSDOF 5
ENDMDL
MODEL 6
REMARK VINA RESULT:    -5.929      1.570      2.450
REMARK INTER + INTRA:          -7.961
REMARK INTER:                  -7.543
REMARK INTRA:                  -0.418
REMARK UNBOUND:                -0.473
REMARK  Name = 
REMARK  6 active torsions:
REMARK  status: ('A' for Active; 'I' for Inactive)
REMARK    1  A    between atoms: C_1  and  O_2
REMARK    2  A    between atoms: O_2  and  C_3
REMARK    3  A    between atoms: N_10  and  C_11
REMARK    4  A    between atoms: C_11  and  C_12
REMARK    5  A    between atoms: C_16  and  C_17
REMARK    6  A    between atoms: C_17  and  N_18
REMARK                            x       y       z     vdW  Elec       q    Type
REMARK                         _______ _______ _______ _____ _____    ______ ____
ROOT
ATOM      1  C   UNL     1      49.248   7.475  13.167  0.00  0.00    +0.000 A 
ATOM      2  C   UNL     1      48.770   7.756  11.888  0.00  0.00    +0.000 A 
ATOM      3  C   UNL     1      47.607   7.148  11.396  0.00  0.00    +0.000 A 
ATOM      4  C   UNL     1      46.919   6.257  12.231  0.00  0.00    +0.000 A 
ATOM      5  C   UNL     1      47.355   5.985  13.531  0.00  0.00    +0.000 A 
ATOM      6  C   UNL     1      46.414   5.096  14.116  0.00  0.00    +0.000 A 
ATOM      7  C   UNL     1      45.433   4.852  13.182  0.00  0.00    +0.000 A 
ATOM      8  N   UNL     1      45.771   5.514  12.024  0.00  0.00    +0.000 N 
ATOM      9  C   UNL     1      48.537   6.597  13.996  0.00  0.00    +0.000 A 
ENDROOT
BRANCH   1  11
ATOM     10  C   UNL     1      50.609   7.680  15.102  0.00  0.00    +0.000 C 
ATOM     11  O   UNL     1      50.384   7.991  13.730  0.00  0.00    +0.000 OA
ENDBRANCH   1  11
BRANCH   8  12
ATOM     12  C   UNL     1      44.946   5.539  10.818  0.00  0.00    +0.000 C 
BRANCH  12  13
ATOM     13  C   UNL     1      45.131   4.345   9.908  0.00  0.00    +0.000 A 
ATOM     14  C   UNL     1      44.455   3.149  10.147  0.00  0.00    +0.000 A 
ATOM     15  C   UNL     1      44.483   2.146   9.183  0.00  0.00    +0.000 A 
ATOM     16  C   UNL     1      45.192   2.352   8.008  0.00  0.00    +0.000 A 
ATOM     17  C   UNL     1      45.885   3.548   7.842  0.00  0.00    +0.000 A 
ATOM     18  N   UNL     1      45.851   4.545   8.768  0.00  0.00    +0.000 NA
BRANCH  17  19
ATOM     19  C   UNL     1      46.684   3.781   6.574  0.00  0.00    +0.000 C 
BRANCH  19  20
ATOM     20  N   UNL     1      47.891   2.949   6.496  0.00  0.00    +0.000 NA
ATOM     21  H   UNL     1      48.570   3.317   7.164  0.00  0.00    +0.000 HD
ATOM     22  H   UNL     1      48.311   3.064   5.576  0.00  0.00    +0.000 HD
ENDBRANCH  19  20
ENDBRANCH  17  19
ENDBRANCH  12  13
ENDBRANCH   8  12
TORSDOF 5
ENDMDL
MODEL 7
REMARK VINA RESULT:    -5.837      4.619      8.017
REMARK INTER + INTRA:          -7.846
REMARK INTER:                  -7.440
REMARK INTRA:                  -0.406
REMARK UNBOUND:                -0.473
REMARK  Name = 
REMARK  6 active torsions:
REMARK  status: ('A' for Active; 'I' for Inactive)
REMARK    1  A    between atoms: C_1  and  O_2
REMARK    2  A    between atoms: O_2  and  C_3
REMARK    3  A    between atoms: N_10  and  C_11
REMARK    4  A    between atoms: C_11  and  C_12
REMARK    5  A    between atoms: C_16  and  C_17
REMARK    6  A    between atoms: C_17  and  N_18
REMARK                            x       y       z     vdW  Elec       q    Type
REMARK                         _______ _______ _______ _____ _____    ______ ____
ROOT
ATOM      1  C   UNL     1      44.610   4.985  12.191  0.00  0.00    +0.000 A 
ATOM      2  C   UNL     1      45.675   4.275  12.744  0.00  0.00    +0.000 A 
ATOM      3  C   UNL     1      46.770   4.934  13.317  0.00  0.00    +0.000 A 
ATOM      4  C   UNL     1      46.764   6.336  13.340  0.00  0.00    +0.000 A 
ATOM      5  C   UNL     1      45.694   7.073  12.827  0.00  0.00    +0.000 A 
ATOM      6  C   UNL     1      45.977   8.446  13.054  0.00  0.00    +0.000 A 
ATOM      7  C   UNL     1      47.191   8.521  13.698  0.00  0.00    +0.000 A 
ATOM      8  N   UNL     1      47.689   7.244  13.821  0.00  0.00    +0.000 N 
ATOM      9  C   UNL     1      44.611   6.386  12.240  0.00  0.00    +0.000 A 
ENDROOT
BRANCH   1  11
ATOM     10  C   UNL     1      43.377   3.023  11.674  0.00  0.00    +0.000 C 
ATOM     11  O   UNL     1      43.511   4.439  11.584  0.00  0.00    +0.000 OA
ENDBRANCH   1  11
BRANCH   8  12
ATOM     12  C   UNL     1      48.939   6.909  14.500  0.00  0.00    +0.000 C 
BRANCH  12  13
ATOM     13  C   UNL     1      48.770   6.444  15.929  0.00  0.00    +0.000 A 
ATOM     14  C   UNL     1      48.645   7.361  16.973  0.00  0.00    +0.000 A 
ATOM     15  C   UNL     1      48.283   6.908  18.237  0.00  0.00    +0.000 A 
ATOM     16  C   UNL     1      48.065   5.553  18.437  0.00  0.00    +0.000 A 
ATOM     17  C   UNL     1      48.246   4.678  17.371  0.00  0.00    +0.000 A 
ATOM     18  N   UNL     1      48.582   5.108  16.124  0.00  0.00    +0.000 NA
BRANCH  17  19
ATOM     19  C   UNL     1      48.033   3.190  17.577  0.00  0.00    +0.000 C 
BRANCH  19  20
ATOM     20  N   UNL     1      46.620   2.832  17.751  0.00  0.00    +0.000 NA
ATOM     21  H   UNL     1      46.553   2.200  18.549  0.00  0.00    +0.000 HD
ATOM     22  H   UNL     1      46.315   2.297  16.941  0.00  0.00    +0.000 HD
ENDBRANCH  19  20
ENDBRANCH  17  19
ENDBRANCH  12  13
ENDBRANCH   8  12
TORSDOF 5
ENDMDL
MODEL 8
REMARK VINA RESULT:    -5.649      3.228      6.780
REMARK INTER + INTRA:          -7.607
REMARK INTER:                  -7.102
REMARK INTRA:                  -0.505
REMARK UNBOUND:                -0.473
REMARK  Name = 
REMARK  6 active torsions:
REMARK  status: ('A' for Active; 'I' for Inactive)
REMARK    1  A    between atoms: C_1  and  O_2
REMARK    2  A    between atoms: O_2  and  C_3
REMARK    3  A    between atoms: N_10  and  C_11
REMARK    4  A    between atoms: C_11  and  C_12
REMARK    5  A    between atoms: C_16  and  C_17
REMARK    6  A    between atoms: C_17  and  N_18
REMARK                            x       y       z     vdW  Elec       q    Type
REMARK                         _______ _______ _______ _____ _____    ______ ____
ROOT
ATOM      1  C   UNL     1      45.172   3.308   9.036  0.00  0.00    +0.000 A 
ATOM      2  C   UNL     1      45.764   4.553   8.829  0.00  0.00    +0.000 A 
ATOM      3  C   UNL     1      45.815   5.513   9.848  0.00  0.00    +0.000 A 
ATOM      4  C   UNL     1      45.269   5.185  11.098  0.00  0.00    +0.000 A 
ATOM      5  C   UNL     1      44.704   3.931  11.344  0.00  0.00    +0.000 A 
ATOM      6  C   UNL     1      44.301   3.909  12.706  0.00  0.00    +0.000 A 
ATOM      7  C   UNL     1      44.631   5.125  13.260  0.00  0.00    +0.000 A 
ATOM      8  N   UNL     1      45.168   5.914  12.268  0.00  0.00    +0.000 N 
ATOM      9  C   UNL     1      44.650   2.989  10.297  0.00  0.00    +0.000 A 
ENDROOT
BRANCH   1  11
ATOM     10  C   UNL     1      46.066   1.319   8.094  0.00  0.00    +0.000 C 
ATOM     11  O   UNL     1      45.046   2.315   8.101  0.00  0.00    +0.000 OA
ENDBRANCH   1  11
BRANCH   8  12
ATOM     12  C   UNL     1      45.688   7.263  12.480  0.00  0.00    +0.000 C 
BRANCH  12  13
ATOM     13  C   UNL     1      47.186   7.334  12.672  0.00  0.00    +0.000 A 
ATOM     14  C   UNL     1      48.017   7.824  11.664  0.00  0.00    +0.000 A 
ATOM     15  C   UNL     1      49.357   8.071  11.946  0.00  0.00    +0.000 A 
ATOM     16  C   UNL     1      49.842   7.814  13.220  0.00  0.00    +0.000 A 
ATOM     17  C   UNL     1      48.979   7.284  14.175  0.00  0.00    +0.000 A 
ATOM     18  N   UNL     1      47.661   7.055  13.919  0.00  0.00    +0.000 NA
BRANCH  17  19
ATOM     19  C   UNL     1      49.497   6.976  15.566  0.00  0.00    +0.000 C 
BRANCH  19  20
ATOM     20  N   UNL     1      48.430   6.901  16.572  0.00  0.00    +0.000 NA
ATOM     21  H   UNL     1      48.165   7.855  16.820  0.00  0.00    +0.000 HD
ATOM     22  H   UNL     1      48.807   6.484  17.421  0.00  0.00    +0.000 HD
ENDBRANCH  19  20
ENDBRANCH  17  19
ENDBRANCH  12  13
ENDBRANCH   8  12
TORSDOF 5
ENDMDL
MODEL 9
REMARK VINA RESULT:    -5.525      2.919      5.320
REMARK INTER + INTRA:          -7.450
REMARK INTER:                  -6.981
REMARK INTRA:                  -0.470
REMARK UNBOUND:                -0.473
REMARK  Name = 
REMARK  6 active torsions:
REMARK  status: ('A' for Active; 'I' for Inactive)
REMARK    1  A    between atoms: C_1  and  O_2
REMARK    2  A    between atoms: O_2  and  C_3
REMARK    3  A    between atoms: N_10  and  C_11
REMARK    4  A    between atoms: C_11  and  C_12
REMARK    5  A    between atoms: C_16  and  C_17
REMARK    6  A    between atoms: C_17  and  N_18
REMARK                            x       y       z     vdW  Elec       q    Type
REMARK                         _______ _______ _______ _____ _____    ______ ____
ROOT
ATOM      1  C   UNL     1      48.505   5.539  17.736  0.00  0.00    +0.000 A 
ATOM      2  C   UNL     1      47.852   4.323  17.542  0.00  0.00    +0.000 A 
ATOM      3  C   UNL     1      47.344   3.962  16.287  0.00  0.00    +0.000 A 
ATOM      4  C   UNL     1      47.522   4.850  15.217  0.00  0.00    +0.000 A 
ATOM      5  C   UNL     1      48.205   6.059  15.375  0.00  0.00    +0.000 A 
ATOM      6  C   UNL     1      48.255   6.687  14.101  0.00  0.00    +0.000 A 
ATOM      7  C   UNL     1      47.621   5.860  13.203  0.00  0.00    +0.000 A 
ATOM      8  N   UNL     1      47.132   4.774  13.893  0.00  0.00    +0.000 N 
ATOM      9  C   UNL     1      48.693   6.407  16.652  0.00  0.00    +0.000 A 
ENDROOT
BRANCH   1  11
ATOM     10  C   UNL     1      48.104   6.046  20.021  0.00  0.00    +0.000 C 
ATOM     11  O   UNL     1      49.011   5.997  18.923  0.00  0.00    +0.000 OA
ENDBRANCH   1  11
BRANCH   8  12
ATOM     12  C   UNL     1      46.440   3.646  13.272  0.00  0.00    +0.000 C 
BRANCH  12  13
ATOM     13  C   UNL     1      45.164   4.016  12.550  0.00  0.00    +0.000 A 
ATOM     14  C   UNL     1      44.082   4.565  13.239  0.00  0.00    +0.000 A 
ATOM     15  C   UNL     1      43.010   5.085  12.521  0.00  0.00    +0.000 A 
ATOM     16  C   UNL     1      43.034   5.038  11.135  0.00  0.00    +0.000 A 
ATOM     17  C   UNL     1      44.118   4.439  10.500  0.00  0.00    +0.000 A 
ATOM     18  N   UNL     1      45.183   3.943  11.189  0.00  0.00    +0.000 NA
BRANCH  17  19
ATOM     19  C   UNL     1      44.150   4.358   8.986  0.00  0.00    +0.000 C 
BRANCH  19  20
ATOM     20  N   UNL     1      45.461   4.705   8.421  0.00  0.00    +0.000 NA
ATOM     21  H   UNL     1      45.525   4.280   7.495  0.00  0.00    +0.000 HD
ATOM     22  H   UNL     1      46.188   4.267   8.984  0.00  0.00    +0.000 HD
ENDBRANCH  19  20
ENDBRANCH  17  19
ENDBRANCH  12  13
ENDBRANCH   8  12
TORSDOF 5
ENDMDL
