MODEL 1
REMARK VINA RESULT:    -7.298      0.000      0.000
REMARK INTER + INTRA:         -10.441
REMARK INTER:                  -9.432
REMARK INTRA:                  -1.009
REMARK UNBOUND:                -1.009
REMARK  Name = 
REMARK  9 active torsions:
REMARK  status: ('A' for Active; 'I' for Inactive)
REMARK    1  A    between atoms: C_1  and  C_2
REMARK    2  A    between atoms: N_4  and  C_5
REMARK    3  A    between atoms: C_9  and  C_10
REMARK    4  A    between atoms: C_10  and  C_11
REMARK    5  A    between atoms: C_10  and  C_12
REMARK    6  A    between atoms: C_10  and  C_13
REMARK    7  A    between atoms: C_13  and  N_14
REMARK    8  A    between atoms: C_18  and  C_19
REMARK    9  A    between atoms: C_26  and  C_27
REMARK                            x       y       z     vdW  Elec       q    Type
REMARK                         _______ _______ _______ _____ _____    ______ ____
ROOT
ATOM      1  C   UNL     1      49.160   8.578  12.599  0.00  0.00    +0.000 C 
ATOM      2  C   UNL     1      50.025   7.432  12.013  0.00  0.00    +0.000 C 
ATOM      3  C   UNL     1      49.605   9.921  11.982  0.00  0.00    +0.000 C 
ENDROOT
BRANCH   1   8
ATOM      4  C   UNL     1      45.911   6.612  11.801  0.00  0.00    +0.000 A 
ATOM      5  C   UNL     1      44.975   7.652  11.788  0.00  0.00    +0.000 A 
ATOM      6  C   UNL     1      45.358   8.978  11.965  0.00  0.00    +0.000 A 
ATOM      7  C   UNL     1      46.695   9.299  12.192  0.00  0.00    +0.000 A 
ATOM      8  C   UNL     1      47.678   8.299  12.234  0.00  0.00    +0.000 A 
ATOM      9  C   UNL     1      47.254   6.974  11.989  0.00  0.00    +0.000 A 
BRANCH   4  13
ATOM     10  C   UNL     1      42.340   5.464  11.756  0.00  0.00    +0.000 C 
ATOM     11  C   UNL     1      43.267   4.261  11.918  0.00  0.00    +0.000 C 
ATOM     12  C   UNL     1      44.618   4.612  12.574  0.00  0.00    +0.000 C 
ATOM     13  N   UNL     1      45.511   5.302  11.635  0.00  0.00    +0.000 N 
ATOM     14  C   UNL     1      45.654   4.636  10.330  0.00  0.00    +0.000 C 
ATOM     15  C   UNL     1      44.267   4.297   9.738  0.00  0.00    +0.000 C 
ATOM     16  C   UNL     1      44.415   3.437   8.488  0.00  0.00    +0.000 C 
ATOM     17  O   UNL     1      43.447   3.567  10.669  0.00  0.00    +0.000 OA
ENDBRANCH   4  13
ENDBRANCH   1   8
BRANCH   1  18
ATOM     18  C   UNL     1      49.371   8.617  14.145  0.00  0.00    +0.000 C 
BRANCH  18  19
ATOM     19  N   UNL     1      50.143   7.503  14.677  0.00  0.00    +0.000 N 
ATOM     20  C   UNL     1      49.499   6.563  15.469  0.00  0.00    +0.000 A 
ATOM     21  C   UNL     1      48.159   6.185  15.320  0.00  0.00    +0.000 A 
ATOM     22  N   UNL     1      47.540   5.225  16.055  0.00  0.00    +0.000 NA
ATOM     23  C   UNL     1      48.342   4.616  16.961  0.00  0.00    +0.000 A 
ATOM     24  C   UNL     1      49.678   4.967  17.123  0.00  0.00    +0.000 A 
ATOM     25  N   UNL     1      50.270   5.950  16.390  0.00  0.00    +0.000 NA
ATOM     26  H   UNL     1      51.028   7.722  15.135  0.00  0.00    +0.000 HD
BRANCH  23  27
ATOM     27  C   UNL     1      47.758   3.519  17.778  0.00  0.00    +0.000 C 
ATOM     28  N   UNL     1      48.386   3.240  18.962  0.00  0.00    +0.000 N 
ATOM     29  O   UNL     1      46.770   2.894  17.416  0.00  0.00    +0.000 OA
ATOM     30  H   UNL     1      49.199   3.775  19.258  0.00  0.00    +0.000 HD
ATOM     31  H   UNL     1      48.012   2.516  19.557  0.00  0.00    +0.000 HD
ENDBRANCH  23  27
ENDBRANCH  18  19
ENDBRANCH   1  18
TORSDOF 5
ENDMDL
MODEL 2
REMARK VINA RESULT:    -7.000      1.720      6.904
REMARK INTER + INTRA:         -10.055
REMARK INTER:                  -9.095
REMARK INTRA:                  -0.960
REMARK UNBOUND:                -1.009
REMARK  Name = 
REMARK  9 active torsions:
REMARK  status: ('A' for Active; 'I' for Inactive)
REMARK    1  A    between atoms: C_1  and  C_2
REMARK    2  A    between atoms: N_4  and  C_5
REMARK    3  A    between atoms: C_9  and  C_10
REMARK    4  A    between atoms: C_10  and  C_11
REMARK    5  A    between atoms: C_10  and  C_12
REMARK    6  A    between atoms: C_10  and  C_13
REMARK    7  A    between atoms: C_13  and  N_14
REMARK    8  A    between atoms: C_18  and  C_19
REMARK    9  A    between atoms: C_26  and  C_27
REMARK                            x       y       z     vdW  Elec       q    Type
REMARK                         _______ _______ _______ _____ _____    ______ ____
ROOT
ATOM      1  C   UNL     1      48.654   8.233  13.114  0.00  0.00    +0.000 C 
ATOM      2  C   UNL     1      49.052   9.730  13.030  0.00  0.00    +0.000 C 
ATOM      3  C   UNL     1      49.172   7.495  11.861  0.00  0.00    +0.000 C 
ENDROOT
BRANCH   1   8
ATOM      4  C   UNL     1      49.060   6.148  16.361  0.00  0.00    +0.000 A 
ATOM      5  C   UNL     1      50.430   6.300  16.597  0.00  0.00    +0.000 A 
ATOM      6  C   UNL     1      51.225   7.103  15.784  0.00  0.00    +0.000 A 
ATOM      7  C   UNL     1      50.670   7.757  14.685  0.00  0.00    +0.000 A 
ATOM      8  C   UNL     1      49.306   7.629  14.385  0.00  0.00    +0.000 A 
ATOM      9  C   UNL     1      48.525   6.855  15.272  0.00  0.00    +0.000 A 
BRANCH   4  13
ATOM     10  C   UNL     1      49.826   2.558  17.130  0.00  0.00    +0.000 C 
ATOM     11  C   UNL     1      48.391   2.880  17.543  0.00  0.00    +0.000 C 
ATOM     12  C   UNL     1      47.767   4.038  16.739  0.00  0.00    +0.000 C 
ATOM     13  N   UNL     1      48.291   5.339  17.171  0.00  0.00    +0.000 N 
ATOM     14  C   UNL     1      48.255   5.557  18.627  0.00  0.00    +0.000 C 
ATOM     15  C   UNL     1      48.878   4.354  19.372  0.00  0.00    +0.000 C 
ATOM     16  C   UNL     1      48.665   4.487  20.875  0.00  0.00    +0.000 C 
ATOM     17  O   UNL     1      48.293   3.104  18.962  0.00  0.00    +0.000 OA
ENDBRANCH   4  13
ENDBRANCH   1   8
BRANCH   1  18
ATOM     18  C   UNL     1      47.097   8.139  13.169  0.00  0.00    +0.000 C 
BRANCH  18  19
ATOM     19  N   UNL     1      46.465   7.823  11.895  0.00  0.00    +0.000 N 
ATOM     20  C   UNL     1      45.880   6.576  11.731  0.00  0.00    +0.000 A 
ATOM     21  C   UNL     1      45.268   5.846  12.759  0.00  0.00    +0.000 A 
ATOM     22  N   UNL     1      44.644   4.652  12.592  0.00  0.00    +0.000 NA
ATOM     23  C   UNL     1      44.628   4.206  11.313  0.00  0.00    +0.000 A 
ATOM     24  C   UNL     1      45.220   4.917  10.273  0.00  0.00    +0.000 A 
ATOM     25  N   UNL     1      45.862   6.101  10.469  0.00  0.00    +0.000 NA
ATOM     26  H   UNL     1      46.999   8.015  11.047  0.00  0.00    +0.000 HD
BRANCH  23  27
ATOM     27  C   UNL     1      43.924   2.927  11.031  0.00  0.00    +0.000 C 
ATOM     28  N   UNL     1      44.410   2.179   9.993  0.00  0.00    +0.000 N 
ATOM     29  O   UNL     1      42.959   2.559  11.687  0.00  0.00    +0.000 OA
ATOM     30  H   UNL     1      45.220   2.490   9.463  0.00  0.00    +0.000 HD
ATOM     31  H   UNL     1      43.974   1.295   9.780  0.00  0.00    +0.000 HD
ENDBRANCH  23  27
ENDBRANCH  18  19
ENDBRANCH   1  18
TORSDOF 5
ENDMDL
MODEL 3
REMARK VINA RESULT:    -6.887      1.995      6.525
REMARK INTER + INTRA:          -9.909
REMARK INTER:                  -8.713
REMARK INTRA:                  -1.196
REMARK UNBOUND:                -1.009
REMARK  Name = 
REMARK  9 active torsions:
REMARK  status: ('A' for Active; 'I' for Inactive)
REMARK    1  A    between atoms: C_1  and  C_2
REMARK    2  A    between atoms: N_4  and  C_5
REMARK    3  A    between atoms: C_9  and  C_10
REMARK    4  A    between atoms: C_10  and  C_11
REMARK    5  A    between atoms: C_10  and  C_12
REMARK    6  A    between atoms: C_10  and  C_13
REMARK    7  A    between atoms: C_13  and  N_14
REMARK    8  A    between atoms: C_18  and  C_19
REMARK    9  A    between atoms: C_26  and  C_27
REMARK                            x       y       z     vdW  Elec       q    Type
REMARK                         _______ _______ _______ _____ _____    ______ ____
ROOT
ATOM      1  C   UNL     1      49.314   8.444  14.109  0.00  0.00    +0.000 C 
ATOM      2  C   UNL     1      48.652   9.703  13.492  0.00  0.00    +0.000 C 
ATOM      3  C   UNL     1      50.848   8.616  14.101  0.00  0.00    +0.000 C 
ENDROOT
BRANCH   1   8
ATOM      4  C   UNL     1      48.669   6.884  17.603  0.00  0.00    +0.000 A 
ATOM      5  C   UNL     1      48.146   7.986  18.287  0.00  0.00    +0.000 A 
ATOM      6  C   UNL     1      47.932   9.204  17.649  0.00  0.00    +0.000 A 
ATOM      7  C   UNL     1      48.267   9.362  16.305  0.00  0.00    +0.000 A 
ATOM      8  C   UNL     1      48.812   8.299  15.570  0.00  0.00    +0.000 A 
ATOM      9  C   UNL     1      48.955   7.064  16.240  0.00  0.00    +0.000 A 
BRANCH   4  13
ATOM     10  C   UNL     1      47.578   3.531  16.324  0.00  0.00    +0.000 C 
ATOM     11  C   UNL     1      47.966   3.420  17.797  0.00  0.00    +0.000 C 
ATOM     12  C   UNL     1      47.808   4.743  18.574  0.00  0.00    +0.000 C 
ATOM     13  N   UNL     1      48.885   5.688  18.256  0.00  0.00    +0.000 N 
ATOM     14  C   UNL     1      50.240   5.119  18.347  0.00  0.00    +0.000 C 
ATOM     15  C   UNL     1      50.325   3.789  17.564  0.00  0.00    +0.000 C 
ATOM     16  C   UNL     1      51.662   3.104  17.818  0.00  0.00    +0.000 C 
ATOM     17  O   UNL     1      49.288   2.869  17.950  0.00  0.00    +0.000 OA
ENDBRANCH   4  13
ENDBRANCH   1   8
BRANCH   1  18
ATOM     18  C   UNL     1      48.923   7.205  13.244  0.00  0.00    +0.000 C 
BRANCH  18  19
ATOM     19  N   UNL     1      47.732   7.391  12.427  0.00  0.00    +0.000 N 
ATOM     20  C   UNL     1      46.888   6.310  12.221  0.00  0.00    +0.000 A 
ATOM     21  C   UNL     1      46.670   5.285  13.151  0.00  0.00    +0.000 A 
ATOM     22  N   UNL     1      45.803   4.255  12.977  0.00  0.00    +0.000 NA
ATOM     23  C   UNL     1      45.116   4.298  11.810  0.00  0.00    +0.000 A 
ATOM     24  C   UNL     1      45.306   5.309  10.874  0.00  0.00    +0.000 A 
ATOM     25  N   UNL     1      46.200   6.319  11.060  0.00  0.00    +0.000 NA
ATOM     26  H   UNL     1      47.850   7.853  11.525  0.00  0.00    +0.000 HD
BRANCH  23  27
ATOM     27  C   UNL     1      44.108   3.233  11.558  0.00  0.00    +0.000 C 
ATOM     28  N   UNL     1      43.822   2.404  12.608  0.00  0.00    +0.000 N 
ATOM     29  O   UNL     1      43.562   3.100  10.471  0.00  0.00    +0.000 OA
ATOM     30  H   UNL     1      44.272   2.533  13.511  0.00  0.00    +0.000 HD
ATOM     31  H   UNL     1      43.129   1.680  12.487  0.00  0.00    +0.000 HD
ENDBRANCH  23  27
ENDBRANCH  18  19
ENDBRANCH   1  18
TORSDOF 5
ENDMDL
MODEL 4
REMARK VINA RESULT:    -6.864      2.279      6.786
REMARK INTER + INTRA:          -9.879
REMARK INTER:                  -8.552
REMARK INTRA:                  -1.327
REMARK UNBOUND:                -1.009
REMARK  Name = 
REMARK  9 active torsions:
REMARK  status: ('A' for Active; 'I' for Inactive)
REMARK    1  A    between atoms: C_1  and  C_2
REMARK    2  A    between atoms: N_4  and  C_5
REMARK    3  A    between atoms: C_9  and  C_10
REMARK    4  A    between atoms: C_10  and  C_11
REMARK    5  A    between atoms: C_10  and  C_12
REMARK    6  A    between atoms: C_10  and  C_13
REMARK    7  A    between atoms: C_13  and  N_14
REMARK    8  A    between atoms: C_18  and  C_19
REMARK    9  A    between atoms: C_26  and  C_27
REMARK                            x       y       z     vdW  Elec       q    Type
REMARK                         _______ _______ _______ _____ _____    ______ ____
ROOT
ATOM      1  C   UNL     1      48.446   4.370  17.141  0.00  0.00    +0.000 C 
ATOM      2  C   UNL     1      49.096   2.967  17.030  0.00  0.00    +0.000 C 
ATOM      3  C   UNL     1      48.084   4.651  18.615  0.00  0.00    +0.000 C 
ENDROOT
BRANCH   1   8
ATOM      4  C   UNL     1      49.874   7.545  15.428  0.00  0.00    +0.000 A 
ATOM      5  C   UNL     1      51.200   7.505  15.870  0.00  0.00    +0.000 A 
ATOM      6  C   UNL     1      51.675   6.456  16.652  0.00  0.00    +0.000 A 
ATOM      7  C   UNL     1      50.819   5.427  17.042  0.00  0.00    +0.000 A 
ATOM      8  C   UNL     1      49.474   5.421  16.645  0.00  0.00    +0.000 A 
ATOM      9  C   UNL     1      49.050   6.471  15.801  0.00  0.00    +0.000 A 
BRANCH   4  13
ATOM     10  C   UNL     1      50.081   7.706  11.686  0.00  0.00    +0.000 C 
ATOM     11  C   UNL     1      49.755   9.090  12.245  0.00  0.00    +0.000 C 
ATOM     12  C   UNL     1      50.260   9.303  13.687  0.00  0.00    +0.000 C 
ATOM     13  N   UNL     1      49.418   8.599  14.662  0.00  0.00    +0.000 N 
ATOM     14  C   UNL     1      47.974   8.844  14.509  0.00  0.00    +0.000 C 
ATOM     15  C   UNL     1      47.539   8.631  13.041  0.00  0.00    +0.000 C 
ATOM     16  C   UNL     1      46.094   9.072  12.842  0.00  0.00    +0.000 C 
ATOM     17  O   UNL     1      48.351   9.387  12.124  0.00  0.00    +0.000 OA
ENDBRANCH   4  13
ENDBRANCH   1   8
BRANCH   1  18
ATOM     18  C   UNL     1      47.149   4.385  16.272  0.00  0.00    +0.000 C 
BRANCH  18  19
ATOM     19  N   UNL     1      47.224   3.580  15.061  0.00  0.00    +0.000 N 
ATOM     20  C   UNL     1      46.454   3.947  13.967  0.00  0.00    +0.000 A 
ATOM     21  C   UNL     1      46.117   5.267  13.641  0.00  0.00    +0.000 A 
ATOM     22  N   UNL     1      45.411   5.635  12.541  0.00  0.00    +0.000 NA
ATOM     23  C   UNL     1      45.061   4.604  11.734  0.00  0.00    +0.000 A 
ATOM     24  C   UNL     1      45.391   3.286  12.031  0.00  0.00    +0.000 A 
ATOM     25  N   UNL     1      46.079   2.939  13.153  0.00  0.00    +0.000 NA
ATOM     26  H   UNL     1      47.134   2.570  15.163  0.00  0.00    +0.000 HD
BRANCH  23  27
ATOM     27  C   UNL     1      44.326   4.922  10.481  0.00  0.00    +0.000 C 
ATOM     28  N   UNL     1      45.047   4.860   9.319  0.00  0.00    +0.000 N 
ATOM     29  O   UNL     1      43.140   5.224  10.482  0.00  0.00    +0.000 OA
ATOM     30  H   UNL     1      46.028   4.595   9.329  0.00  0.00    +0.000 HD
ATOM     31  H   UNL     1      44.582   5.048   8.444  0.00  0.00    +0.000 HD
ENDBRANCH  23  27
ENDBRANCH  18  19
ENDBRANCH   1  18
TORSDOF 5
ENDMDL
MODEL 5
REMARK VINA RESULT:    -6.780      3.427      4.921
REMARK INTER + INTRA:          -9.770
REMARK INTER:                  -9.015
REMARK INTRA:                  -0.755
REMARK UNBOUND:                -1.009
REMARK  Name = 
REMARK  9 active torsions:
REMARK  status: ('A' for Active; 'I' for Inactive)
REMARK    1  A    between atoms: C_1  and  C_2
REMARK    2  A    between atoms: N_4  and  C_5
REMARK    3  A    between atoms: C_9  and  C_10
REMARK    4  A    between atoms: C_10  and  C_11
REMARK    5  A    between atoms: C_10  and  C_12
REMARK    6  A    between atoms: C_10  and  C_13
REMARK    7  A    between atoms: C_13  and  N_14
REMARK    8  A    between atoms: C_18  and  C_19
REMARK    9  A    between atoms: C_26  and  C_27
REMARK                            x       y       z     vdW  Elec       q    Type
REMARK                         _______ _______ _______ _____ _____    ______ ____
ROOT
ATOM      1  C   UNL     1      48.055   4.786  16.860  0.00  0.00    +0.000 C 
ATOM      2  C   UNL     1      47.879   6.060  17.726  0.00  0.00    +0.000 C 
ATOM      3  C   UNL     1      47.150   3.663  17.411  0.00  0.00    +0.000 C 
ENDROOT
BRANCH   1   8
ATOM      4  C   UNL     1      46.070   4.715  13.527  0.00  0.00    +0.000 A 
ATOM      5  C   UNL     1      46.644   5.802  12.859  0.00  0.00    +0.000 A 
ATOM      6  C   UNL     1      47.695   6.525  13.415  0.00  0.00    +0.000 A 
ATOM      7  C   UNL     1      48.184   6.195  14.679  0.00  0.00    +0.000 A 
ATOM      8  C   UNL     1      47.637   5.127  15.405  0.00  0.00    +0.000 A 
ATOM      9  C   UNL     1      46.614   4.383  14.777  0.00  0.00    +0.000 A 
BRANCH   4  13
ATOM     10  C   UNL     1      43.390   6.248  11.396  0.00  0.00    +0.000 C 
ATOM     11  C   UNL     1      42.965   4.847  11.832  0.00  0.00    +0.000 C 
ATOM     12  C   UNL     1      43.615   4.393  13.155  0.00  0.00    +0.000 C 
ATOM     13  N   UNL     1      45.021   4.017  12.964  0.00  0.00    +0.000 N 
ATOM     14  C   UNL     1      45.256   3.083  11.850  0.00  0.00    +0.000 C 
ATOM     15  C   UNL     1      44.565   3.587  10.563  0.00  0.00    +0.000 C 
ATOM     16  C   UNL     1      44.640   2.531   9.467  0.00  0.00    +0.000 C 
ATOM     17  O   UNL     1      43.173   3.885  10.780  0.00  0.00    +0.000 OA
ENDBRANCH   4  13
ENDBRANCH   1   8
BRANCH   1  18
ATOM     18  C   UNL     1      49.548   4.338  16.936  0.00  0.00    +0.000 C 
BRANCH  18  19
ATOM     19  N   UNL     1      49.742   2.937  17.282  0.00  0.00    +0.000 N 
ATOM     20  C   UNL     1      51.027   2.486  17.545  0.00  0.00    +0.000 A 
ATOM     21  C   UNL     1      52.037   3.263  18.126  0.00  0.00    +0.000 A 
ATOM     22  N   UNL     1      53.279   2.810  18.437  0.00  0.00    +0.000 NA
ATOM     23  C   UNL     1      53.477   1.498  18.161  0.00  0.00    +0.000 A 
ATOM     24  C   UNL     1      52.488   0.702  17.592  0.00  0.00    +0.000 A 
ATOM     25  N   UNL     1      51.257   1.186  17.266  0.00  0.00    +0.000 NA
ATOM     26  H   UNL     1      49.298   2.240  16.683  0.00  0.00    +0.000 HD
BRANCH  23  27
ATOM     27  C   UNL     1      54.795   0.905  18.513  0.00  0.00    +0.000 C 
ATOM     28  N   UNL     1      54.868   0.252  19.713  0.00  0.00    +0.000 N 
ATOM     29  O   UNL     1      55.766   0.995  17.774  0.00  0.00    +0.000 OA
ATOM     30  H   UNL     1      54.050   0.172  20.313  0.00  0.00    +0.000 HD
ATOM     31  H   UNL     1      55.737  -0.183  19.982  0.00  0.00    +0.000 HD
ENDBRANCH  23  27
ENDBRANCH  18  19
ENDBRANCH   1  18
TORSDOF 5
ENDMDL
MODEL 6
REMARK VINA RESULT:    -6.551      3.073      8.210
REMARK INTER + INTRA:          -9.474
REMARK INTER:                  -8.527
REMARK INTRA:                  -0.947
REMARK UNBOUND:                -1.009
REMARK  Name = 
REMARK  9 active torsions:
REMARK  status: ('A' for Active; 'I' for Inactive)
REMARK    1  A    between atoms: C_1  and  C_2
REMARK    2  A    between atoms: N_4  and  C_5
REMARK    3  A    between atoms: C_9  and  C_10
REMARK    4  A    between atoms: C_10  and  C_11
REMARK    5  A    between atoms: C_10  and  C_12
REMARK    6  A    between atoms: C_10  and  C_13
REMARK    7  A    between atoms: C_13  and  N_14
REMARK    8  A    between atoms: C_18  and  C_19
REMARK    9  A    between atoms: C_26  and  C_27
REMARK                            x       y       z     vdW  Elec       q    Type
REMARK                         _______ _______ _______ _____ _____    ______ ____
ROOT
ATOM      1  C   UNL     1      48.338   3.393  16.953  0.00  0.00    +0.000 C 
ATOM      2  C   UNL     1      48.960   2.140  16.284  0.00  0.00    +0.000 C 
ATOM      3  C   UNL     1      47.491   2.957  18.168  0.00  0.00    +0.000 C 
ENDROOT
BRANCH   1   8
ATOM      4  C   UNL     1      50.193   6.565  18.199  0.00  0.00    +0.000 A 
ATOM      5  C   UNL     1      51.452   6.032  18.494  0.00  0.00    +0.000 A 
ATOM      6  C   UNL     1      51.751   4.695  18.247  0.00  0.00    +0.000 A 
ATOM      7  C   UNL     1      50.781   3.842  17.723  0.00  0.00    +0.000 A 
ATOM      8  C   UNL     1      49.494   4.314  17.425  0.00  0.00    +0.000 A 
ATOM      9  C   UNL     1      49.253   5.690  17.633  0.00  0.00    +0.000 A 
BRANCH   4  13
ATOM     10  C   UNL     1      48.283   8.832  15.901  0.00  0.00    +0.000 C 
ATOM     11  C   UNL     1      48.990   9.660  16.972  0.00  0.00    +0.000 C 
ATOM     12  C   UNL     1      50.253   8.979  17.538  0.00  0.00    +0.000 C 
ATOM     13  N   UNL     1      49.912   7.891  18.461  0.00  0.00    +0.000 N 
ATOM     14  C   UNL     1      48.934   8.257  19.499  0.00  0.00    +0.000 C 
ATOM     15  C   UNL     1      47.704   8.948  18.868  0.00  0.00    +0.000 C 
ATOM     16  C   UNL     1      46.787   9.501  19.952  0.00  0.00    +0.000 C 
ATOM     17  O   UNL     1      48.081  10.048  18.019  0.00  0.00    +0.000 OA
ENDBRANCH   4  13
ENDBRANCH   1   8
BRANCH   1  18
ATOM     18  C   UNL     1      47.425   4.110  15.909  0.00  0.00    +0.000 C 
BRANCH  18  19
ATOM     19  N   UNL     1      47.309   3.418  14.633  0.00  0.00    +0.000 N 
ATOM     20  C   UNL     1      46.363   3.858  13.719  0.00  0.00    +0.000 A 
ATOM     21  C   UNL     1      45.961   5.192  13.575  0.00  0.00    +0.000 A 
ATOM     22  N   UNL     1      45.077   5.637  12.644  0.00  0.00    +0.000 NA
ATOM     23  C   UNL     1      44.612   4.672  11.815  0.00  0.00    +0.000 A 
ATOM     24  C   UNL     1      45.003   3.342  11.931  0.00  0.00    +0.000 A 
ATOM     25  N   UNL     1      45.872   2.916  12.889  0.00  0.00    +0.000 NA
ATOM     26  H   UNL     1      47.250   2.400  14.656  0.00  0.00    +0.000 HD
BRANCH  23  27
ATOM     27  C   UNL     1      43.675   5.078  10.733  0.00  0.00    +0.000 C 
ATOM     28  N   UNL     1      43.962   4.623   9.475  0.00  0.00    +0.000 N 
ATOM     29  O   UNL     1      42.698   5.783  10.951  0.00  0.00    +0.000 OA
ATOM     30  H   UNL     1      44.769   4.027   9.309  0.00  0.00    +0.000 HD
ATOM     31  H   UNL     1      43.341   4.859   8.715  0.00  0.00    +0.000 HD
ENDBRANCH  23  27
ENDBRANCH  18  19
ENDBRANCH   1  18
TORSDOF 5
ENDMDL
MODEL 7
REMARK VINA RESULT:    -6.465      2.540      7.358
REMARK INTER + INTRA:          -9.364
REMARK INTER:                  -8.090
REMARK INTRA:                  -1.274
REMARK UNBOUND:                -1.009
REMARK  Name = 
REMARK  9 active torsions:
REMARK  status: ('A' for Active; 'I' for Inactive)
REMARK    1  A    between atoms: C_1  and  C_2
REMARK    2  A    between atoms: N_4  and  C_5
REMARK    3  A    between atoms: C_9  and  C_10
REMARK    4  A    between atoms: C_10  and  C_11
REMARK    5  A    between atoms: C_10  and  C_12
REMARK    6  A    between atoms: C_10  and  C_13
REMARK    7  A    between atoms: C_13  and  N_14
REMARK    8  A    between atoms: C_18  and  C_19
REMARK    9  A    between atoms: C_26  and  C_27
REMARK                            x       y       z     vdW  Elec       q    Type
REMARK                         _______ _______ _______ _____ _____    ______ ____
ROOT
ATOM      1  C   UNL     1      48.852   4.047  17.424  0.00  0.00    +0.000 C 
ATOM      2  C   UNL     1      49.255   2.578  17.130  0.00  0.00    +0.000 C 
ATOM      3  C   UNL     1      48.584   4.211  18.935  0.00  0.00    +0.000 C 
ENDROOT
BRANCH   1   8
ATOM      4  C   UNL     1      50.745   7.071  15.899  0.00  0.00    +0.000 A 
ATOM      5  C   UNL     1      52.044   6.822  16.356  0.00  0.00    +0.000 A 
ATOM      6  C   UNL     1      52.351   5.679  17.088  0.00  0.00    +0.000 A 
ATOM      7  C   UNL     1      51.352   4.762  17.411  0.00  0.00    +0.000 A 
ATOM      8  C   UNL     1      50.027   4.965  16.997  0.00  0.00    +0.000 A 
ATOM      9  C   UNL     1      49.772   6.107  16.205  0.00  0.00    +0.000 A 
BRANCH   4  13
ATOM     10  C   UNL     1      52.918   8.496  13.193  0.00  0.00    +0.000 C 
ATOM     11  C   UNL     1      51.880   9.532  13.621  0.00  0.00    +0.000 C 
ATOM     12  C   UNL     1      51.389   9.345  15.071  0.00  0.00    +0.000 C 
ATOM     13  N   UNL     1      50.458   8.216  15.184  0.00  0.00    +0.000 N 
ATOM     14  C   UNL     1      49.365   8.226  14.197  0.00  0.00    +0.000 C 
ATOM     15  C   UNL     1      49.923   8.435  12.771  0.00  0.00    +0.000 C 
ATOM     16  C   UNL     1      48.786   8.642  11.777  0.00  0.00    +0.000 C 
ATOM     17  O   UNL     1      50.782   9.587  12.691  0.00  0.00    +0.000 OA
ENDBRANCH   4  13
ENDBRANCH   1   8
BRANCH   1  18
ATOM     18  C   UNL     1      47.552   4.373  16.624  0.00  0.00    +0.000 C 
BRANCH  18  19
ATOM     19  N   UNL     1      47.357   3.560  15.431  0.00  0.00    +0.000 N 
ATOM     20  C   UNL     1      46.815   4.154  14.300  0.00  0.00    +0.000 A 
ATOM     21  C   UNL     1      47.011   5.493  13.937  0.00  0.00    +0.000 A 
ATOM     22  N   UNL     1      46.530   6.064  12.803  0.00  0.00    +0.000 NA
ATOM     23  C   UNL     1      45.843   5.214  12.001  0.00  0.00    +0.000 A 
ATOM     24  C   UNL     1      45.644   3.878  12.334  0.00  0.00    +0.000 A 
ATOM     25  N   UNL     1      46.115   3.334  13.490  0.00  0.00    +0.000 NA
ATOM     26  H   UNL     1      46.890   2.661  15.548  0.00  0.00    +0.000 HD
BRANCH  23  27
ATOM     27  C   UNL     1      45.321   5.744  10.713  0.00  0.00    +0.000 C 
ATOM     28  N   UNL     1      44.432   6.781  10.796  0.00  0.00    +0.000 N 
ATOM     29  O   UNL     1      45.662   5.280   9.633  0.00  0.00    +0.000 OA
ATOM     30  H   UNL     1      44.166   7.167  11.699  0.00  0.00    +0.000 HD
ATOM     31  H   UNL     1      44.068   7.184   9.946  0.00  0.00    +0.000 HD
ENDBRANCH  23  27
ENDBRANCH  18  19
ENDBRANCH   1  18
TORSDOF 5
ENDMDL
MODEL 8
REMARK VINA RESULT:    -6.424      3.370      9.214
REMARK INTER + INTRA:          -9.310
REMARK INTER:                  -8.436
REMARK INTRA:                  -0.874
REMARK UNBOUND:                -1.009
REMARK  Name = 
REMARK  9 active torsions:
REMARK  status: ('A' for Active; 'I' for Inactive)
REMARK    1  A    between atoms: C_1  and  C_2
REMARK    2  A    between atoms: N_4  and  C_5
REMARK    3  A    between atoms: C_9  and  C_10
REMARK    4  A    between atoms: C_10  and  C_11
REMARK    5  A    between atoms: C_10  and  C_12
REMARK    6  A    between atoms: C_10  and  C_13
REMARK    7  A    between atoms: C_13  and  N_14
REMARK    8  A    between atoms: C_18  and  C_19
REMARK    9  A    between atoms: C_26  and  C_27
REMARK                            x       y       z     vdW  Elec       q    Type
REMARK                         _______ _______ _______ _____ _____    ______ ____
ROOT
ATOM      1  C   UNL     1      47.966   4.164  17.212  0.00  0.00    +0.000 C 
ATOM      2  C   UNL     1      46.994   2.969  17.387  0.00  0.00    +0.000 C 
ATOM      3  C   UNL     1      47.716   5.195  18.333  0.00  0.00    +0.000 C 
ENDROOT
BRANCH   1   8
ATOM      4  C   UNL     1      51.753   4.029  18.047  0.00  0.00    +0.000 A 
ATOM      5  C   UNL     1      52.038   2.693  17.745  0.00  0.00    +0.000 A 
ATOM      6  C   UNL     1      51.069   1.843  17.220  0.00  0.00    +0.000 A 
ATOM      7  C   UNL     1      49.770   2.302  17.010  0.00  0.00    +0.000 A 
ATOM      8  C   UNL     1      49.418   3.626  17.311  0.00  0.00    +0.000 A 
ATOM      9  C   UNL     1      50.447   4.471  17.783  0.00  0.00    +0.000 A 
BRANCH   4  13
ATOM     10  C   UNL     1      55.255   4.316  16.733  0.00  0.00    +0.000 C 
ATOM     11  C   UNL     1      55.169   4.957  18.117  0.00  0.00    +0.000 C 
ATOM     12  C   UNL     1      54.045   4.370  18.995  0.00  0.00    +0.000 C 
ATOM     13  N   UNL     1      52.724   4.853  18.577  0.00  0.00    +0.000 N 
ATOM     14  C   UNL     1      52.633   6.315  18.417  0.00  0.00    +0.000 C 
ATOM     15  C   UNL     1      53.796   6.838  17.543  0.00  0.00    +0.000 C 
ATOM     16  C   UNL     1      53.816   8.362  17.539  0.00  0.00    +0.000 C 
ATOM     17  O   UNL     1      55.076   6.391  18.025  0.00  0.00    +0.000 OA
ENDBRANCH   4  13
ENDBRANCH   1   8
BRANCH   1  18
ATOM     18  C   UNL     1      47.694   4.824  15.825  0.00  0.00    +0.000 C 
BRANCH  18  19
ATOM     19  N   UNL     1      47.417   3.880  14.751  0.00  0.00    +0.000 N 
ATOM     20  C   UNL     1      46.475   4.219  13.791  0.00  0.00    +0.000 A 
ATOM     21  C   UNL     1      46.224   5.525  13.351  0.00  0.00    +0.000 A 
ATOM     22  N   UNL     1      45.343   5.856  12.372  0.00  0.00    +0.000 NA
ATOM     23  C   UNL     1      44.716   4.796  11.808  0.00  0.00    +0.000 A 
ATOM     24  C   UNL     1      44.954   3.488  12.219  0.00  0.00    +0.000 A 
ATOM     25  N   UNL     1      45.825   3.183  13.221  0.00  0.00    +0.000 NA
ATOM     26  H   UNL     1      47.240   2.911  15.013  0.00  0.00    +0.000 HD
BRANCH  23  27
ATOM     27  C   UNL     1      43.768   5.062  10.693  0.00  0.00    +0.000 C 
ATOM     28  N   UNL     1      44.190   4.713   9.438  0.00  0.00    +0.000 N 
ATOM     29  O   UNL     1      42.670   5.567  10.881  0.00  0.00    +0.000 OA
ATOM     30  H   UNL     1      45.099   4.282   9.296  0.00  0.00    +0.000 HD
ATOM     31  H   UNL     1      43.570   4.858   8.656  0.00  0.00    +0.000 HD
ENDBRANCH  23  27
ENDBRANCH  18  19
ENDBRANCH   1  18
TORSDOF 5
ENDMDL
MODEL 9
REMARK VINA RESULT:    -6.315      2.449      5.236
REMARK INTER + INTRA:          -9.170
REMARK INTER:                  -7.852
REMARK INTRA:                  -1.318
REMARK UNBOUND:                -1.009
REMARK  Name = 
REMARK  9 active torsions:
REMARK  status: ('A' for Active; 'I' for Inactive)
REMARK    1  A    between atoms: C_1  and  C_2
REMARK    2  A    between atoms: N_4  and  C_5
REMARK    3  A    between atoms: C_9  and  C_10
REMARK    4  A    between atoms: C_10  and  C_11
REMARK    5  A    between atoms: C_10  and  C_12
REMARK    6  A    between atoms: C_10  and  C_13
REMARK    7  A    between atoms: C_13  and  N_14
REMARK    8  A    between atoms: C_18  and  C_19
REMARK    9  A    between atoms: C_26  and  C_27
REMARK                            x       y       z     vdW  Elec       q    Type
REMARK                         _______ _______ _______ _____ _____    ______ ____
ROOT
ATOM      1  C   UNL     1      44.938   5.418  12.027  0.00  0.00    +0.000 C 
ATOM      2  C   UNL     1      43.703   5.042  12.886  0.00  0.00    +0.000 C 
ATOM      3  C   UNL     1      44.771   4.835  10.608  0.00  0.00    +0.000 C 
ENDROOT
BRANCH   1   8
ATOM      4  C   UNL     1      46.398   9.004  12.277  0.00  0.00    +0.000 A 
ATOM      5  C   UNL     1      45.381   9.742  11.662  0.00  0.00    +0.000 A 
ATOM      6  C   UNL     1      44.207   9.137  11.222  0.00  0.00    +0.000 A 
ATOM      7  C   UNL     1      44.031   7.761  11.360  0.00  0.00    +0.000 A 
ATOM      8  C   UNL     1      45.022   6.965  11.952  0.00  0.00    +0.000 A 
ATOM      9  C   UNL     1      46.170   7.628  12.440  0.00  0.00    +0.000 A 
BRANCH   4  13
ATOM     10  C   UNL     1      49.775   7.374  12.328  0.00  0.00    +0.000 C 
ATOM     11  C   UNL     1      49.811   8.660  13.151  0.00  0.00    +0.000 C 
ATOM     12  C   UNL     1      48.437   9.055  13.729  0.00  0.00    +0.000 C 
ATOM     13  N   UNL     1      47.559   9.620  12.697  0.00  0.00    +0.000 N 
ATOM     14  C   UNL     1      48.177  10.683  11.887  0.00  0.00    +0.000 C 
ATOM     15  C   UNL     1      49.555  10.229  11.355  0.00  0.00    +0.000 C 
ATOM     16  C   UNL     1      50.279  11.392  10.686  0.00  0.00    +0.000 C 
ATOM     17  O   UNL     1      50.406   9.741  12.408  0.00  0.00    +0.000 OA
ENDBRANCH   4  13
ENDBRANCH   1   8
BRANCH   1  18
ATOM     18  C   UNL     1      46.210   4.808  12.696  0.00  0.00    +0.000 C 
BRANCH  18  19
ATOM     19  N   UNL     1      46.004   4.319  14.052  0.00  0.00    +0.000 N 
ATOM     20  C   UNL     1      47.016   4.491  14.985  0.00  0.00    +0.000 A 
ATOM     21  C   UNL     1      47.905   5.573  15.000  0.00  0.00    +0.000 A 
ATOM     22  N   UNL     1      48.861   5.776  15.943  0.00  0.00    +0.000 NA
ATOM     23  C   UNL     1      48.883   4.839  16.921  0.00  0.00    +0.000 A 
ATOM     24  C   UNL     1      48.005   3.759  16.934  0.00  0.00    +0.000 A 
ATOM     25  N   UNL     1      47.071   3.565  15.964  0.00  0.00    +0.000 NA
ATOM     26  H   UNL     1      45.659   3.365  14.159  0.00  0.00    +0.000 HD
BRANCH  23  27
ATOM     27  C   UNL     1      49.868   5.008  18.022  0.00  0.00    +0.000 C 
ATOM     28  N   UNL     1      49.929   3.999  18.946  0.00  0.00    +0.000 N 
ATOM     29  O   UNL     1      50.588   5.994  18.105  0.00  0.00    +0.000 OA
ATOM     30  H   UNL     1      49.336   3.178  18.860  0.00  0.00    +0.000 HD
ATOM     31  H   UNL     1      50.598   4.064  19.698  0.00  0.00    +0.000 HD
ENDBRANCH  23  27
ENDBRANCH  18  19
ENDBRANCH   1  18
TORSDOF 5
ENDMDL
