MODEL 1
REMARK VINA RESULT:    -8.101      0.000      0.000
REMARK INTER + INTRA:         -11.287
REMARK INTER:                 -10.706
REMARK INTRA:                  -0.582
REMARK UNBOUND:                -0.582
REMARK  Name = 
REMARK  6 active torsions:
REMARK  status: ('A' for Active; 'I' for Inactive)
REMARK    1  A    between atoms: N_1  and  C_2
REMARK    2  A    between atoms: C_2  and  C_3
REMARK    3  A    between atoms: C_3  and  C_4
REMARK    4  A    between atoms: C_7  and  C_8
REMARK    5  A    between atoms: C_8  and  N_9
REMARK    6  A    between atoms: C_16  and  C_17
REMARK                            x       y       z     vdW  Elec       q    Type
REMARK                         _______ _______ _______ _____ _____    ______ ____
ROOT
ATOM      1  N   UNL     1      45.303   4.546  12.428  0.00  0.00    +0.000 N 
ATOM      2  C   UNL     1      46.143   3.647  13.032  0.00  0.00    +0.000 A 
ATOM      3  N   UNL     1      47.107   4.250  13.690  0.00  0.00    +0.000 NA
ATOM      4  C   UNL     1      46.903   5.591  13.488  0.00  0.00    +0.000 A 
ATOM      5  C   UNL     1      47.670   6.684  13.902  0.00  0.00    +0.000 A 
ATOM      6  C   UNL     1      47.271   7.963  13.513  0.00  0.00    +0.000 A 
ATOM      7  F   UNL     1      48.058   8.988  13.875  0.00  0.00    +0.000 F 
ATOM      8  C   UNL     1      46.119   8.182  12.752  0.00  0.00    +0.000 A 
ATOM      9  C   UNL     1      45.324   7.094  12.357  0.00  0.00    +0.000 A 
ATOM     10  C   UNL     1      45.760   5.810  12.720  0.00  0.00    +0.000 A 
ENDROOT
BRANCH   8  11
ATOM     11  C   UNL     1      45.732   9.554  12.307  0.00  0.00    +0.000 C 
ATOM     12  N   UNL     1      44.463   9.987  12.578  0.00  0.00    +0.000 N 
ATOM     13  O   UNL     1      46.523  10.283  11.731  0.00  0.00    +0.000 OA
ATOM     14  H   UNL     1      43.747   9.421  13.019  0.00  0.00    +0.000 HD
ATOM     15  H   UNL     1      44.208  10.918  12.275  0.00  0.00    +0.000 HD
ENDBRANCH   8  11
BRANCH   1  16
ATOM     16  C   UNL     1      44.258   4.214  11.468  0.00  0.00    +0.000 C 
BRANCH  16  20
ATOM     17  C   UNL     1      45.892   3.264   7.644  0.00  0.00    +0.000 A 
ATOM     18  C   UNL     1      45.437   2.217   8.436  0.00  0.00    +0.000 A 
ATOM     19  C   UNL     1      44.873   2.503   9.679  0.00  0.00    +0.000 A 
ATOM     20  C   UNL     1      44.808   3.827  10.126  0.00  0.00    +0.000 A 
ATOM     21  C   UNL     1      45.292   4.803   9.264  0.00  0.00    +0.000 A 
ATOM     22  N   UNL     1      45.825   4.556   8.046  0.00  0.00    +0.000 NA
BRANCH  17  23
ATOM     23  C   UNL     1      46.494   2.980   6.292  0.00  0.00    +0.000 C 
BRANCH  23  24
ATOM     24  C   UNL     1      47.286   1.672   6.297  0.00  0.00    +0.000 C 
BRANCH  24  25
ATOM     25  N   UNL     1      48.610   1.860   5.701  0.00  0.00    +0.000 NA
ATOM     26  H   UNL     1      48.514   1.920   4.687  0.00  0.00    +0.000 HD
ATOM     27  H   UNL     1      49.179   1.032   5.879  0.00  0.00    +0.000 HD
ENDBRANCH  24  25
ENDBRANCH  23  24
ENDBRANCH  17  23
ENDBRANCH  16  20
ENDBRANCH   1  16
TORSDOF 6
ENDMDL
MODEL 2
REMARK VINA RESULT:    -7.721      1.801      2.020
REMARK INTER + INTRA:         -10.785
REMARK INTER:                  -9.985
REMARK INTRA:                  -0.800
REMARK UNBOUND:                -0.582
REMARK  Name = 
REMARK  6 active torsions:
REMARK  status: ('A' for Active; 'I' for Inactive)
REMARK    1  A    between atoms: N_1  and  C_2
REMARK    2  A    between atoms: C_2  and  C_3
REMARK    3  A    between atoms: C_3  and  C_4
REMARK    4  A    between atoms: C_7  and  C_8
REMARK    5  A    between atoms: C_8  and  N_9
REMARK    6  A    between atoms: C_16  and  C_17
REMARK                            x       y       z     vdW  Elec       q    Type
REMARK                         _______ _______ _______ _____ _____    ______ ____
ROOT
ATOM      1  N   UNL     1      44.850   4.979  11.760  0.00  0.00    +0.000 N 
ATOM      2  C   UNL     1      44.492   4.097  12.746  0.00  0.00    +0.000 A 
ATOM      3  N   UNL     1      45.298   4.172  13.781  0.00  0.00    +0.000 NA
ATOM      4  C   UNL     1      46.230   5.120  13.447  0.00  0.00    +0.000 A 
ATOM      5  C   UNL     1      47.360   5.550  14.152  0.00  0.00    +0.000 A 
ATOM      6  C   UNL     1      48.191   6.501  13.561  0.00  0.00    +0.000 A 
ATOM      7  F   UNL     1      49.298   6.851  14.233  0.00  0.00    +0.000 F 
ATOM      8  C   UNL     1      47.912   7.055  12.308  0.00  0.00    +0.000 A 
ATOM      9  C   UNL     1      46.765   6.655  11.605  0.00  0.00    +0.000 A 
ATOM     10  C   UNL     1      45.960   5.666  12.194  0.00  0.00    +0.000 A 
ENDROOT
BRANCH   8  11
ATOM     11  C   UNL     1      48.837   8.040  11.672  0.00  0.00    +0.000 C 
ATOM     12  N   UNL     1      50.065   7.601  11.260  0.00  0.00    +0.000 N 
ATOM     13  O   UNL     1      48.511   9.205  11.505  0.00  0.00    +0.000 OA
ATOM     14  H   UNL     1      50.412   6.658  11.400  0.00  0.00    +0.000 HD
ATOM     15  H   UNL     1      50.687   8.272  10.830  0.00  0.00    +0.000 HD
ENDBRANCH   8  11
BRANCH   1  16
ATOM     16  C   UNL     1      44.292   5.015  10.414  0.00  0.00    +0.000 C 
BRANCH  16  20
ATOM     17  C   UNL     1      46.218   2.303   7.744  0.00  0.00    +0.000 A 
ATOM     18  C   UNL     1      45.492   1.770   8.802  0.00  0.00    +0.000 A 
ATOM     19  C   UNL     1      44.830   2.634   9.673  0.00  0.00    +0.000 A 
ATOM     20  C   UNL     1      44.936   4.017   9.495  0.00  0.00    +0.000 A 
ATOM     21  C   UNL     1      45.687   4.453   8.410  0.00  0.00    +0.000 A 
ATOM     22  N   UNL     1      46.322   3.638   7.538  0.00  0.00    +0.000 NA
BRANCH  17  23
ATOM     23  C   UNL     1      46.931   1.387   6.782  0.00  0.00    +0.000 C 
BRANCH  23  24
ATOM     24  C   UNL     1      47.751   2.177   5.762  0.00  0.00    +0.000 C 
BRANCH  24  25
ATOM     25  N   UNL     1      48.877   2.854   6.407  0.00  0.00    +0.000 NA
ATOM     26  H   UNL     1      48.898   3.829   6.106  0.00  0.00    +0.000 HD
ATOM     27  H   UNL     1      49.751   2.441   6.079  0.00  0.00    +0.000 HD
ENDBRANCH  24  25
ENDBRANCH  23  24
ENDBRANCH  17  23
ENDBRANCH  16  20
ENDBRANCH   1  16
TORSDOF 6
ENDMDL
MODEL 3
REMARK VINA RESULT:    -7.664      2.382      3.483
REMARK INTER + INTRA:         -10.710
REMARK INTER:                 -10.149
REMARK INTRA:                  -0.561
REMARK UNBOUND:                -0.582
REMARK  Name = 
REMARK  6 active torsions:
REMARK  status: ('A' for Active; 'I' for Inactive)
REMARK    1  A    between atoms: N_1  and  C_2
REMARK    2  A    between atoms: C_2  and  C_3
REMARK    3  A    between atoms: C_3  and  C_4
REMARK    4  A    between atoms: C_7  and  C_8
REMARK    5  A    between atoms: C_8  and  N_9
REMARK    6  A    between atoms: C_16  and  C_17
REMARK                            x       y       z     vdW  Elec       q    Type
REMARK                         _______ _______ _______ _____ _____    ______ ____
ROOT
ATOM      1  N   UNL     1      45.495   6.155  11.803  0.00  0.00    +0.000 N 
ATOM      2  C   UNL     1      45.682   7.472  11.475  0.00  0.00    +0.000 A 
ATOM      3  N   UNL     1      46.567   8.046  12.258  0.00  0.00    +0.000 NA
ATOM      4  C   UNL     1      46.952   7.075  13.146  0.00  0.00    +0.000 A 
ATOM      5  C   UNL     1      47.820   7.157  14.240  0.00  0.00    +0.000 A 
ATOM      6  C   UNL     1      48.004   6.022  15.030  0.00  0.00    +0.000 A 
ATOM      7  F   UNL     1      48.796   6.146  16.106  0.00  0.00    +0.000 F 
ATOM      8  C   UNL     1      47.373   4.807  14.744  0.00  0.00    +0.000 A 
ATOM      9  C   UNL     1      46.524   4.705  13.631  0.00  0.00    +0.000 A 
ATOM     10  C   UNL     1      46.316   5.866  12.869  0.00  0.00    +0.000 A 
ENDROOT
BRANCH   8  11
ATOM     11  C   UNL     1      47.547   3.616  15.627  0.00  0.00    +0.000 C 
ATOM     12  N   UNL     1      46.857   3.580  16.807  0.00  0.00    +0.000 N 
ATOM     13  O   UNL     1      48.272   2.687  15.308  0.00  0.00    +0.000 OA
ATOM     14  H   UNL     1      46.268   4.331  17.149  0.00  0.00    +0.000 HD
ATOM     15  H   UNL     1      46.978   2.770  17.400  0.00  0.00    +0.000 HD
ENDBRANCH   8  11
BRANCH   1  16
ATOM     16  C   UNL     1      44.452   5.289  11.267  0.00  0.00    +0.000 C 
BRANCH  16  20
ATOM     17  C   UNL     1      45.934   2.980   8.001  0.00  0.00    +0.000 A 
ATOM     18  C   UNL     1      45.255   2.314   9.015  0.00  0.00    +0.000 A 
ATOM     19  C   UNL     1      44.737   3.050  10.080  0.00  0.00    +0.000 A 
ATOM     20  C   UNL     1      44.938   4.433  10.134  0.00  0.00    +0.000 A 
ATOM     21  C   UNL     1      45.631   5.007   9.075  0.00  0.00    +0.000 A 
ATOM     22  N   UNL     1      46.127   4.321   8.020  0.00  0.00    +0.000 NA
BRANCH  17  23
ATOM     23  C   UNL     1      46.493   2.207   6.834  0.00  0.00    +0.000 C 
BRANCH  23  24
ATOM     24  C   UNL     1      48.010   2.369   6.732  0.00  0.00    +0.000 C 
BRANCH  24  25
ATOM     25  N   UNL     1      48.502   1.876   5.444  0.00  0.00    +0.000 NA
ATOM     26  H   UNL     1      47.782   2.019   4.735  0.00  0.00    +0.000 HD
ATOM     27  H   UNL     1      48.642   0.866   5.501  0.00  0.00    +0.000 HD
ENDBRANCH  24  25
ENDBRANCH  23  24
ENDBRANCH  17  23
ENDBRANCH  16  20
ENDBRANCH   1  16
TORSDOF 6
ENDMDL
MODEL 4
REMARK VINA RESULT:    -7.146      1.791      2.854
REMARK INTER + INTRA:         -10.026
REMARK INTER:                  -9.606
REMARK INTRA:                  -0.420
REMARK UNBOUND:                -0.582
REMARK  Name = 
REMARK  6 active torsions:
REMARK  status: ('A' for Active; 'I' for Inactive)
REMARK    1  A    between atoms: N_1  and  C_2
REMARK    2  A    between atoms: C_2  and  C_3
REMARK    3  A    between atoms: C_3  and  C_4
REMARK    4  A    between atoms: C_7  and  C_8
REMARK    5  A    between atoms: C_8  and  N_9
REMARK    6  A    between atoms: C_16  and  C_17
REMARK                            x       y       z     vdW  Elec       q    Type
REMARK                         _______ _______ _______ _____ _____    ______ ____
ROOT
ATOM      1  N   UNL     1      44.649   6.409  11.409  0.00  0.00    +0.000 N 
ATOM      2  C   UNL     1      43.728   7.371  11.090  0.00  0.00    +0.000 A 
ATOM      3  N   UNL     1      44.151   8.573  11.409  0.00  0.00    +0.000 NA
ATOM      4  C   UNL     1      45.384   8.385  11.981  0.00  0.00    +0.000 A 
ATOM      5  C   UNL     1      46.251   9.315  12.562  0.00  0.00    +0.000 A 
ATOM      6  C   UNL     1      47.438   8.854  13.131  0.00  0.00    +0.000 A 
ATOM      7  F   UNL     1      48.223   9.760  13.733  0.00  0.00    +0.000 F 
ATOM      8  C   UNL     1      47.795   7.501  13.110  0.00  0.00    +0.000 A 
ATOM      9  C   UNL     1      46.947   6.563  12.502  0.00  0.00    +0.000 A 
ATOM     10  C   UNL     1      45.736   7.036  11.970  0.00  0.00    +0.000 A 
ENDROOT
BRANCH   8  11
ATOM     11  C   UNL     1      49.049   7.020  13.764  0.00  0.00    +0.000 C 
ATOM     12  N   UNL     1      50.246   7.390  13.216  0.00  0.00    +0.000 N 
ATOM     13  O   UNL     1      49.018   6.328  14.768  0.00  0.00    +0.000 OA
ATOM     14  H   UNL     1      50.343   7.932  12.364  0.00  0.00    +0.000 HD
ATOM     15  H   UNL     1      51.091   7.062  13.664  0.00  0.00    +0.000 HD
ENDBRANCH   8  11
BRANCH   1  16
ATOM     16  C   UNL     1      44.417   4.970  11.368  0.00  0.00    +0.000 C 
BRANCH  16  20
ATOM     17  C   UNL     1      45.874   3.318   7.715  0.00  0.00    +0.000 A 
ATOM     18  C   UNL     1      45.120   2.498   8.546  0.00  0.00    +0.000 A 
ATOM     19  C   UNL     1      44.609   3.022   9.732  0.00  0.00    +0.000 A 
ATOM     20  C   UNL     1      44.892   4.344  10.089  0.00  0.00    +0.000 A 
ATOM     21  C   UNL     1      45.656   5.084   9.194  0.00  0.00    +0.000 A 
ATOM     22  N   UNL     1      46.147   4.608   8.028  0.00  0.00    +0.000 NA
BRANCH  17  23
ATOM     23  C   UNL     1      46.427   2.778   6.422  0.00  0.00    +0.000 C 
BRANCH  23  24
ATOM     24  C   UNL     1      47.500   1.717   6.672  0.00  0.00    +0.000 C 
BRANCH  24  25
ATOM     25  N   UNL     1      48.594   1.843   5.708  0.00  0.00    +0.000 NA
ATOM     26  H   UNL     1      49.377   2.323   6.152  0.00  0.00    +0.000 HD
ATOM     27  H   UNL     1      48.297   2.445   4.939  0.00  0.00    +0.000 HD
ENDBRANCH  24  25
ENDBRANCH  23  24
ENDBRANCH  17  23
ENDBRANCH  16  20
ENDBRANCH   1  16
TORSDOF 6
ENDMDL
MODEL 5
REMARK VINA RESULT:    -6.635      3.230      7.124
REMARK INTER + INTRA:          -9.350
REMARK INTER:                  -8.594
REMARK INTRA:                  -0.756
REMARK UNBOUND:                -0.582
REMARK  Name = 
REMARK  6 active torsions:
REMARK  status: ('A' for Active; 'I' for Inactive)
REMARK    1  A    between atoms: N_1  and  C_2
REMARK    2  A    between atoms: C_2  and  C_3
REMARK    3  A    between atoms: C_3  and  C_4
REMARK    4  A    between atoms: C_7  and  C_8
REMARK    5  A    between atoms: C_8  and  N_9
REMARK    6  A    between atoms: C_16  and  C_17
REMARK                            x       y       z     vdW  Elec       q    Type
REMARK                         _______ _______ _______ _____ _____    ______ ____
ROOT
ATOM      1  N   UNL     1      44.486   5.848  11.633  0.00  0.00    +0.000 N 
ATOM      2  C   UNL     1      43.573   5.464  12.579  0.00  0.00    +0.000 A 
ATOM      3  N   UNL     1      43.196   4.216  12.410  0.00  0.00    +0.000 NA
ATOM      4  C   UNL     1      43.869   3.780  11.298  0.00  0.00    +0.000 A 
ATOM      5  C   UNL     1      43.791   2.553  10.630  0.00  0.00    +0.000 A 
ATOM      6  C   UNL     1      44.550   2.376   9.473  0.00  0.00    +0.000 A 
ATOM      7  F   UNL     1      44.411   1.211   8.821  0.00  0.00    +0.000 F 
ATOM      8  C   UNL     1      45.400   3.372   8.983  0.00  0.00    +0.000 A 
ATOM      9  C   UNL     1      45.509   4.595   9.662  0.00  0.00    +0.000 A 
ATOM     10  C   UNL     1      44.709   4.775  10.802  0.00  0.00    +0.000 A 
ENDROOT
BRANCH   8  11
ATOM     11  C   UNL     1      46.170   3.180   7.717  0.00  0.00    +0.000 C 
ATOM     12  N   UNL     1      46.889   2.026   7.567  0.00  0.00    +0.000 N 
ATOM     13  O   UNL     1      46.154   4.017   6.829  0.00  0.00    +0.000 OA
ATOM     14  H   UNL     1      46.975   1.309   8.278  0.00  0.00    +0.000 HD
ATOM     15  H   UNL     1      47.407   1.902   6.708  0.00  0.00    +0.000 HD
ENDBRANCH   8  11
BRANCH   1  16
ATOM     16  C   UNL     1      44.956   7.211  11.415  0.00  0.00    +0.000 C 
BRANCH  16  20
ATOM     17  C   UNL     1      48.424   8.166  13.707  0.00  0.00    +0.000 A 
ATOM     18  C   UNL     1      48.533   7.170  12.745  0.00  0.00    +0.000 A 
ATOM     19  C   UNL     1      47.422   6.858  11.964  0.00  0.00    +0.000 A 
ATOM     20  C   UNL     1      46.209   7.519  12.182  0.00  0.00    +0.000 A 
ATOM     21  C   UNL     1      46.199   8.499  13.168  0.00  0.00    +0.000 A 
ATOM     22  N   UNL     1      47.267   8.836  13.926  0.00  0.00    +0.000 NA
BRANCH  17  23
ATOM     23  C   UNL     1      49.616   8.529  14.555  0.00  0.00    +0.000 C 
BRANCH  23  24
ATOM     24  C   UNL     1      49.826   7.520  15.684  0.00  0.00    +0.000 C 
BRANCH  24  25
ATOM     25  N   UNL     1      48.575   7.272  16.403  0.00  0.00    +0.000 NA
ATOM     26  H   UNL     1      48.783   7.100  17.387  0.00  0.00    +0.000 HD
ATOM     27  H   UNL     1      48.151   6.411  16.053  0.00  0.00    +0.000 HD
ENDBRANCH  24  25
ENDBRANCH  23  24
ENDBRANCH  17  23
ENDBRANCH  16  20
ENDBRANCH   1  16
TORSDOF 6
ENDMDL
MODEL 6
REMARK VINA RESULT:    -6.614      4.455      7.603
REMARK INTER + INTRA:          -9.323
REMARK INTER:                  -8.965
REMARK INTRA:                  -0.358
REMARK UNBOUND:                -0.582
REMARK  Name = 
REMARK  6 active torsions:
REMARK  status: ('A' for Active; 'I' for Inactive)
REMARK    1  A    between atoms: N_1  and  C_2
REMARK    2  A    between atoms: C_2  and  C_3
REMARK    3  A    between atoms: C_3  and  C_4
REMARK    4  A    between atoms: C_7  and  C_8
REMARK    5  A    between atoms: C_8  and  N_9
REMARK    6  A    between atoms: C_16  and  C_17
REMARK                            x       y       z     vdW  Elec       q    Type
REMARK                         _______ _______ _______ _____ _____    ______ ____
ROOT
ATOM      1  N   UNL     1      47.185   5.103  14.985  0.00  0.00    +0.000 N 
ATOM      2  C   UNL     1      48.082   6.139  14.971  0.00  0.00    +0.000 A 
ATOM      3  N   UNL     1      48.064   6.782  13.826  0.00  0.00    +0.000 NA
ATOM      4  C   UNL     1      47.138   6.126  13.055  0.00  0.00    +0.000 A 
ATOM      5  C   UNL     1      46.767   6.344  11.724  0.00  0.00    +0.000 A 
ATOM      6  C   UNL     1      45.828   5.490  11.146  0.00  0.00    +0.000 A 
ATOM      7  F   UNL     1      45.535   5.686   9.852  0.00  0.00    +0.000 F 
ATOM      8  C   UNL     1      45.229   4.450  11.864  0.00  0.00    +0.000 A 
ATOM      9  C   UNL     1      45.571   4.241  13.210  0.00  0.00    +0.000 A 
ATOM     10  C   UNL     1      46.549   5.082  13.765  0.00  0.00    +0.000 A 
ENDROOT
BRANCH   8  11
ATOM     11  C   UNL     1      44.258   3.518  11.216  0.00  0.00    +0.000 C 
ATOM     12  N   UNL     1      44.754   2.496  10.454  0.00  0.00    +0.000 N 
ATOM     13  O   UNL     1      43.054   3.648  11.367  0.00  0.00    +0.000 OA
ATOM     14  H   UNL     1      45.739   2.354  10.258  0.00  0.00    +0.000 HD
ATOM     15  H   UNL     1      44.092   1.869  10.018  0.00  0.00    +0.000 HD
ENDBRANCH   8  11
BRANCH   1  16
ATOM     16  C   UNL     1      47.092   4.078  16.017  0.00  0.00    +0.000 C 
BRANCH  16  20
ATOM     17  C   UNL     1      50.912   2.784  17.406  0.00  0.00    +0.000 A 
ATOM     18  C   UNL     1      50.490   4.061  17.757  0.00  0.00    +0.000 A 
ATOM     19  C   UNL     1      49.234   4.497  17.338  0.00  0.00    +0.000 A 
ATOM     20  C   UNL     1      48.436   3.667  16.545  0.00  0.00    +0.000 A 
ATOM     21  C   UNL     1      48.947   2.409  16.245  0.00  0.00    +0.000 A 
ATOM     22  N   UNL     1      50.152   1.953  16.654  0.00  0.00    +0.000 NA
BRANCH  17  23
ATOM     23  C   UNL     1      52.262   2.287  17.857  0.00  0.00    +0.000 C 
BRANCH  23  24
ATOM     24  C   UNL     1      52.479   0.826  17.462  0.00  0.00    +0.000 C 
BRANCH  24  25
ATOM     25  N   UNL     1      51.702  -0.069  18.321  0.00  0.00    +0.000 NA
ATOM     26  H   UNL     1      51.726   0.283  19.278  0.00  0.00    +0.000 HD
ATOM     27  H   UNL     1      52.153  -0.985  18.348  0.00  0.00    +0.000 HD
ENDBRANCH  24  25
ENDBRANCH  23  24
ENDBRANCH  17  23
ENDBRANCH  16  20
ENDBRANCH   1  16
TORSDOF 6
ENDMDL
MODEL 7
REMARK VINA RESULT:    -6.217      4.456      6.445
REMARK INTER + INTRA:          -8.797
REMARK INTER:                  -7.871
REMARK INTRA:                  -0.926
REMARK UNBOUND:                -0.582
REMARK  Name = 
REMARK  6 active torsions:
REMARK  status: ('A' for Active; 'I' for Inactive)
REMARK    1  A    between atoms: N_1  and  C_2
REMARK    2  A    between atoms: C_2  and  C_3
REMARK    3  A    between atoms: C_3  and  C_4
REMARK    4  A    between atoms: C_7  and  C_8
REMARK    5  A    between atoms: C_8  and  N_9
REMARK    6  A    between atoms: C_16  and  C_17
REMARK                            x       y       z     vdW  Elec       q    Type
REMARK                         _______ _______ _______ _____ _____    ______ ____
ROOT
ATOM      1  N   UNL     1      48.967   7.289  14.646  0.00  0.00    +0.000 N 
ATOM      2  C   UNL     1      49.136   8.625  14.902  0.00  0.00    +0.000 A 
ATOM      3  N   UNL     1      48.971   8.900  16.176  0.00  0.00    +0.000 NA
ATOM      4  C   UNL     1      48.659   7.703  16.769  0.00  0.00    +0.000 A 
ATOM      5  C   UNL     1      48.317   7.426  18.097  0.00  0.00    +0.000 A 
ATOM      6  C   UNL     1      47.983   6.115  18.438  0.00  0.00    +0.000 A 
ATOM      7  F   UNL     1      47.602   5.890  19.705  0.00  0.00    +0.000 F 
ATOM      8  C   UNL     1      48.010   5.075  17.505  0.00  0.00    +0.000 A 
ATOM      9  C   UNL     1      48.382   5.336  16.176  0.00  0.00    +0.000 A 
ATOM     10  C   UNL     1      48.675   6.667  15.838  0.00  0.00    +0.000 A 
ENDROOT
BRANCH   8  11
ATOM     11  C   UNL     1      47.607   3.686  17.879  0.00  0.00    +0.000 C 
ATOM     12  N   UNL     1      48.323   3.046  18.853  0.00  0.00    +0.000 N 
ATOM     13  O   UNL     1      46.657   3.134  17.348  0.00  0.00    +0.000 OA
ATOM     14  H   UNL     1      49.142   3.432  19.308  0.00  0.00    +0.000 HD
ATOM     15  H   UNL     1      48.044   2.107  19.103  0.00  0.00    +0.000 HD
ENDBRANCH   8  11
BRANCH   1  16
ATOM     16  C   UNL     1      48.887   6.685  13.322  0.00  0.00    +0.000 C 
BRANCH  16  20
ATOM     17  C   UNL     1      44.880   6.463  11.877  0.00  0.00    +0.000 A 
ATOM     18  C   UNL     1      45.540   7.682  11.782  0.00  0.00    +0.000 A 
ATOM     19  C   UNL     1      46.859   7.774  12.222  0.00  0.00    +0.000 A 
ATOM     20  C   UNL     1      47.485   6.657  12.784  0.00  0.00    +0.000 A 
ATOM     21  C   UNL     1      46.742   5.484  12.838  0.00  0.00    +0.000 A 
ATOM     22  N   UNL     1      45.469   5.361  12.400  0.00  0.00    +0.000 NA
BRANCH  17  23
ATOM     23  C   UNL     1      43.457   6.337  11.396  0.00  0.00    +0.000 C 
BRANCH  23  24
ATOM     24  C   UNL     1      42.759   5.132  12.027  0.00  0.00    +0.000 C 
BRANCH  24  25
ATOM     25  N   UNL     1      42.657   5.288  13.479  0.00  0.00    +0.000 NA
ATOM     26  H   UNL     1      41.899   5.936  13.693  0.00  0.00    +0.000 HD
ATOM     27  H   UNL     1      43.509   5.728  13.830  0.00  0.00    +0.000 HD
ENDBRANCH  24  25
ENDBRANCH  23  24
ENDBRANCH  17  23
ENDBRANCH  16  20
ENDBRANCH   1  16
TORSDOF 6
ENDMDL
MODEL 8
REMARK VINA RESULT:    -6.127      3.851      8.101
REMARK INTER + INTRA:          -8.679
REMARK INTER:                  -7.880
REMARK INTRA:                  -0.799
REMARK UNBOUND:                -0.582
REMARK  Name = 
REMARK  6 active torsions:
REMARK  status: ('A' for Active; 'I' for Inactive)
REMARK    1  A    between atoms: N_1  and  C_2
REMARK    2  A    between atoms: C_2  and  C_3
REMARK    3  A    between atoms: C_3  and  C_4
REMARK    4  A    between atoms: C_7  and  C_8
REMARK    5  A    between atoms: C_8  and  N_9
REMARK    6  A    between atoms: C_16  and  C_17
REMARK                            x       y       z     vdW  Elec       q    Type
REMARK                         _______ _______ _______ _____ _____    ______ ____
ROOT
ATOM      1  N   UNL     1      47.267   7.201  13.540  0.00  0.00    +0.000 N 
ATOM      2  C   UNL     1      47.008   8.539  13.402  0.00  0.00    +0.000 A 
ATOM      3  N   UNL     1      45.906   8.752  12.719  0.00  0.00    +0.000 NA
ATOM      4  C   UNL     1      45.443   7.507  12.378  0.00  0.00    +0.000 A 
ATOM      5  C   UNL     1      44.342   7.147  11.593  0.00  0.00    +0.000 A 
ATOM      6  C   UNL     1      44.115   5.793  11.347  0.00  0.00    +0.000 A 
ATOM      7  F   UNL     1      43.088   5.479  10.542  0.00  0.00    +0.000 F 
ATOM      8  C   UNL     1      44.933   4.793  11.883  0.00  0.00    +0.000 A 
ATOM      9  C   UNL     1      46.022   5.142  12.698  0.00  0.00    +0.000 A 
ATOM     10  C   UNL     1      46.262   6.510  12.903  0.00  0.00    +0.000 A 
ENDROOT
BRANCH   8  11
ATOM     11  C   UNL     1      44.701   3.351  11.572  0.00  0.00    +0.000 C 
ATOM     12  N   UNL     1      44.055   2.585  12.503  0.00  0.00    +0.000 N 
ATOM     13  O   UNL     1      45.059   2.863  10.512  0.00  0.00    +0.000 OA
ATOM     14  H   UNL     1      43.764   2.918  13.415  0.00  0.00    +0.000 HD
ATOM     15  H   UNL     1      43.900   1.610  12.286  0.00  0.00    +0.000 HD
ENDBRANCH   8  11
BRANCH   1  16
ATOM     16  C   UNL     1      48.500   6.628  14.067  0.00  0.00    +0.000 C 
BRANCH  16  20
ATOM     17  C   UNL     1      48.463   6.126  18.303  0.00  0.00    +0.000 A 
ATOM     18  C   UNL     1      48.821   7.369  17.797  0.00  0.00    +0.000 A 
ATOM     19  C   UNL     1      48.815   7.568  16.417  0.00  0.00    +0.000 A 
ATOM     20  C   UNL     1      48.488   6.510  15.563  0.00  0.00    +0.000 A 
ATOM     21  C   UNL     1      48.146   5.304  16.164  0.00  0.00    +0.000 A 
ATOM     22  N   UNL     1      48.125   5.089  17.499  0.00  0.00    +0.000 NA
BRANCH  17  23
ATOM     23  C   UNL     1      48.452   5.892  19.791  0.00  0.00    +0.000 C 
BRANCH  23  24
ATOM     24  C   UNL     1      49.219   4.623  20.164  0.00  0.00    +0.000 C 
BRANCH  24  25
ATOM     25  N   UNL     1      48.317   3.472  20.248  0.00  0.00    +0.000 NA
ATOM     26  H   UNL     1      47.651   3.626  21.006  0.00  0.00    +0.000 HD
ATOM     27  H   UNL     1      48.853   2.644  20.511  0.00  0.00    +0.000 HD
ENDBRANCH  24  25
ENDBRANCH  23  24
ENDBRANCH  17  23
ENDBRANCH  16  20
ENDBRANCH   1  16
TORSDOF 6
ENDMDL
MODEL 9
REMARK VINA RESULT:    -5.688      2.798      4.210
REMARK INTER + INTRA:          -8.098
REMARK INTER:                  -7.388
REMARK INTRA:                  -0.710
REMARK UNBOUND:                -0.582
REMARK  Name = 
REMARK  6 active torsions:
REMARK  status: ('A' for Active; 'I' for Inactive)
REMARK    1  A    between atoms: N_1  and  C_2
REMARK    2  A    between atoms: C_2  and  C_3
REMARK    3  A    between atoms: C_3  and  C_4
REMARK    4  A    between atoms: C_7  and  C_8
REMARK    5  A    between atoms: C_8  and  N_9
REMARK    6  A    between atoms: C_16  and  C_17
REMARK                            x       y       z     vdW  Elec       q    Type
REMARK                         _______ _______ _______ _____ _____    ______ ____
ROOT
ATOM      1  N   UNL     1      46.366   7.868  12.633  0.00  0.00    +0.000 N 
ATOM      2  C   UNL     1      45.470   8.904  12.630  0.00  0.00    +0.000 A 
ATOM      3  N   UNL     1      46.023  10.023  12.220  0.00  0.00    +0.000 NA
ATOM      4  C   UNL     1      47.335   9.710  11.971  0.00  0.00    +0.000 A 
ATOM      5  C   UNL     1      48.392  10.538  11.579  0.00  0.00    +0.000 A 
ATOM      6  C   UNL     1      49.662   9.977  11.444  0.00  0.00    +0.000 A 
ATOM      7  F   UNL     1      50.668  10.806  11.124  0.00  0.00    +0.000 F 
ATOM      8  C   UNL     1      49.899   8.616  11.659  0.00  0.00    +0.000 A 
ATOM      9  C   UNL     1      48.839   7.770  12.023  0.00  0.00    +0.000 A 
ATOM     10  C   UNL     1      47.575   8.356  12.195  0.00  0.00    +0.000 A 
ENDROOT
BRANCH   8  11
ATOM     11  C   UNL     1      51.274   8.042  11.553  0.00  0.00    +0.000 C 
ATOM     12  N   UNL     1      51.519   7.131  10.564  0.00  0.00    +0.000 N 
ATOM     13  O   UNL     1      52.166   8.382  12.315  0.00  0.00    +0.000 OA
ATOM     14  H   UNL     1      50.817   6.779   9.923  0.00  0.00    +0.000 HD
ATOM     15  H   UNL     1      52.452   6.747  10.497  0.00  0.00    +0.000 HD
ENDBRANCH   8  11
BRANCH   1  16
ATOM     16  C   UNL     1      46.134   6.550  13.212  0.00  0.00    +0.000 C 
BRANCH  16  20
ATOM     17  C   UNL     1      44.959   3.771  10.196  0.00  0.00    +0.000 A 
ATOM     18  C   UNL     1      44.836   3.382  11.524  0.00  0.00    +0.000 A 
ATOM     19  C   UNL     1      45.188   4.281  12.529  0.00  0.00    +0.000 A 
ATOM     20  C   UNL     1      45.692   5.541  12.191  0.00  0.00    +0.000 A 
ATOM     21  C   UNL     1      45.780   5.837  10.836  0.00  0.00    +0.000 A 
ATOM     22  N   UNL     1      45.427   4.992   9.841  0.00  0.00    +0.000 NA
BRANCH  17  23
ATOM     23  C   UNL     1      44.574   2.820   9.092  0.00  0.00    +0.000 C 
BRANCH  23  24
ATOM     24  C   UNL     1      45.031   3.333   7.727  0.00  0.00    +0.000 C 
BRANCH  24  25
ATOM     25  N   UNL     1      46.462   3.094   7.531  0.00  0.00    +0.000 NA
ATOM     26  H   UNL     1      46.705   3.299   6.561  0.00  0.00    +0.000 HD
ATOM     27  H   UNL     1      46.659   2.101   7.665  0.00  0.00    +0.000 HD
ENDBRANCH  24  25
ENDBRANCH  23  24
ENDBRANCH  17  23
ENDBRANCH  16  20
ENDBRANCH   1  16
TORSDOF 6
ENDMDL
