MODEL 1
REMARK VINA RESULT:    -7.563      0.000      0.000
REMARK INTER + INTRA:         -10.555
REMARK INTER:                  -9.773
REMARK INTRA:                  -0.782
REMARK UNBOUND:                -0.782
REMARK  Name = 
REMARK  6 active torsions:
REMARK  status: ('A' for Active; 'I' for Inactive)
REMARK    1  A    between atoms: C_1  and  C_2
REMARK    2  A    between atoms: N_9  and  C_10
REMARK    3  A    between atoms: C_10  and  C_11
REMARK    4  A    between atoms: C_14  and  C_15
REMARK    5  A    between atoms: C_15  and  N_16
REMARK    6  A    between atoms: C_17  and  C_19
REMARK                            x       y       z     vdW  Elec       q    Type
REMARK                         _______ _______ _______ _____ _____    ______ ____
ROOT
ATOM      1  C   UNL     1      51.440   3.108  17.772  0.00  0.00    +0.000 A 
ATOM      2  C   UNL     1      50.701   4.277  17.991  0.00  0.00    +0.000 A 
ATOM      3  C   UNL     1      49.345   4.344  17.645  0.00  0.00    +0.000 A 
ATOM      4  C   UNL     1      48.690   3.236  17.089  0.00  0.00    +0.000 A 
ATOM      5  C   UNL     1      49.437   2.077  16.837  0.00  0.00    +0.000 A 
ATOM      6  C   UNL     1      50.793   2.010  17.182  0.00  0.00    +0.000 A 
ENDROOT
BRANCH   1   7
ATOM      7  C   UNL     1      52.899   3.038  18.144  0.00  0.00    +0.000 C 
BRANCH   7  16
ATOM      8  C   UNL     1      55.109  -0.523  19.755  0.00  0.00    +0.000 C 
ATOM      9  C   UNL     1      55.013  -0.901  18.319  0.00  0.00    +0.000 A 
ATOM     10  C   UNL     1      55.302  -2.133  17.752  0.00  0.00    +0.000 A 
ATOM     11  C   UNL     1      55.209  -2.004  16.352  0.00  0.00    +0.000 A 
ATOM     12  C   UNL     1      54.904  -0.691  16.092  0.00  0.00    +0.000 A 
ATOM     13  N   UNL     1      54.750  -0.003  17.286  0.00  0.00    +0.000 N 
ATOM     14  C   UNL     1      54.471   1.381  17.348  0.00  0.00    +0.000 C 
ATOM     15  O   UNL     1      55.055   2.150  16.598  0.00  0.00    +0.000 OA
ATOM     16  N   UNL     1      53.417   1.684  18.185  0.00  0.00    +0.000 N 
ATOM     17  H   UNL     1      52.777   0.935  18.427  0.00  0.00    +0.000 HD
ENDBRANCH   7  16
ENDBRANCH   1   7
BRANCH   4  18
ATOM     18  C   UNL     1      47.221   3.289  16.752  0.00  0.00    +0.000 C 
BRANCH  18  19
ATOM     19  N   UNL     1      46.913   4.376  15.856  0.00  0.00    +0.000 N 
ATOM     20  C   UNL     1      46.864   4.185  14.500  0.00  0.00    +0.000 C 
ATOM     21  O   UNL     1      47.215   3.134  13.970  0.00  0.00    +0.000 OA
ATOM     22  H   UNL     1      46.453   5.184  16.263  0.00  0.00    +0.000 HD
BRANCH  20  23
ATOM     23  C   UNL     1      46.377   5.312  13.697  0.00  0.00    +0.000 A 
ATOM     24  C   UNL     1      47.187   6.417  13.468  0.00  0.00    +0.000 A 
ATOM     25  S   UNL     1      46.473   7.591  12.455  0.00  0.00    +0.000 S 
ATOM     26  C   UNL     1      45.089   6.626  12.225  0.00  0.00    +0.000 A 
ATOM     27  N   UNL     1      44.109   6.997  11.359  0.00  0.00    +0.000 NA
ATOM     28  C   UNL     1      43.135   6.157  11.262  0.00  0.00    +0.000 A 
ATOM     29  N   UNL     1      43.029   4.996  11.990  0.00  0.00    +0.000 N 
ATOM     30  C   UNL     1      43.961   4.607  12.921  0.00  0.00    +0.000 A 
ATOM     31  O   UNL     1      43.788   3.629  13.631  0.00  0.00    +0.000 OA
ATOM     32  C   UNL     1      45.125   5.477  12.997  0.00  0.00    +0.000 A 
ATOM     33  H   UNL     1      42.211   4.415  11.912  0.00  0.00    +0.000 HD
ENDBRANCH  20  23
ENDBRANCH  18  19
ENDBRANCH   4  18
TORSDOF 5
ENDMDL
MODEL 2
REMARK VINA RESULT:    -7.503      2.190      3.385
REMARK INTER + INTRA:         -10.479
REMARK INTER:                  -9.698
REMARK INTRA:                  -0.780
REMARK UNBOUND:                -0.782
REMARK  Name = 
REMARK  6 active torsions:
REMARK  status: ('A' for Active; 'I' for Inactive)
REMARK    1  A    between atoms: C_1  and  C_2
REMARK    2  A    between atoms: N_9  and  C_10
REMARK    3  A    between atoms: C_10  and  C_11
REMARK    4  A    between atoms: C_14  and  C_15
REMARK    5  A    between atoms: C_15  and  N_16
REMARK    6  A    between atoms: C_17  and  C_19
REMARK                            x       y       z     vdW  Elec       q    Type
REMARK                         _______ _______ _______ _____ _____    ______ ____
ROOT
ATOM      1  C   UNL     1      49.552   5.023  17.568  0.00  0.00    +0.000 A 
ATOM      2  C   UNL     1      50.370   6.051  17.083  0.00  0.00    +0.000 A 
ATOM      3  C   UNL     1      49.978   6.819  15.979  0.00  0.00    +0.000 A 
ATOM      4  C   UNL     1      48.749   6.590  15.345  0.00  0.00    +0.000 A 
ATOM      5  C   UNL     1      47.946   5.539  15.807  0.00  0.00    +0.000 A 
ATOM      6  C   UNL     1      48.338   4.770  16.910  0.00  0.00    +0.000 A 
ENDROOT
BRANCH   1   7
ATOM      7  C   UNL     1      49.976   4.196  18.755  0.00  0.00    +0.000 C 
BRANCH   7  16
ATOM      8  C   UNL     1      54.311   3.996  17.602  0.00  0.00    +0.000 C 
ATOM      9  C   UNL     1      54.014   2.546  17.757  0.00  0.00    +0.000 A 
ATOM     10  C   UNL     1      54.922   1.499  17.788  0.00  0.00    +0.000 A 
ATOM     11  C   UNL     1      54.198   0.291  17.808  0.00  0.00    +0.000 A 
ATOM     12  C   UNL     1      52.867   0.623  17.750  0.00  0.00    +0.000 A 
ATOM     13  N   UNL     1      52.731   2.003  17.748  0.00  0.00    +0.000 N 
ATOM     14  C   UNL     1      51.479   2.653  17.654  0.00  0.00    +0.000 C 
ATOM     15  O   UNL     1      50.639   2.238  16.870  0.00  0.00    +0.000 OA
ATOM     16  N   UNL     1      51.305   3.630  18.613  0.00  0.00    +0.000 N 
ATOM     17  H   UNL     1      51.900   3.598  19.433  0.00  0.00    +0.000 HD
ENDBRANCH   7  16
ENDBRANCH   1   7
BRANCH   4  18
ATOM     18  C   UNL     1      48.303   7.441  14.181  0.00  0.00    +0.000 C 
BRANCH  18  19
ATOM     19  N   UNL     1      46.984   7.080  13.725  0.00  0.00    +0.000 N 
ATOM     20  C   UNL     1      46.744   6.790  12.408  0.00  0.00    +0.000 C 
ATOM     21  O   UNL     1      47.588   6.960  11.532  0.00  0.00    +0.000 OA
ATOM     22  H   UNL     1      46.329   6.763  14.433  0.00  0.00    +0.000 HD
BRANCH  20  23
ATOM     23  C   UNL     1      45.410   6.271  12.083  0.00  0.00    +0.000 A 
ATOM     24  C   UNL     1      44.447   7.103  11.525  0.00  0.00    +0.000 A 
ATOM     25  S   UNL     1      42.986   6.303  11.153  0.00  0.00    +0.000 S 
ATOM     26  C   UNL     1      43.619   4.803  11.654  0.00  0.00    +0.000 A 
ATOM     27  N   UNL     1      42.911   3.653  11.494  0.00  0.00    +0.000 NA
ATOM     28  C   UNL     1      43.525   2.589  11.889  0.00  0.00    +0.000 A 
ATOM     29  N   UNL     1      44.769   2.576  12.473  0.00  0.00    +0.000 N 
ATOM     30  C   UNL     1      45.497   3.716  12.711  0.00  0.00    +0.000 A 
ATOM     31  O   UNL     1      46.550   3.686  13.331  0.00  0.00    +0.000 OA
ATOM     32  C   UNL     1      44.886   4.931  12.197  0.00  0.00    +0.000 A 
ATOM     33  H   UNL     1      45.165   1.717  12.817  0.00  0.00    +0.000 HD
ENDBRANCH  20  23
ENDBRANCH  18  19
ENDBRANCH   4  18
TORSDOF 5
ENDMDL
MODEL 3
REMARK VINA RESULT:    -7.360      4.941      9.549
REMARK INTER + INTRA:         -10.294
REMARK INTER:                  -9.498
REMARK INTRA:                  -0.795
REMARK UNBOUND:                -0.782
REMARK  Name = 
REMARK  6 active torsions:
REMARK  status: ('A' for Active; 'I' for Inactive)
REMARK    1  A    between atoms: C_1  and  C_2
REMARK    2  A    between atoms: N_9  and  C_10
REMARK    3  A    between atoms: C_10  and  C_11
REMARK    4  A    between atoms: C_14  and  C_15
REMARK    5  A    between atoms: C_15  and  N_16
REMARK    6  A    between atoms: C_17  and  C_19
REMARK                            x       y       z     vdW  Elec       q    Type
REMARK                         _______ _______ _______ _____ _____    ______ ____
ROOT
ATOM      1  C   UNL     1      45.333   5.776  11.406  0.00  0.00    +0.000 A 
ATOM      2  C   UNL     1      45.104   7.156  11.374  0.00  0.00    +0.000 A 
ATOM      3  C   UNL     1      45.812   8.021  12.220  0.00  0.00    +0.000 A 
ATOM      4  C   UNL     1      46.780   7.526  13.104  0.00  0.00    +0.000 A 
ATOM      5  C   UNL     1      46.985   6.140  13.162  0.00  0.00    +0.000 A 
ATOM      6  C   UNL     1      46.276   5.276  12.318  0.00  0.00    +0.000 A 
ENDROOT
BRANCH   1   7
ATOM      7  C   UNL     1      44.568   4.847  10.497  0.00  0.00    +0.000 C 
BRANCH   7  16
ATOM      8  C   UNL     1      46.730   4.095   6.635  0.00  0.00    +0.000 C 
ATOM      9  C   UNL     1      46.723   2.720   7.203  0.00  0.00    +0.000 A 
ATOM     10  C   UNL     1      47.431   1.617   6.750  0.00  0.00    +0.000 A 
ATOM     11  C   UNL     1      47.017   0.494   7.493  0.00  0.00    +0.000 A 
ATOM     12  C   UNL     1      46.039   0.925   8.356  0.00  0.00    +0.000 A 
ATOM     13  N   UNL     1      45.864   2.294   8.215  0.00  0.00    +0.000 N 
ATOM     14  C   UNL     1      44.897   3.025   8.941  0.00  0.00    +0.000 C 
ATOM     15  O   UNL     1      43.775   2.563   9.092  0.00  0.00    +0.000 OA
ATOM     16  N   UNL     1      45.413   4.155   9.543  0.00  0.00    +0.000 N 
ATOM     17  H   UNL     1      46.417   4.203   9.670  0.00  0.00    +0.000 HD
ENDBRANCH   7  16
ENDBRANCH   1   7
BRANCH   4  18
ATOM     18  C   UNL     1      47.575   8.455  13.988  0.00  0.00    +0.000 C 
BRANCH  18  19
ATOM     19  N   UNL     1      48.070   7.785  15.165  0.00  0.00    +0.000 N 
ATOM     20  C   UNL     1      49.390   7.437  15.280  0.00  0.00    +0.000 C 
ATOM     21  O   UNL     1      50.182   7.540  14.346  0.00  0.00    +0.000 OA
ATOM     22  H   UNL     1      47.497   7.851  16.000  0.00  0.00    +0.000 HD
BRANCH  20  23
ATOM     23  C   UNL     1      49.820   6.916  16.583  0.00  0.00    +0.000 A 
ATOM     24  C   UNL     1      50.740   7.617  17.354  0.00  0.00    +0.000 A 
ATOM     25  S   UNL     1      51.060   6.889  18.864  0.00  0.00    +0.000 S 
ATOM     26  C   UNL     1      49.922   5.656  18.571  0.00  0.00    +0.000 A 
ATOM     27  N   UNL     1      49.615   4.741  19.528  0.00  0.00    +0.000 NA
ATOM     28  C   UNL     1      48.715   3.885  19.179  0.00  0.00    +0.000 A 
ATOM     29  N   UNL     1      48.125   3.833  17.938  0.00  0.00    +0.000 N 
ATOM     30  C   UNL     1      48.446   4.696  16.919  0.00  0.00    +0.000 A 
ATOM     31  O   UNL     1      47.988   4.558  15.795  0.00  0.00    +0.000 OA
ATOM     32  C   UNL     1      49.388   5.738  17.296  0.00  0.00    +0.000 A 
ATOM     33  H   UNL     1      47.475   3.099  17.711  0.00  0.00    +0.000 HD
ENDBRANCH  20  23
ENDBRANCH  18  19
ENDBRANCH   4  18
TORSDOF 5
ENDMDL
MODEL 4
REMARK VINA RESULT:    -7.258      7.132      8.149
REMARK INTER + INTRA:         -10.162
REMARK INTER:                  -9.250
REMARK INTRA:                  -0.912
REMARK UNBOUND:                -0.782
REMARK  Name = 
REMARK  6 active torsions:
REMARK  status: ('A' for Active; 'I' for Inactive)
REMARK    1  A    between atoms: C_1  and  C_2
REMARK    2  A    between atoms: N_9  and  C_10
REMARK    3  A    between atoms: C_10  and  C_11
REMARK    4  A    between atoms: C_14  and  C_15
REMARK    5  A    between atoms: C_15  and  N_16
REMARK    6  A    between atoms: C_17  and  C_19
REMARK                            x       y       z     vdW  Elec       q    Type
REMARK                         _______ _______ _______ _____ _____    ______ ____
ROOT
ATOM      1  C   UNL     1      49.969   9.103  11.505  0.00  0.00    +0.000 A 
ATOM      2  C   UNL     1      49.502   7.793  11.669  0.00  0.00    +0.000 A 
ATOM      3  C   UNL     1      48.201   7.548  12.129  0.00  0.00    +0.000 A 
ATOM      4  C   UNL     1      47.330   8.608  12.418  0.00  0.00    +0.000 A 
ATOM      5  C   UNL     1      47.809   9.919  12.287  0.00  0.00    +0.000 A 
ATOM      6  C   UNL     1      49.110  10.164  11.828  0.00  0.00    +0.000 A 
ENDROOT
BRANCH   1   7
ATOM      7  C   UNL     1      51.370   9.364  11.012  0.00  0.00    +0.000 C 
BRANCH   7  16
ATOM      8  C   UNL     1      54.411   6.099  10.507  0.00  0.00    +0.000 C 
ATOM      9  C   UNL     1      53.781   6.081   9.159  0.00  0.00    +0.000 A 
ATOM     10  C   UNL     1      53.945   5.129   8.164  0.00  0.00    +0.000 A 
ATOM     11  C   UNL     1      53.278   5.581   7.009  0.00  0.00    +0.000 A 
ATOM     12  C   UNL     1      52.755   6.815   7.308  0.00  0.00    +0.000 A 
ATOM     13  N   UNL     1      53.027   7.128   8.631  0.00  0.00    +0.000 N 
ATOM     14  C   UNL     1      52.650   8.354   9.225  0.00  0.00    +0.000 C 
ATOM     15  O   UNL     1      52.793   9.397   8.604  0.00  0.00    +0.000 OA
ATOM     16  N   UNL     1      52.001   8.193  10.433  0.00  0.00    +0.000 N 
ATOM     17  H   UNL     1      51.599   7.285  10.634  0.00  0.00    +0.000 HD
ENDBRANCH   7  16
ENDBRANCH   1   7
BRANCH   4  18
ATOM     18  C   UNL     1      45.916   8.351  12.874  0.00  0.00    +0.000 C 
BRANCH  18  19
ATOM     19  N   UNL     1      45.529   6.976  12.681  0.00  0.00    +0.000 N 
ATOM     20  C   UNL     1      44.550   6.634  11.786  0.00  0.00    +0.000 C 
ATOM     21  O   UNL     1      43.857   7.473  11.216  0.00  0.00    +0.000 OA
ATOM     22  H   UNL     1      46.189   6.271  12.992  0.00  0.00    +0.000 HD
BRANCH  20  23
ATOM     23  C   UNL     1      44.355   5.199  11.544  0.00  0.00    +0.000 A 
ATOM     24  C   UNL     1      43.627   4.426  12.440  0.00  0.00    +0.000 A 
ATOM     25  S   UNL     1      43.450   2.800  11.952  0.00  0.00    +0.000 S 
ATOM     26  C   UNL     1      44.273   3.094  10.490  0.00  0.00    +0.000 A 
ATOM     27  N   UNL     1      44.379   2.130   9.537  0.00  0.00    +0.000 NA
ATOM     28  C   UNL     1      45.000   2.501   8.470  0.00  0.00    +0.000 A 
ATOM     29  N   UNL     1      45.568   3.739   8.286  0.00  0.00    +0.000 N 
ATOM     30  C   UNL     1      45.541   4.725   9.242  0.00  0.00    +0.000 A 
ATOM     31  O   UNL     1      46.148   5.776   9.096  0.00  0.00    +0.000 OA
ATOM     32  C   UNL     1      44.769   4.385  10.426  0.00  0.00    +0.000 A 
ATOM     33  H   UNL     1      46.095   3.943   7.453  0.00  0.00    +0.000 HD
ENDBRANCH  20  23
ENDBRANCH  18  19
ENDBRANCH   4  18
TORSDOF 5
ENDMDL
MODEL 5
REMARK VINA RESULT:    -7.254      4.958      9.610
REMARK INTER + INTRA:         -10.157
REMARK INTER:                  -9.037
REMARK INTRA:                  -1.119
REMARK UNBOUND:                -0.782
REMARK  Name = 
REMARK  6 active torsions:
REMARK  status: ('A' for Active; 'I' for Inactive)
REMARK    1  A    between atoms: C_1  and  C_2
REMARK    2  A    between atoms: N_9  and  C_10
REMARK    3  A    between atoms: C_10  and  C_11
REMARK    4  A    between atoms: C_14  and  C_15
REMARK    5  A    between atoms: C_15  and  N_16
REMARK    6  A    between atoms: C_17  and  C_19
REMARK                            x       y       z     vdW  Elec       q    Type
REMARK                         _______ _______ _______ _____ _____    ______ ____
ROOT
ATOM      1  C   UNL     1      46.129   7.197  11.896  0.00  0.00    +0.000 A 
ATOM      2  C   UNL     1      45.853   8.268  12.755  0.00  0.00    +0.000 A 
ATOM      3  C   UNL     1      46.853   8.805  13.576  0.00  0.00    +0.000 A 
ATOM      4  C   UNL     1      48.159   8.295  13.545  0.00  0.00    +0.000 A 
ATOM      5  C   UNL     1      48.427   7.200  12.712  0.00  0.00    +0.000 A 
ATOM      6  C   UNL     1      47.427   6.663  11.891  0.00  0.00    +0.000 A 
ENDROOT
BRANCH   1   7
ATOM      7  C   UNL     1      45.051   6.620  11.015  0.00  0.00    +0.000 C 
BRANCH   7  16
ATOM      8  C   UNL     1      46.676   4.494   7.409  0.00  0.00    +0.000 C 
ATOM      9  C   UNL     1      46.061   3.349   8.134  0.00  0.00    +0.000 A 
ATOM     10  C   UNL     1      46.213   1.999   7.858  0.00  0.00    +0.000 A 
ATOM     11  C   UNL     1      45.344   1.279   8.701  0.00  0.00    +0.000 A 
ATOM     12  C   UNL     1      44.653   2.203   9.445  0.00  0.00    +0.000 A 
ATOM     13  N   UNL     1      45.099   3.479   9.133  0.00  0.00    +0.000 N 
ATOM     14  C   UNL     1      44.550   4.648   9.707  0.00  0.00    +0.000 C 
ATOM     15  O   UNL     1      43.338   4.746   9.841  0.00  0.00    +0.000 OA
ATOM     16  N   UNL     1      45.508   5.508  10.203  0.00  0.00    +0.000 N 
ATOM     17  H   UNL     1      46.431   5.131  10.386  0.00  0.00    +0.000 HD
ENDBRANCH   7  16
ENDBRANCH   1   7
BRANCH   4  18
ATOM     18  C   UNL     1      49.250   8.894  14.397  0.00  0.00    +0.000 C 
BRANCH  18  19
ATOM     19  N   UNL     1      49.515   8.099  15.570  0.00  0.00    +0.000 N 
ATOM     20  C   UNL     1      48.797   8.274  16.723  0.00  0.00    +0.000 C 
ATOM     21  O   UNL     1      48.002   9.200  16.869  0.00  0.00    +0.000 OA
ATOM     22  H   UNL     1      50.023   7.232  15.425  0.00  0.00    +0.000 HD
BRANCH  20  23
ATOM     23  C   UNL     1      49.032   7.301  17.796  0.00  0.00    +0.000 A 
ATOM     24  C   UNL     1      49.455   7.723  19.051  0.00  0.00    +0.000 A 
ATOM     25  S   UNL     1      49.605   6.455  20.183  0.00  0.00    +0.000 S 
ATOM     26  C   UNL     1      49.034   5.312  19.058  0.00  0.00    +0.000 A 
ATOM     27  N   UNL     1      48.808   4.021  19.420  0.00  0.00    +0.000 NA
ATOM     28  C   UNL     1      48.347   3.274  18.475  0.00  0.00    +0.000 A 
ATOM     29  N   UNL     1      48.135   3.690  17.183  0.00  0.00    +0.000 N 
ATOM     30  C   UNL     1      48.405   4.966  16.753  0.00  0.00    +0.000 A 
ATOM     31  O   UNL     1      48.311   5.279  15.576  0.00  0.00    +0.000 OA
ATOM     32  C   UNL     1      48.837   5.871  17.807  0.00  0.00    +0.000 A 
ATOM     33  H   UNL     1      47.833   3.039  16.477  0.00  0.00    +0.000 HD
ENDBRANCH  20  23
ENDBRANCH  18  19
ENDBRANCH   4  18
TORSDOF 5
ENDMDL
MODEL 6
REMARK VINA RESULT:    -6.974      5.587      7.776
REMARK INTER + INTRA:          -9.794
REMARK INTER:                  -9.066
REMARK INTRA:                  -0.728
REMARK UNBOUND:                -0.782
REMARK  Name = 
REMARK  6 active torsions:
REMARK  status: ('A' for Active; 'I' for Inactive)
REMARK    1  A    between atoms: C_1  and  C_2
REMARK    2  A    between atoms: N_9  and  C_10
REMARK    3  A    between atoms: C_10  and  C_11
REMARK    4  A    between atoms: C_14  and  C_15
REMARK    5  A    between atoms: C_15  and  N_16
REMARK    6  A    between atoms: C_17  and  C_19
REMARK                            x       y       z     vdW  Elec       q    Type
REMARK                         _______ _______ _______ _____ _____    ______ ____
ROOT
ATOM      1  C   UNL     1      47.467   6.210  13.842  0.00  0.00    +0.000 A 
ATOM      2  C   UNL     1      46.937   6.601  12.606  0.00  0.00    +0.000 A 
ATOM      3  C   UNL     1      45.986   5.808  11.951  0.00  0.00    +0.000 A 
ATOM      4  C   UNL     1      45.528   4.613  12.525  0.00  0.00    +0.000 A 
ATOM      5  C   UNL     1      46.085   4.204  13.745  0.00  0.00    +0.000 A 
ATOM      6  C   UNL     1      47.036   4.996  14.400  0.00  0.00    +0.000 A 
ENDROOT
BRANCH   1   7
ATOM      7  C   UNL     1      48.492   7.064  14.544  0.00  0.00    +0.000 C 
BRANCH   7  16
ATOM      8  C   UNL     1      48.334   9.023  18.581  0.00  0.00    +0.000 C 
ATOM      9  C   UNL     1      48.315   7.591  18.984  0.00  0.00    +0.000 A 
ATOM     10  C   UNL     1      48.051   7.073  20.243  0.00  0.00    +0.000 A 
ATOM     11  C   UNL     1      48.278   5.684  20.203  0.00  0.00    +0.000 A 
ATOM     12  C   UNL     1      48.713   5.387  18.934  0.00  0.00    +0.000 A 
ATOM     13  N   UNL     1      48.714   6.539  18.162  0.00  0.00    +0.000 N 
ATOM     14  C   UNL     1      49.150   6.563  16.817  0.00  0.00    +0.000 C 
ATOM     15  O   UNL     1      50.158   5.950  16.496  0.00  0.00    +0.000 OA
ATOM     16  N   UNL     1      48.256   7.186  15.970  0.00  0.00    +0.000 N 
ATOM     17  H   UNL     1      47.300   7.291  16.289  0.00  0.00    +0.000 HD
ENDBRANCH   7  16
ENDBRANCH   1   7
BRANCH   4  18
ATOM     18  C   UNL     1      44.475   3.775  11.844  0.00  0.00    +0.000 C 
BRANCH  18  19
ATOM     19  N   UNL     1      45.048   2.871  10.878  0.00  0.00    +0.000 N 
ATOM     20  C   UNL     1      44.875   3.068   9.533  0.00  0.00    +0.000 C 
ATOM     21  O   UNL     1      44.116   3.923   9.085  0.00  0.00    +0.000 OA
ATOM     22  H   UNL     1      45.808   2.282  11.203  0.00  0.00    +0.000 HD
BRANCH  20  23
ATOM     23  C   UNL     1      45.640   2.190   8.639  0.00  0.00    +0.000 A 
ATOM     24  C   UNL     1      45.539   0.809   8.752  0.00  0.00    +0.000 A 
ATOM     25  S   UNL     1      46.446  -0.040   7.581  0.00  0.00    +0.000 S 
ATOM     26  C   UNL     1      46.941   1.410   6.837  0.00  0.00    +0.000 A 
ATOM     27  N   UNL     1      47.662   1.398   5.684  0.00  0.00    +0.000 NA
ATOM     28  C   UNL     1      47.940   2.567   5.217  0.00  0.00    +0.000 A 
ATOM     29  N   UNL     1      47.602   3.753   5.824  0.00  0.00    +0.000 N 
ATOM     30  C   UNL     1      46.928   3.818   7.019  0.00  0.00    +0.000 A 
ATOM     31  O   UNL     1      46.737   4.880   7.591  0.00  0.00    +0.000 OA
ATOM     32  C   UNL     1      46.510   2.524   7.537  0.00  0.00    +0.000 A 
ATOM     33  H   UNL     1      47.906   4.632   5.438  0.00  0.00    +0.000 HD
ENDBRANCH  20  23
ENDBRANCH  18  19
ENDBRANCH   4  18
TORSDOF 5
ENDMDL
MODEL 7
REMARK VINA RESULT:    -6.965      1.605      2.656
REMARK INTER + INTRA:          -9.783
REMARK INTER:                  -8.769
REMARK INTRA:                  -1.015
REMARK UNBOUND:                -0.782
REMARK  Name = 
REMARK  6 active torsions:
REMARK  status: ('A' for Active; 'I' for Inactive)
REMARK    1  A    between atoms: C_1  and  C_2
REMARK    2  A    between atoms: N_9  and  C_10
REMARK    3  A    between atoms: C_10  and  C_11
REMARK    4  A    between atoms: C_14  and  C_15
REMARK    5  A    between atoms: C_15  and  N_16
REMARK    6  A    between atoms: C_17  and  C_19
REMARK                            x       y       z     vdW  Elec       q    Type
REMARK                         _______ _______ _______ _____ _____    ______ ____
ROOT
ATOM      1  C   UNL     1      51.477   3.135  17.788  0.00  0.00    +0.000 A 
ATOM      2  C   UNL     1      50.696   2.068  17.327  0.00  0.00    +0.000 A 
ATOM      3  C   UNL     1      49.343   2.252  17.012  0.00  0.00    +0.000 A 
ATOM      4  C   UNL     1      48.743   3.514  17.133  0.00  0.00    +0.000 A 
ATOM      5  C   UNL     1      49.515   4.574  17.628  0.00  0.00    +0.000 A 
ATOM      6  C   UNL     1      50.867   4.389  17.943  0.00  0.00    +0.000 A 
ENDROOT
BRANCH   1   7
ATOM      7  C   UNL     1      52.932   2.933  18.128  0.00  0.00    +0.000 C 
BRANCH   7  16
ATOM      8  C   UNL     1      54.661  -0.963  19.539  0.00  0.00    +0.000 C 
ATOM      9  C   UNL     1      54.740  -1.159  18.066  0.00  0.00    +0.000 A 
ATOM     10  C   UNL     1      55.025  -2.334  17.386  0.00  0.00    +0.000 A 
ATOM     11  C   UNL     1      55.135  -2.032  16.015  0.00  0.00    +0.000 A 
ATOM     12  C   UNL     1      54.955  -0.676  15.889  0.00  0.00    +0.000 A 
ATOM     13  N   UNL     1      54.682  -0.125  17.132  0.00  0.00    +0.000 N 
ATOM     14  C   UNL     1      54.488   1.260  17.335  0.00  0.00    +0.000 C 
ATOM     15  O   UNL     1      55.218   2.062  16.772  0.00  0.00    +0.000 OA
ATOM     16  N   UNL     1      53.349   1.546  18.061  0.00  0.00    +0.000 N 
ATOM     17  H   UNL     1      52.635   0.828  18.119  0.00  0.00    +0.000 HD
ENDBRANCH   7  16
ENDBRANCH   1   7
BRANCH   4  18
ATOM     18  C   UNL     1      47.298   3.728  16.757  0.00  0.00    +0.000 C 
BRANCH  18  19
ATOM     19  N   UNL     1      47.150   4.745  15.746  0.00  0.00    +0.000 N 
ATOM     20  C   UNL     1      47.012   4.416  14.424  0.00  0.00    +0.000 C 
ATOM     21  O   UNL     1      47.150   3.266  14.014  0.00  0.00    +0.000 OA
ATOM     22  H   UNL     1      46.857   5.663  16.065  0.00  0.00    +0.000 HD
BRANCH  20  23
ATOM     23  C   UNL     1      46.698   5.515  13.504  0.00  0.00    +0.000 A 
ATOM     24  C   UNL     1      45.565   5.462  12.702  0.00  0.00    +0.000 A 
ATOM     25  S   UNL     1      45.333   6.862  11.754  0.00  0.00    +0.000 S 
ATOM     26  C   UNL     1      46.696   7.617  12.440  0.00  0.00    +0.000 A 
ATOM     27  N   UNL     1      47.009   8.907  12.145  0.00  0.00    +0.000 NA
ATOM     28  C   UNL     1      48.048   9.359  12.760  0.00  0.00    +0.000 A 
ATOM     29  N   UNL     1      48.834   8.621  13.613  0.00  0.00    +0.000 N 
ATOM     30  C   UNL     1      48.596   7.298  13.896  0.00  0.00    +0.000 A 
ATOM     31  O   UNL     1      49.371   6.637  14.569  0.00  0.00    +0.000 OA
ATOM     32  C   UNL     1      47.379   6.772  13.298  0.00  0.00    +0.000 A 
ATOM     33  H   UNL     1      49.669   9.016  14.012  0.00  0.00    +0.000 HD
ENDBRANCH  20  23
ENDBRANCH  18  19
ENDBRANCH   4  18
TORSDOF 5
ENDMDL
MODEL 8
REMARK VINA RESULT:    -6.802      2.671      4.387
REMARK INTER + INTRA:          -9.572
REMARK INTER:                  -8.799
REMARK INTRA:                  -0.773
REMARK UNBOUND:                -0.782
REMARK  Name = 
REMARK  6 active torsions:
REMARK  status: ('A' for Active; 'I' for Inactive)
REMARK    1  A    between atoms: C_1  and  C_2
REMARK    2  A    between atoms: N_9  and  C_10
REMARK    3  A    between atoms: C_10  and  C_11
REMARK    4  A    between atoms: C_14  and  C_15
REMARK    5  A    between atoms: C_15  and  N_16
REMARK    6  A    between atoms: C_17  and  C_19
REMARK                            x       y       z     vdW  Elec       q    Type
REMARK                         _______ _______ _______ _____ _____    ______ ____
ROOT
ATOM      1  C   UNL     1      51.387   3.479  17.739  0.00  0.00    +0.000 A 
ATOM      2  C   UNL     1      50.782   2.295  17.299  0.00  0.00    +0.000 A 
ATOM      3  C   UNL     1      49.414   2.257  16.997  0.00  0.00    +0.000 A 
ATOM      4  C   UNL     1      48.622   3.409  17.111  0.00  0.00    +0.000 A 
ATOM      5  C   UNL     1      49.219   4.585  17.585  0.00  0.00    +0.000 A 
ATOM      6  C   UNL     1      50.587   4.622  17.887  0.00  0.00    +0.000 A 
ENDROOT
BRANCH   1   7
ATOM      7  C   UNL     1      52.858   3.516  18.065  0.00  0.00    +0.000 C 
BRANCH   7  16
ATOM      8  C   UNL     1      55.641   6.747  16.657  0.00  0.00    +0.000 C 
ATOM      9  C   UNL     1      55.129   7.368  17.908  0.00  0.00    +0.000 A 
ATOM     10  C   UNL     1      55.296   8.680  18.327  0.00  0.00    +0.000 A 
ATOM     11  C   UNL     1      54.771   8.795  19.629  0.00  0.00    +0.000 A 
ATOM     12  C   UNL     1      54.332   7.546  19.994  0.00  0.00    +0.000 A 
ATOM     13  N   UNL     1      54.515   6.662  18.941  0.00  0.00    +0.000 N 
ATOM     14  C   UNL     1      54.196   5.288  19.026  0.00  0.00    +0.000 C 
ATOM     15  O   UNL     1      54.480   4.661  20.036  0.00  0.00    +0.000 OA
ATOM     16  N   UNL     1      53.434   4.843  17.964  0.00  0.00    +0.000 N 
ATOM     17  H   UNL     1      52.941   5.538  17.415  0.00  0.00    +0.000 HD
ENDBRANCH   7  16
ENDBRANCH   1   7
BRANCH   4  18
ATOM     18  C   UNL     1      47.158   3.385  16.748  0.00  0.00    +0.000 C 
BRANCH  18  19
ATOM     19  N   UNL     1      46.812   4.447  15.836  0.00  0.00    +0.000 N 
ATOM     20  C   UNL     1      46.788   4.239  14.483  0.00  0.00    +0.000 C 
ATOM     21  O   UNL     1      47.195   3.200  13.969  0.00  0.00    +0.000 OA
ATOM     22  H   UNL     1      46.310   5.237  16.229  0.00  0.00    +0.000 HD
BRANCH  20  23
ATOM     23  C   UNL     1      46.260   5.334  13.660  0.00  0.00    +0.000 A 
ATOM     24  C   UNL     1      47.033   6.461  13.406  0.00  0.00    +0.000 A 
ATOM     25  S   UNL     1      46.275   7.590  12.375  0.00  0.00    +0.000 S 
ATOM     26  C   UNL     1      44.922   6.576  12.171  0.00  0.00    +0.000 A 
ATOM     27  N   UNL     1      43.926   6.898  11.304  0.00  0.00    +0.000 NA
ATOM     28  C   UNL     1      42.980   6.024  11.229  0.00  0.00    +0.000 A 
ATOM     29  N   UNL     1      42.917   4.874  11.979  0.00  0.00    +0.000 N 
ATOM     30  C   UNL     1      43.866   4.535  12.912  0.00  0.00    +0.000 A 
ATOM     31  O   UNL     1      43.729   3.565  13.642  0.00  0.00    +0.000 OA
ATOM     32  C   UNL     1      45.000   5.444  12.965  0.00  0.00    +0.000 A 
ATOM     33  H   UNL     1      42.117   4.266  11.917  0.00  0.00    +0.000 HD
ENDBRANCH  20  23
ENDBRANCH  18  19
ENDBRANCH   4  18
TORSDOF 5
ENDMDL
MODEL 9
REMARK VINA RESULT:    -6.305      6.607     10.407
REMARK INTER + INTRA:          -8.930
REMARK INTER:                  -8.142
REMARK INTRA:                  -0.788
REMARK UNBOUND:                -0.782
REMARK  Name = 
REMARK  6 active torsions:
REMARK  status: ('A' for Active; 'I' for Inactive)
REMARK    1  A    between atoms: C_1  and  C_2
REMARK    2  A    between atoms: N_9  and  C_10
REMARK    3  A    between atoms: C_10  and  C_11
REMARK    4  A    between atoms: C_14  and  C_15
REMARK    5  A    between atoms: C_15  and  N_16
REMARK    6  A    between atoms: C_17  and  C_19
REMARK                            x       y       z     vdW  Elec       q    Type
REMARK                         _______ _______ _______ _____ _____    ______ ____
ROOT
ATOM      1  C   UNL     1      49.023   7.200  13.329  0.00  0.00    +0.000 A 
ATOM      2  C   UNL     1      49.049   7.459  11.953  0.00  0.00    +0.000 A 
ATOM      3  C   UNL     1      50.075   8.226  11.386  0.00  0.00    +0.000 A 
ATOM      4  C   UNL     1      51.112   8.736  12.180  0.00  0.00    +0.000 A 
ATOM      5  C   UNL     1      51.068   8.507  13.562  0.00  0.00    +0.000 A 
ATOM      6  C   UNL     1      50.041   7.741  14.129  0.00  0.00    +0.000 A 
ENDROOT
BRANCH   1   7
ATOM      7  C   UNL     1      47.915   6.377  13.936  0.00  0.00    +0.000 C 
BRANCH   7  16
ATOM      8  C   UNL     1      44.088   6.815  11.629  0.00  0.00    +0.000 C 
ATOM      9  C   UNL     1      44.330   5.356  11.462  0.00  0.00    +0.000 A 
ATOM     10  C   UNL     1      43.672   4.487  10.606  0.00  0.00    +0.000 A 
ATOM     11  C   UNL     1      44.122   3.180  10.877  0.00  0.00    +0.000 A 
ATOM     12  C   UNL     1      45.013   3.273  11.918  0.00  0.00    +0.000 A 
ATOM     13  N   UNL     1      45.178   4.603  12.273  0.00  0.00    +0.000 N 
ATOM     14  C   UNL     1      46.005   5.019  13.341  0.00  0.00    +0.000 C 
ATOM     15  O   UNL     1      45.993   4.397  14.393  0.00  0.00    +0.000 OA
ATOM     16  N   UNL     1      46.870   6.036  12.991  0.00  0.00    +0.000 N 
ATOM     17  H   UNL     1      47.052   6.180  12.004  0.00  0.00    +0.000 HD
ENDBRANCH   7  16
ENDBRANCH   1   7
BRANCH   4  18
ATOM     18  C   UNL     1      52.243   9.527  11.570  0.00  0.00    +0.000 C 
BRANCH  18  19
ATOM     19  N   UNL     1      52.436   9.204  10.179  0.00  0.00    +0.000 N 
ATOM     20  C   UNL     1      53.565   8.554   9.752  0.00  0.00    +0.000 C 
ATOM     21  O   UNL     1      54.523   8.345  10.492  0.00  0.00    +0.000 OA
ATOM     22  H   UNL     1      51.607   9.200   9.594  0.00  0.00    +0.000 HD
BRANCH  20  23
ATOM     23  C   UNL     1      53.583   8.124   8.349  0.00  0.00    +0.000 A 
ATOM     24  C   UNL     1      53.576   9.062   7.324  0.00  0.00    +0.000 A 
ATOM     25  S   UNL     1      53.671   8.372   5.766  0.00  0.00    +0.000 S 
ATOM     26  C   UNL     1      53.803   6.802   6.412  0.00  0.00    +0.000 A 
ATOM     27  N   UNL     1      54.030   5.728   5.609  0.00  0.00    +0.000 NA
ATOM     28  C   UNL     1      54.138   4.606   6.236  0.00  0.00    +0.000 A 
ATOM     29  N   UNL     1      53.994   4.453   7.594  0.00  0.00    +0.000 N 
ATOM     30  C   UNL     1      53.705   5.495   8.440  0.00  0.00    +0.000 A 
ATOM     31  O   UNL     1      53.473   5.314   9.625  0.00  0.00    +0.000 OA
ATOM     32  C   UNL     1      53.666   6.796   7.790  0.00  0.00    +0.000 A 
ATOM     33  H   UNL     1      54.028   3.538   8.013  0.00  0.00    +0.000 HD
ENDBRANCH  20  23
ENDBRANCH  18  19
ENDBRANCH   4  18
TORSDOF 5
ENDMDL
