MODEL 1
REMARK VINA RESULT:    -6.885      0.000      0.000
REMARK INTER + INTRA:         -10.634
REMARK INTER:                  -9.502
REMARK INTRA:                  -1.133
REMARK UNBOUND:                -1.133
REMARK  Name = 
REMARK  7 active torsions:
REMARK  status: ('A' for Active; 'I' for Inactive)
REMARK    1  A    between atoms: N_1  and  C_2
REMARK    2  A    between atoms: C_2  and  C_3
REMARK    3  A    between atoms: N_7  and  C_8
REMARK    4  A    between atoms: C_8  and  C_9
REMARK    5  A    between atoms: C_12  and  C_13
REMARK    6  A    between atoms: C_13  and  N_14
REMARK    7  A    between atoms: C_15  and  C_17
REMARK                            x       y       z     vdW  Elec       q    Type
REMARK                         _______ _______ _______ _____ _____    ______ ____
ROOT
ATOM      1  C   UNL     1      51.310   3.858  17.674  0.00  0.00    +0.000 A 
ATOM      2  C   UNL     1      50.760   2.603  17.374  0.00  0.00    +0.000 A 
ATOM      3  C   UNL     1      49.398   2.462  17.097  0.00  0.00    +0.000 A 
ATOM      4  C   UNL     1      48.549   3.574  17.139  0.00  0.00    +0.000 A 
ATOM      5  C   UNL     1      49.077   4.811  17.529  0.00  0.00    +0.000 A 
ATOM      6  C   UNL     1      50.447   4.958  17.776  0.00  0.00    +0.000 A 
ENDROOT
BRANCH   1   7
ATOM      7  C   UNL     1      52.810   4.013  17.847  0.00  0.00    +0.000 C 
BRANCH   7  12
ATOM      8  C   UNL     1      55.312   1.245  18.611  0.00  0.00    +0.000 C 
ATOM      9  C   UNL     1      55.775   1.707  19.999  0.00  0.00    +0.000 C 
ATOM     10  C   UNL     1      54.652   2.369  20.786  0.00  0.00    +0.000 C 
ATOM     11  C   UNL     1      53.887   3.416  19.970  0.00  0.00    +0.000 C 
ATOM     12  N   UNL     1      53.460   2.941  18.642  0.00  0.00    +0.000 NA
ATOM     13  C   UNL     1      54.623   2.424  17.895  0.00  0.00    +0.000 C 
BRANCH   8  14
ATOM     14  C   UNL     1      54.383   0.013  18.628  0.00  0.00    +0.000 C 
BRANCH  14  15
ATOM     15  N   UNL     1      53.246   0.154  17.718  0.00  0.00    +0.000 NA
ATOM     16  H   UNL     1      52.607  -0.627  17.868  0.00  0.00    +0.000 HD
ATOM     17  H   UNL     1      53.570   0.059  16.754  0.00  0.00    +0.000 HD
ENDBRANCH  14  15
ENDBRANCH   8  14
ENDBRANCH   7  12
ENDBRANCH   1   7
BRANCH   4  18
ATOM     18  C   UNL     1      47.091   3.436  16.783  0.00  0.00    +0.000 C 
BRANCH  18  19
ATOM     19  N   UNL     1      46.695   4.418  15.808  0.00  0.00    +0.000 N 
ATOM     20  C   UNL     1      46.808   4.172  14.464  0.00  0.00    +0.000 C 
ATOM     21  O   UNL     1      47.206   3.094  14.027  0.00  0.00    +0.000 OA
ATOM     22  H   UNL     1      46.589   5.372  16.136  0.00  0.00    +0.000 HD
BRANCH  20  23
ATOM     23  C   UNL     1      46.367   5.246  13.568  0.00  0.00    +0.000 A 
ATOM     24  C   UNL     1      47.228   6.296  13.276  0.00  0.00    +0.000 A 
ATOM     25  S   UNL     1      46.582   7.429  12.181  0.00  0.00    +0.000 S 
ATOM     26  C   UNL     1      45.110   6.586  12.095  0.00  0.00    +0.000 A 
ATOM     27  N   UNL     1      44.082   7.046  11.335  0.00  0.00    +0.000 NA
ATOM     28  C   UNL     1      43.007   6.331  11.389  0.00  0.00    +0.000 A 
ATOM     29  N   UNL     1      42.870   5.189  12.135  0.00  0.00    +0.000 N 
ATOM     30  C   UNL     1      43.890   4.664  12.893  0.00  0.00    +0.000 A 
ATOM     31  O   UNL     1      43.750   3.612  13.506  0.00  0.00    +0.000 OA
ATOM     32  C   UNL     1      45.114   5.442  12.880  0.00  0.00    +0.000 A 
ATOM     33  H   UNL     1      42.008   4.664  12.124  0.00  0.00    +0.000 HD
ENDBRANCH  20  23
ENDBRANCH  18  19
ENDBRANCH   4  18
TORSDOF 7
ENDMDL
MODEL 2
REMARK VINA RESULT:    -6.711      3.951      5.568
REMARK INTER + INTRA:         -10.393
REMARK INTER:                  -9.094
REMARK INTRA:                  -1.299
REMARK UNBOUND:                -1.133
REMARK  Name = 
REMARK  7 active torsions:
REMARK  status: ('A' for Active; 'I' for Inactive)
REMARK    1  A    between atoms: N_1  and  C_2
REMARK    2  A    between atoms: C_2  and  C_3
REMARK    3  A    between atoms: N_7  and  C_8
REMARK    4  A    between atoms: C_8  and  C_9
REMARK    5  A    between atoms: C_12  and  C_13
REMARK    6  A    between atoms: C_13  and  N_14
REMARK    7  A    between atoms: C_15  and  C_17
REMARK                            x       y       z     vdW  Elec       q    Type
REMARK                         _______ _______ _______ _____ _____    ______ ____
ROOT
ATOM      1  C   UNL     1      48.831   7.874  16.029  0.00  0.00    +0.000 A 
ATOM      2  C   UNL     1      48.265   9.019  15.448  0.00  0.00    +0.000 A 
ATOM      3  C   UNL     1      47.806   9.003  14.129  0.00  0.00    +0.000 A 
ATOM      4  C   UNL     1      47.927   7.845  13.351  0.00  0.00    +0.000 A 
ATOM      5  C   UNL     1      48.575   6.731  13.898  0.00  0.00    +0.000 A 
ATOM      6  C   UNL     1      49.007   6.737  15.230  0.00  0.00    +0.000 A 
ENDROOT
BRANCH   1   7
ATOM      7  C   UNL     1      49.207   7.871  17.499  0.00  0.00    +0.000 C 
BRANCH   7  12
ATOM      8  C   UNL     1      49.466   4.566  19.373  0.00  0.00    +0.000 C 
ATOM      9  C   UNL     1      48.681   4.937  20.638  0.00  0.00    +0.000 C 
ATOM     10  C   UNL     1      47.541   5.903  20.342  0.00  0.00    +0.000 C 
ATOM     11  C   UNL     1      47.972   7.086  19.469  0.00  0.00    +0.000 C 
ATOM     12  N   UNL     1      48.725   6.694  18.264  0.00  0.00    +0.000 NA
ATOM     13  C   UNL     1      49.882   5.859  18.645  0.00  0.00    +0.000 C 
BRANCH   8  14
ATOM     14  C   UNL     1      48.711   3.627  18.409  0.00  0.00    +0.000 C 
BRANCH  14  15
ATOM     15  N   UNL     1      49.198   3.725  17.033  0.00  0.00    +0.000 NA
ATOM     16  H   UNL     1      48.661   3.086  16.448  0.00  0.00    +0.000 HD
ATOM     17  H   UNL     1      50.162   3.389  16.990  0.00  0.00    +0.000 HD
ENDBRANCH  14  15
ENDBRANCH   8  14
ENDBRANCH   7  12
ENDBRANCH   1   7
BRANCH   4  18
ATOM     18  C   UNL     1      47.380   7.807  11.947  0.00  0.00    +0.000 C 
BRANCH  18  19
ATOM     19  N   UNL     1      46.725   6.555  11.674  0.00  0.00    +0.000 N 
ATOM     20  C   UNL     1      45.365   6.424  11.786  0.00  0.00    +0.000 C 
ATOM     21  O   UNL     1      44.637   7.370  12.078  0.00  0.00    +0.000 OA
ATOM     22  H   UNL     1      47.309   5.726  11.663  0.00  0.00    +0.000 HD
BRANCH  20  23
ATOM     23  C   UNL     1      44.812   5.101  11.478  0.00  0.00    +0.000 A 
ATOM     24  C   UNL     1      44.074   4.421  12.438  0.00  0.00    +0.000 A 
ATOM     25  S   UNL     1      43.462   2.925  11.902  0.00  0.00    +0.000 S 
ATOM     26  C   UNL     1      44.202   3.106  10.384  0.00  0.00    +0.000 A 
ATOM     27  N   UNL     1      44.097   2.141   9.433  0.00  0.00    +0.000 NA
ATOM     28  C   UNL     1      44.739   2.388   8.339  0.00  0.00    +0.000 A 
ATOM     29  N   UNL     1      45.475   3.521   8.108  0.00  0.00    +0.000 N 
ATOM     30  C   UNL     1      45.585   4.540   9.024  0.00  0.00    +0.000 A 
ATOM     31  O   UNL     1      46.208   5.564   8.765  0.00  0.00    +0.000 OA
ATOM     32  C   UNL     1      44.896   4.302  10.278  0.00  0.00    +0.000 A 
ATOM     33  H   UNL     1      45.943   3.663   7.225  0.00  0.00    +0.000 HD
ENDBRANCH  20  23
ENDBRANCH  18  19
ENDBRANCH   4  18
TORSDOF 7
ENDMDL
MODEL 3
REMARK VINA RESULT:    -6.661      2.233      3.318
REMARK INTER + INTRA:         -10.325
REMARK INTER:                  -9.099
REMARK INTRA:                  -1.226
REMARK UNBOUND:                -1.133
REMARK  Name = 
REMARK  7 active torsions:
REMARK  status: ('A' for Active; 'I' for Inactive)
REMARK    1  A    between atoms: N_1  and  C_2
REMARK    2  A    between atoms: C_2  and  C_3
REMARK    3  A    between atoms: N_7  and  C_8
REMARK    4  A    between atoms: C_8  and  C_9
REMARK    5  A    between atoms: C_12  and  C_13
REMARK    6  A    between atoms: C_13  and  N_14
REMARK    7  A    between atoms: C_15  and  C_17
REMARK                            x       y       z     vdW  Elec       q    Type
REMARK                         _______ _______ _______ _____ _____    ______ ____
ROOT
ATOM      1  C   UNL     1      51.259   4.656  17.863  0.00  0.00    +0.000 A 
ATOM      2  C   UNL     1      50.928   3.301  17.714  0.00  0.00    +0.000 A 
ATOM      3  C   UNL     1      49.643   2.912  17.327  0.00  0.00    +0.000 A 
ATOM      4  C   UNL     1      48.650   3.874  17.105  0.00  0.00    +0.000 A 
ATOM      5  C   UNL     1      48.951   5.221  17.343  0.00  0.00    +0.000 A 
ATOM      6  C   UNL     1      50.247   5.611  17.700  0.00  0.00    +0.000 A 
ENDROOT
BRANCH   1   7
ATOM      7  C   UNL     1      52.690   5.064  18.159  0.00  0.00    +0.000 C 
BRANCH   7  12
ATOM      8  C   UNL     1      54.356   7.721  15.998  0.00  0.00    +0.000 C 
ATOM      9  C   UNL     1      55.710   7.037  15.765  0.00  0.00    +0.000 C 
ATOM     10  C   UNL     1      55.577   5.523  15.671  0.00  0.00    +0.000 C 
ATOM     11  C   UNL     1      54.728   4.926  16.799  0.00  0.00    +0.000 C 
ATOM     12  N   UNL     1      53.437   5.608  16.997  0.00  0.00    +0.000 NA
ATOM     13  C   UNL     1      53.658   7.053  17.199  0.00  0.00    +0.000 C 
BRANCH   8  14
ATOM     14  C   UNL     1      53.423   7.719  14.768  0.00  0.00    +0.000 C 
BRANCH  14  15
ATOM     15  N   UNL     1      52.046   7.357  15.108  0.00  0.00    +0.000 NA
ATOM     16  H   UNL     1      51.487   7.358  14.255  0.00  0.00    +0.000 HD
ATOM     17  H   UNL     1      51.642   8.084  15.700  0.00  0.00    +0.000 HD
ENDBRANCH  14  15
ENDBRANCH   8  14
ENDBRANCH   7  12
ENDBRANCH   1   7
BRANCH   4  18
ATOM     18  C   UNL     1      47.280   3.462  16.631  0.00  0.00    +0.000 C 
BRANCH  18  19
ATOM     19  N   UNL     1      46.736   4.421  15.706  0.00  0.00    +0.000 N 
ATOM     20  C   UNL     1      46.786   4.210  14.352  0.00  0.00    +0.000 C 
ATOM     21  O   UNL     1      47.252   3.181  13.866  0.00  0.00    +0.000 OA
ATOM     22  H   UNL     1      46.566   5.355  16.061  0.00  0.00    +0.000 HD
BRANCH  20  23
ATOM     23  C   UNL     1      46.195   5.255  13.509  0.00  0.00    +0.000 A 
ATOM     24  C   UNL     1      46.896   6.431  13.277  0.00  0.00    +0.000 A 
ATOM     25  S   UNL     1      46.093   7.516  12.239  0.00  0.00    +0.000 S 
ATOM     26  C   UNL     1      44.757   6.475  12.100  0.00  0.00    +0.000 A 
ATOM     27  N   UNL     1      43.673   6.823  11.358  0.00  0.00    +0.000 NA
ATOM     28  C   UNL     1      42.712   5.958  11.368  0.00  0.00    +0.000 A 
ATOM     29  N   UNL     1      42.741   4.771  12.053  0.00  0.00    +0.000 N 
ATOM     30  C   UNL     1      43.827   4.360  12.789  0.00  0.00    +0.000 A 
ATOM     31  O   UNL     1      43.840   3.268  13.346  0.00  0.00    +0.000 OA
ATOM     32  C   UNL     1      44.926   5.305  12.824  0.00  0.00    +0.000 A 
ATOM     33  H   UNL     1      41.963   4.130  12.009  0.00  0.00    +0.000 HD
ENDBRANCH  20  23
ENDBRANCH  18  19
ENDBRANCH   4  18
TORSDOF 7
ENDMDL
MODEL 4
REMARK VINA RESULT:    -6.454      3.981      5.356
REMARK INTER + INTRA:         -10.039
REMARK INTER:                  -8.986
REMARK INTRA:                  -1.052
REMARK UNBOUND:                -1.133
REMARK  Name = 
REMARK  7 active torsions:
REMARK  status: ('A' for Active; 'I' for Inactive)
REMARK    1  A    between atoms: N_1  and  C_2
REMARK    2  A    between atoms: C_2  and  C_3
REMARK    3  A    between atoms: N_7  and  C_8
REMARK    4  A    between atoms: C_8  and  C_9
REMARK    5  A    between atoms: C_12  and  C_13
REMARK    6  A    between atoms: C_13  and  N_14
REMARK    7  A    between atoms: C_15  and  C_17
REMARK                            x       y       z     vdW  Elec       q    Type
REMARK                         _______ _______ _______ _____ _____    ______ ____
ROOT
ATOM      1  C   UNL     1      49.563   7.791  15.807  0.00  0.00    +0.000 A 
ATOM      2  C   UNL     1      48.392   8.539  15.612  0.00  0.00    +0.000 A 
ATOM      3  C   UNL     1      47.895   8.775  14.329  0.00  0.00    +0.000 A 
ATOM      4  C   UNL     1      48.575   8.289  13.205  0.00  0.00    +0.000 A 
ATOM      5  C   UNL     1      49.793   7.622  13.392  0.00  0.00    +0.000 A 
ATOM      6  C   UNL     1      50.274   7.358  14.680  0.00  0.00    +0.000 A 
ENDROOT
BRANCH   1   7
ATOM      7  C   UNL     1      50.017   7.437  17.211  0.00  0.00    +0.000 C 
BRANCH   7  12
ATOM      8  C   UNL     1      48.692   4.047  18.335  0.00  0.00    +0.000 C 
ATOM      9  C   UNL     1      48.632   4.295  19.848  0.00  0.00    +0.000 C 
ATOM     10  C   UNL     1      48.272   5.738  20.177  0.00  0.00    +0.000 C 
ATOM     11  C   UNL     1      49.094   6.756  19.380  0.00  0.00    +0.000 C 
ATOM     12  N   UNL     1      49.133   6.487  17.932  0.00  0.00    +0.000 NA
ATOM     13  C   UNL     1      49.605   5.109  17.690  0.00  0.00    +0.000 C 
BRANCH   8  14
ATOM     14  C   UNL     1      47.316   4.029  17.638  0.00  0.00    +0.000 C 
BRANCH  14  15
ATOM     15  N   UNL     1      46.636   2.740  17.769  0.00  0.00    +0.000 NA
ATOM     16  H   UNL     1      47.155   2.161  18.430  0.00  0.00    +0.000 HD
ATOM     17  H   UNL     1      46.679   2.243  16.879  0.00  0.00    +0.000 HD
ENDBRANCH  14  15
ENDBRANCH   8  14
ENDBRANCH   7  12
ENDBRANCH   1   7
BRANCH   4  18
ATOM     18  C   UNL     1      48.011   8.492  11.823  0.00  0.00    +0.000 C 
BRANCH  18  19
ATOM     19  N   UNL     1      47.410   7.285  11.320  0.00  0.00    +0.000 N 
ATOM     20  C   UNL     1      46.048   7.129  11.286  0.00  0.00    +0.000 C 
ATOM     21  O   UNL     1      45.278   8.020  11.637  0.00  0.00    +0.000 OA
ATOM     22  H   UNL     1      48.010   6.470  11.249  0.00  0.00    +0.000 HD
BRANCH  20  23
ATOM     23  C   UNL     1      45.554   5.857  10.748  0.00  0.00    +0.000 A 
ATOM     24  C   UNL     1      45.816   5.521   9.426  0.00  0.00    +0.000 A 
ATOM     25  S   UNL     1      45.217   3.992   8.975  0.00  0.00    +0.000 S 
ATOM     26  C   UNL     1      44.542   3.744  10.514  0.00  0.00    +0.000 A 
ATOM     27  N   UNL     1      43.844   2.613  10.800  0.00  0.00    +0.000 NA
ATOM     28  C   UNL     1      43.353   2.569  11.994  0.00  0.00    +0.000 A 
ATOM     29  N   UNL     1      43.502   3.556  12.934  0.00  0.00    +0.000 N 
ATOM     30  C   UNL     1      44.226   4.702  12.705  0.00  0.00    +0.000 A 
ATOM     31  O   UNL     1      44.384   5.540  13.585  0.00  0.00    +0.000 OA
ATOM     32  C   UNL     1      44.784   4.808  11.370  0.00  0.00    +0.000 A 
ATOM     33  H   UNL     1      43.106   3.455  13.856  0.00  0.00    +0.000 HD
ENDBRANCH  20  23
ENDBRANCH  18  19
ENDBRANCH   4  18
TORSDOF 7
ENDMDL
MODEL 5
REMARK VINA RESULT:    -6.314      2.572      3.958
REMARK INTER + INTRA:          -9.845
REMARK INTER:                  -8.078
REMARK INTRA:                  -1.767
REMARK UNBOUND:                -1.133
REMARK  Name = 
REMARK  7 active torsions:
REMARK  status: ('A' for Active; 'I' for Inactive)
REMARK    1  A    between atoms: N_1  and  C_2
REMARK    2  A    between atoms: C_2  and  C_3
REMARK    3  A    between atoms: N_7  and  C_8
REMARK    4  A    between atoms: C_8  and  C_9
REMARK    5  A    between atoms: C_12  and  C_13
REMARK    6  A    between atoms: C_13  and  N_14
REMARK    7  A    between atoms: C_15  and  C_17
REMARK                            x       y       z     vdW  Elec       q    Type
REMARK                         _______ _______ _______ _____ _____    ______ ____
ROOT
ATOM      1  C   UNL     1      51.637   4.131  18.030  0.00  0.00    +0.000 A 
ATOM      2  C   UNL     1      51.237   2.857  17.598  0.00  0.00    +0.000 A 
ATOM      3  C   UNL     1      49.897   2.579  17.322  0.00  0.00    +0.000 A 
ATOM      4  C   UNL     1      48.918   3.565  17.497  0.00  0.00    +0.000 A 
ATOM      5  C   UNL     1      49.301   4.808  18.017  0.00  0.00    +0.000 A 
ATOM      6  C   UNL     1      50.649   5.096  18.263  0.00  0.00    +0.000 A 
ENDROOT
BRANCH   1   7
ATOM      7  C   UNL     1      53.110   4.451  18.202  0.00  0.00    +0.000 C 
BRANCH   7  12
ATOM      8  C   UNL     1      54.325   7.523  16.307  0.00  0.00    +0.000 C 
ATOM      9  C   UNL     1      55.733   7.041  15.932  0.00  0.00    +0.000 C 
ATOM     10  C   UNL     1      55.771   5.543  15.661  0.00  0.00    +0.000 C 
ATOM     11  C   UNL     1      55.066   4.721  16.745  0.00  0.00    +0.000 C 
ATOM     12  N   UNL     1      53.718   5.213  17.083  0.00  0.00    +0.000 NA
ATOM     13  C   UNL     1      53.782   6.641  17.449  0.00  0.00    +0.000 C 
BRANCH   8  14
ATOM     14  C   UNL     1      53.328   7.550  15.130  0.00  0.00    +0.000 C 
BRANCH  14  15
ATOM     15  N   UNL     1      51.994   7.082  15.513  0.00  0.00    +0.000 NA
ATOM     16  H   UNL     1      51.511   6.750  14.678  0.00  0.00    +0.000 HD
ATOM     17  H   UNL     1      51.443   7.872  15.851  0.00  0.00    +0.000 HD
ENDBRANCH  14  15
ENDBRANCH   8  14
ENDBRANCH   7  12
ENDBRANCH   1   7
BRANCH   4  18
ATOM     18  C   UNL     1      47.480   3.286  17.144  0.00  0.00    +0.000 C 
BRANCH  18  19
ATOM     19  N   UNL     1      46.992   4.217  16.162  0.00  0.00    +0.000 N 
ATOM     20  C   UNL     1      47.075   3.944  14.821  0.00  0.00    +0.000 C 
ATOM     21  O   UNL     1      47.523   2.883  14.394  0.00  0.00    +0.000 OA
ATOM     22  H   UNL     1      46.839   5.171  16.471  0.00  0.00    +0.000 HD
BRANCH  20  23
ATOM     23  C   UNL     1      46.539   4.967  13.916  0.00  0.00    +0.000 A 
ATOM     24  C   UNL     1      45.339   4.741  13.254  0.00  0.00    +0.000 A 
ATOM     25  S   UNL     1      44.833   6.046  12.284  0.00  0.00    +0.000 S 
ATOM     26  C   UNL     1      46.223   6.943  12.674  0.00  0.00    +0.000 A 
ATOM     27  N   UNL     1      46.434   8.175  12.141  0.00  0.00    +0.000 NA
ATOM     28  C   UNL     1      47.547   8.731  12.490  0.00  0.00    +0.000 A 
ATOM     29  N   UNL     1      48.469   8.164  13.332  0.00  0.00    +0.000 N 
ATOM     30  C   UNL     1      48.286   6.936  13.922  0.00  0.00    +0.000 A 
ATOM     31  O   UNL     1      49.107   6.483  14.712  0.00  0.00    +0.000 OA
ATOM     32  C   UNL     1      47.058   6.262  13.547  0.00  0.00    +0.000 A 
ATOM     33  H   UNL     1      49.315   8.656  13.579  0.00  0.00    +0.000 HD
ENDBRANCH  20  23
ENDBRANCH  18  19
ENDBRANCH   4  18
TORSDOF 7
ENDMDL
MODEL 6
REMARK VINA RESULT:    -6.301      1.923      3.052
REMARK INTER + INTRA:          -9.827
REMARK INTER:                  -8.653
REMARK INTRA:                  -1.174
REMARK UNBOUND:                -1.133
REMARK  Name = 
REMARK  7 active torsions:
REMARK  status: ('A' for Active; 'I' for Inactive)
REMARK    1  A    between atoms: N_1  and  C_2
REMARK    2  A    between atoms: C_2  and  C_3
REMARK    3  A    between atoms: N_7  and  C_8
REMARK    4  A    between atoms: C_8  and  C_9
REMARK    5  A    between atoms: C_12  and  C_13
REMARK    6  A    between atoms: C_13  and  N_14
REMARK    7  A    between atoms: C_15  and  C_17
REMARK                            x       y       z     vdW  Elec       q    Type
REMARK                         _______ _______ _______ _____ _____    ______ ____
ROOT
ATOM      1  C   UNL     1      50.545   4.932  17.694  0.00  0.00    +0.000 A 
ATOM      2  C   UNL     1      49.174   5.182  17.539  0.00  0.00    +0.000 A 
ATOM      3  C   UNL     1      48.717   6.165  16.659  0.00  0.00    +0.000 A 
ATOM      4  C   UNL     1      49.626   6.940  15.929  0.00  0.00    +0.000 A 
ATOM      5  C   UNL     1      50.997   6.757  16.151  0.00  0.00    +0.000 A 
ATOM      6  C   UNL     1      51.454   5.750  17.010  0.00  0.00    +0.000 A 
ENDROOT
BRANCH   1   7
ATOM      7  C   UNL     1      51.018   3.777  18.557  0.00  0.00    +0.000 C 
BRANCH   7  12
ATOM      8  C   UNL     1      54.528   2.303  18.450  0.00  0.00    +0.000 C 
ATOM      9  C   UNL     1      54.176   0.852  18.096  0.00  0.00    +0.000 C 
ATOM     10  C   UNL     1      52.959   0.764  17.184  0.00  0.00    +0.000 C 
ATOM     11  C   UNL     1      51.786   1.623  17.668  0.00  0.00    +0.000 C 
ATOM     12  N   UNL     1      52.160   3.009  18.001  0.00  0.00    +0.000 NA
ATOM     13  C   UNL     1      53.265   3.009  18.980  0.00  0.00    +0.000 C 
BRANCH   8  14
ATOM     14  C   UNL     1      55.144   3.109  17.287  0.00  0.00    +0.000 C 
BRANCH  14  15
ATOM     15  N   UNL     1      54.829   4.536  17.364  0.00  0.00    +0.000 NA
ATOM     16  H   UNL     1      55.197   4.907  18.240  0.00  0.00    +0.000 HD
ATOM     17  H   UNL     1      53.817   4.656  17.421  0.00  0.00    +0.000 HD
ENDBRANCH  14  15
ENDBRANCH   8  14
ENDBRANCH   7  12
ENDBRANCH   1   7
BRANCH   4  18
ATOM     18  C   UNL     1      49.136   7.961  14.935  0.00  0.00    +0.000 C 
BRANCH  18  19
ATOM     19  N   UNL     1      47.904   7.544  14.320  0.00  0.00    +0.000 N 
ATOM     20  C   UNL     1      47.900   6.727  13.219  0.00  0.00    +0.000 C 
ATOM     21  O   UNL     1      48.936   6.277  12.733  0.00  0.00    +0.000 OA
ATOM     22  H   UNL     1      47.073   8.077  14.552  0.00  0.00    +0.000 HD
BRANCH  20  23
ATOM     23  C   UNL     1      46.583   6.365  12.683  0.00  0.00    +0.000 A 
ATOM     24  C   UNL     1      45.765   7.350  12.145  0.00  0.00    +0.000 A 
ATOM     25  S   UNL     1      44.295   6.755  11.522  0.00  0.00    +0.000 S 
ATOM     26  C   UNL     1      44.677   5.168  11.993  0.00  0.00    +0.000 A 
ATOM     27  N   UNL     1      43.809   4.145  11.776  0.00  0.00    +0.000 NA
ATOM     28  C   UNL     1      44.206   2.997  12.218  0.00  0.00    +0.000 A 
ATOM     29  N   UNL     1      45.400   2.780  12.854  0.00  0.00    +0.000 N 
ATOM     30  C   UNL     1      46.326   3.774  13.066  0.00  0.00    +0.000 A 
ATOM     31  O   UNL     1      47.407   3.534  13.591  0.00  0.00    +0.000 OA
ATOM     32  C   UNL     1      45.918   5.087  12.605  0.00  0.00    +0.000 A 
ATOM     33  H   UNL     1      45.661   1.855  13.163  0.00  0.00    +0.000 HD
ENDBRANCH  20  23
ENDBRANCH  18  19
ENDBRANCH   4  18
TORSDOF 7
ENDMDL
MODEL 7
REMARK VINA RESULT:    -6.293      1.713      2.902
REMARK INTER + INTRA:          -9.818
REMARK INTER:                  -8.742
REMARK INTRA:                  -1.076
REMARK UNBOUND:                -1.133
REMARK  Name = 
REMARK  7 active torsions:
REMARK  status: ('A' for Active; 'I' for Inactive)
REMARK    1  A    between atoms: N_1  and  C_2
REMARK    2  A    between atoms: C_2  and  C_3
REMARK    3  A    between atoms: N_7  and  C_8
REMARK    4  A    between atoms: C_8  and  C_9
REMARK    5  A    between atoms: C_12  and  C_13
REMARK    6  A    between atoms: C_13  and  N_14
REMARK    7  A    between atoms: C_15  and  C_17
REMARK                            x       y       z     vdW  Elec       q    Type
REMARK                         _______ _______ _______ _____ _____    ______ ____
ROOT
ATOM      1  C   UNL     1      51.339   3.573  17.982  0.00  0.00    +0.000 A 
ATOM      2  C   UNL     1      50.530   4.709  18.136  0.00  0.00    +0.000 A 
ATOM      3  C   UNL     1      49.177   4.679  17.791  0.00  0.00    +0.000 A 
ATOM      4  C   UNL     1      48.607   3.517  17.257  0.00  0.00    +0.000 A 
ATOM      5  C   UNL     1      49.434   2.412  17.015  0.00  0.00    +0.000 A 
ATOM      6  C   UNL     1      50.782   2.432  17.390  0.00  0.00    +0.000 A 
ENDROOT
BRANCH   1   7
ATOM      7  C   UNL     1      52.773   3.585  18.480  0.00  0.00    +0.000 C 
BRANCH   7  12
ATOM      8  C   UNL     1      55.221   6.298  19.549  0.00  0.00    +0.000 C 
ATOM      9  C   UNL     1      55.772   6.691  18.171  0.00  0.00    +0.000 C 
ATOM     10  C   UNL     1      54.714   6.585  17.081  0.00  0.00    +0.000 C 
ATOM     11  C   UNL     1      53.941   5.263  17.124  0.00  0.00    +0.000 C 
ATOM     12  N   UNL     1      53.429   4.916  18.462  0.00  0.00    +0.000 NA
ATOM     13  C   UNL     1      54.534   4.923  19.440  0.00  0.00    +0.000 C 
BRANCH   8  14
ATOM     14  C   UNL     1      54.256   7.332  20.165  0.00  0.00    +0.000 C 
BRANCH  14  15
ATOM     15  N   UNL     1      53.152   6.706  20.895  0.00  0.00    +0.000 NA
ATOM     16  H   UNL     1      52.823   7.353  21.611  0.00  0.00    +0.000 HD
ATOM     17  H   UNL     1      53.502   5.892  21.402  0.00  0.00    +0.000 HD
ENDBRANCH  14  15
ENDBRANCH   8  14
ENDBRANCH   7  12
ENDBRANCH   1   7
BRANCH   4  18
ATOM     18  C   UNL     1      47.136   3.463  16.938  0.00  0.00    +0.000 C 
BRANCH  18  19
ATOM     19  N   UNL     1      46.785   4.418  15.920  0.00  0.00    +0.000 N 
ATOM     20  C   UNL     1      46.991   4.148  14.591  0.00  0.00    +0.000 C 
ATOM     21  O   UNL     1      47.436   3.070  14.203  0.00  0.00    +0.000 OA
ATOM     22  H   UNL     1      46.641   5.376  16.220  0.00  0.00    +0.000 HD
BRANCH  20  23
ATOM     23  C   UNL     1      46.589   5.195  13.646  0.00  0.00    +0.000 A 
ATOM     24  C   UNL     1      47.484   6.206  13.317  0.00  0.00    +0.000 A 
ATOM     25  S   UNL     1      46.880   7.310  12.169  0.00  0.00    +0.000 S 
ATOM     26  C   UNL     1      45.384   6.508  12.107  0.00  0.00    +0.000 A 
ATOM     27  N   UNL     1      44.376   6.966  11.318  0.00  0.00    +0.000 NA
ATOM     28  C   UNL     1      43.279   6.286  11.394  0.00  0.00    +0.000 A 
ATOM     29  N   UNL     1      43.103   5.181  12.186  0.00  0.00    +0.000 N 
ATOM     30  C   UNL     1      44.101   4.660  12.975  0.00  0.00    +0.000 A 
ATOM     31  O   UNL     1      43.924   3.639  13.631  0.00  0.00    +0.000 OA
ATOM     32  C   UNL     1      45.348   5.400  12.939  0.00  0.00    +0.000 A 
ATOM     33  H   UNL     1      42.225   4.683  12.190  0.00  0.00    +0.000 HD
ENDBRANCH  20  23
ENDBRANCH  18  19
ENDBRANCH   4  18
TORSDOF 7
ENDMDL
MODEL 8
REMARK VINA RESULT:    -6.239      6.866      7.925
REMARK INTER + INTRA:          -9.742
REMARK INTER:                  -8.780
REMARK INTRA:                  -0.963
REMARK UNBOUND:                -1.133
REMARK  Name = 
REMARK  7 active torsions:
REMARK  status: ('A' for Active; 'I' for Inactive)
REMARK    1  A    between atoms: N_1  and  C_2
REMARK    2  A    between atoms: C_2  and  C_3
REMARK    3  A    between atoms: N_7  and  C_8
REMARK    4  A    between atoms: C_8  and  C_9
REMARK    5  A    between atoms: C_12  and  C_13
REMARK    6  A    between atoms: C_13  and  N_14
REMARK    7  A    between atoms: C_15  and  C_17
REMARK                            x       y       z     vdW  Elec       q    Type
REMARK                         _______ _______ _______ _____ _____    ______ ____
ROOT
ATOM      1  C   UNL     1      50.765   8.828  11.556  0.00  0.00    +0.000 A 
ATOM      2  C   UNL     1      49.878   9.911  11.468  0.00  0.00    +0.000 A 
ATOM      3  C   UNL     1      48.506   9.735  11.663  0.00  0.00    +0.000 A 
ATOM      4  C   UNL     1      47.985   8.462  11.925  0.00  0.00    +0.000 A 
ATOM      5  C   UNL     1      48.856   7.365  11.921  0.00  0.00    +0.000 A 
ATOM      6  C   UNL     1      50.234   7.546  11.757  0.00  0.00    +0.000 A 
ENDROOT
BRANCH   1   7
ATOM      7  C   UNL     1      52.262   9.058  11.469  0.00  0.00    +0.000 C 
BRANCH   7  12
ATOM      8  C   UNL     1      53.706   7.541   8.288  0.00  0.00    +0.000 C 
ATOM      9  C   UNL     1      55.142   7.289   8.765  0.00  0.00    +0.000 C 
ATOM     10  C   UNL     1      55.198   6.914  10.240  0.00  0.00    +0.000 C 
ATOM     11  C   UNL     1      54.370   7.850  11.126  0.00  0.00    +0.000 C 
ATOM     12  N   UNL     1      52.997   8.072  10.638  0.00  0.00    +0.000 NA
ATOM     13  C   UNL     1      53.032   8.548   9.241  0.00  0.00    +0.000 C 
BRANCH   8  14
ATOM     14  C   UNL     1      52.846   6.266   8.159  0.00  0.00    +0.000 C 
BRANCH  14  15
ATOM     15  N   UNL     1      52.058   6.242   6.926  0.00  0.00    +0.000 NA
ATOM     16  H   UNL     1      52.393   5.479   6.337  0.00  0.00    +0.000 HD
ATOM     17  H   UNL     1      52.235   7.096   6.395  0.00  0.00    +0.000 HD
ENDBRANCH  14  15
ENDBRANCH   8  14
ENDBRANCH   7  12
ENDBRANCH   1   7
BRANCH   4  18
ATOM     18  C   UNL     1      46.514   8.278  12.193  0.00  0.00    +0.000 C 
BRANCH  18  19
ATOM     19  N   UNL     1      46.099   6.926  11.928  0.00  0.00    +0.000 N 
ATOM     20  C   UNL     1      44.817   6.640  11.535  0.00  0.00    +0.000 C 
ATOM     21  O   UNL     1      43.978   7.518  11.346  0.00  0.00    +0.000 OA
ATOM     22  H   UNL     1      46.688   6.186  12.294  0.00  0.00    +0.000 HD
BRANCH  20  23
ATOM     23  C   UNL     1      44.513   5.226  11.290  0.00  0.00    +0.000 A 
ATOM     24  C   UNL     1      43.756   4.514  12.211  0.00  0.00    +0.000 A 
ATOM     25  S   UNL     1      43.452   2.902  11.751  0.00  0.00    +0.000 S 
ATOM     26  C   UNL     1      44.362   3.082  10.328  0.00  0.00    +0.000 A 
ATOM     27  N   UNL     1      44.534   2.041   9.470  0.00  0.00    +0.000 NA
ATOM     28  C   UNL     1      45.279   2.302   8.447  0.00  0.00    +0.000 A 
ATOM     29  N   UNL     1      45.866   3.516   8.202  0.00  0.00    +0.000 N 
ATOM     30  C   UNL     1      45.695   4.608   9.021  0.00  0.00    +0.000 A 
ATOM     31  O   UNL     1      46.192   5.694   8.743  0.00  0.00    +0.000 OA
ATOM     32  C   UNL     1      44.880   4.361  10.195  0.00  0.00    +0.000 A 
ATOM     33  H   UNL     1      46.426   3.662   7.375  0.00  0.00    +0.000 HD
ENDBRANCH  20  23
ENDBRANCH  18  19
ENDBRANCH   4  18
TORSDOF 7
ENDMDL
MODEL 9
REMARK VINA RESULT:    -6.068      3.925      9.163
REMARK INTER + INTRA:          -9.507
REMARK INTER:                  -7.644
REMARK INTRA:                  -1.862
REMARK UNBOUND:                -1.133
REMARK  Name = 
REMARK  7 active torsions:
REMARK  status: ('A' for Active; 'I' for Inactive)
REMARK    1  A    between atoms: N_1  and  C_2
REMARK    2  A    between atoms: C_2  and  C_3
REMARK    3  A    between atoms: N_7  and  C_8
REMARK    4  A    between atoms: C_8  and  C_9
REMARK    5  A    between atoms: C_12  and  C_13
REMARK    6  A    between atoms: C_13  and  N_14
REMARK    7  A    between atoms: C_15  and  C_17
REMARK                            x       y       z     vdW  Elec       q    Type
REMARK                         _______ _______ _______ _____ _____    ______ ____
ROOT
ATOM      1  C   UNL     1      45.931   7.477  11.777  0.00  0.00    +0.000 A 
ATOM      2  C   UNL     1      47.238   6.967  11.760  0.00  0.00    +0.000 A 
ATOM      3  C   UNL     1      48.241   7.531  12.551  0.00  0.00    +0.000 A 
ATOM      4  C   UNL     1      47.964   8.639  13.360  0.00  0.00    +0.000 A 
ATOM      5  C   UNL     1      46.685   9.209  13.309  0.00  0.00    +0.000 A 
ATOM      6  C   UNL     1      45.672   8.623  12.540  0.00  0.00    +0.000 A 
ENDROOT
BRANCH   1   7
ATOM      7  C   UNL     1      44.827   6.773  11.010  0.00  0.00    +0.000 C 
BRANCH   7  12
ATOM      8  C   UNL     1      44.224   3.329  12.518  0.00  0.00    +0.000 C 
ATOM      9  C   UNL     1      43.581   2.638  11.308  0.00  0.00    +0.000 C 
ATOM     10  C   UNL     1      44.163   3.133   9.991  0.00  0.00    +0.000 C 
ATOM     11  C   UNL     1      44.240   4.661   9.907  0.00  0.00    +0.000 C 
ATOM     12  N   UNL     1      44.860   5.291  11.086  0.00  0.00    +0.000 NA
ATOM     13  C   UNL     1      44.165   4.855  12.313  0.00  0.00    +0.000 C 
BRANCH   8  14
ATOM     14  C   UNL     1      45.673   2.883  12.809  0.00  0.00    +0.000 C 
BRANCH  14  15
ATOM     15  N   UNL     1      46.415   3.865  13.601  0.00  0.00    +0.000 NA
ATOM     16  H   UNL     1      47.218   3.403  14.027  0.00  0.00    +0.000 HD
ATOM     17  H   UNL     1      45.835   4.179  14.380  0.00  0.00    +0.000 HD
ENDBRANCH  14  15
ENDBRANCH   8  14
ENDBRANCH   7  12
ENDBRANCH   1   7
BRANCH   4  18
ATOM     18  C   UNL     1      49.028   9.215  14.259  0.00  0.00    +0.000 C 
BRANCH  18  19
ATOM     19  N   UNL     1      49.237   8.389  15.418  0.00  0.00    +0.000 N 
ATOM     20  C   UNL     1      50.396   7.676  15.584  0.00  0.00    +0.000 C 
ATOM     21  O   UNL     1      51.325   7.740  14.782  0.00  0.00    +0.000 OA
ATOM     22  H   UNL     1      48.415   8.143  15.959  0.00  0.00    +0.000 HD
BRANCH  20  23
ATOM     23  C   UNL     1      50.496   6.874  16.808  0.00  0.00    +0.000 A 
ATOM     24  C   UNL     1      51.485   7.160  17.740  0.00  0.00    +0.000 A 
ATOM     25  S   UNL     1      51.430   6.171  19.126  0.00  0.00    +0.000 S 
ATOM     26  C   UNL     1      50.113   5.292  18.510  0.00  0.00    +0.000 A 
ATOM     27  N   UNL     1      49.578   4.253  19.205  0.00  0.00    +0.000 NA
ATOM     28  C   UNL     1      48.607   3.646  18.606  0.00  0.00    +0.000 A 
ATOM     29  N   UNL     1      48.118   3.990  17.372  0.00  0.00    +0.000 N 
ATOM     30  C   UNL     1      48.602   5.053  16.646  0.00  0.00    +0.000 A 
ATOM     31  O   UNL     1      48.106   5.365  15.569  0.00  0.00    +0.000 OA
ATOM     32  C   UNL     1      49.708   5.756  17.268  0.00  0.00    +0.000 A 
ATOM     33  H   UNL     1      47.346   3.486  16.963  0.00  0.00    +0.000 HD
ENDBRANCH  20  23
ENDBRANCH  18  19
ENDBRANCH   4  18
TORSDOF 7
ENDMDL
