MODEL 1
REMARK VINA RESULT:    -8.504      0.000      0.000
REMARK INTER + INTRA:         -13.317
REMARK INTER:                 -11.984
REMARK INTRA:                  -1.333
REMARK UNBOUND:                -1.333
REMARK  Name = 
REMARK  8 active torsions:
REMARK  status: ('A' for Active; 'I' for Inactive)
REMARK    1  A    between atoms: C_1  and  O_2
REMARK    2  A    between atoms: O_2  and  C_3
REMARK    3  A    between atoms: C_10  and  C_11
REMARK    4  A    between atoms: N_13  and  C_14
REMARK    5  A    between atoms: C_14  and  C_15
REMARK    6  A    between atoms: C_18  and  N_19
REMARK    7  A    between atoms: N_19  and  C_20
REMARK    8  A    between atoms: C_20  and  C_21
REMARK                            x       y       z     vdW  Elec       q    Type
REMARK                         _______ _______ _______ _____ _____    ______ ____
ROOT
ATOM      1  C   UNL     1      46.496   7.907  13.041  0.00  0.00    +0.000 C 
ENDROOT
BRANCH   1   2
ATOM      2  C   UNL     1      45.873   6.903  12.105  0.00  0.00    +0.000 A 
ATOM      3  C   UNL     1      44.622   6.337  12.385  0.00  0.00    +0.000 A 
ATOM      4  C   UNL     1      44.013   5.461  11.477  0.00  0.00    +0.000 A 
ATOM      5  C   UNL     1      44.630   5.143  10.264  0.00  0.00    +0.000 A 
ATOM      6  C   UNL     1      45.928   5.616  10.045  0.00  0.00    +0.000 A 
ATOM      7  C   UNL     1      46.540   6.498  10.943  0.00  0.00    +0.000 A 
BRANCH   5   8
ATOM      8  N   UNL     1      44.055   4.337   9.280  0.00  0.00    +0.000 N 
ATOM      9  H   UNL     1      44.221   4.706   8.345  0.00  0.00    +0.000 HD
BRANCH   8  10
ATOM     10  C   UNL     1      44.309   2.893   9.334  0.00  0.00    +0.000 C 
BRANCH  10  11
ATOM     11  C   UNL     1      45.394   2.503   8.346  0.00  0.00    +0.000 A 
ATOM     12  C   UNL     1      45.728   3.374   7.307  0.00  0.00    +0.000 A 
ATOM     13  C   UNL     1      46.691   2.987   6.380  0.00  0.00    +0.000 A 
ATOM     14  C   UNL     1      47.291   1.741   6.508  0.00  0.00    +0.000 A 
ATOM     15  C   UNL     1      46.903   0.933   7.564  0.00  0.00    +0.000 A 
ATOM     16  N   UNL     1      45.973   1.282   8.482  0.00  0.00    +0.000 NA
ENDBRANCH  10  11
ENDBRANCH   8  10
ENDBRANCH   5   8
ENDBRANCH   1   2
BRANCH   1  19
ATOM     17  C   UNL     1      48.376   6.908  14.280  0.00  0.00    +0.000 C 
ATOM     18  O   UNL     1      49.151   7.122  13.352  0.00  0.00    +0.000 OA
ATOM     19  N   UNL     1      47.058   7.264  14.203  0.00  0.00    +0.000 N 
ATOM     20  H   UNL     1      46.417   6.996  14.936  0.00  0.00    +0.000 HD
BRANCH  17  28
ATOM     21  C   UNL     1      47.213   4.249  16.129  0.00  0.00    +0.000 A 
ATOM     22  N   UNL     1      46.950   3.301  17.047  0.00  0.00    +0.000 NA
ATOM     23  C   UNL     1      47.743   3.227  18.119  0.00  0.00    +0.000 A 
ATOM     24  N   UNL     1      48.795   3.995  18.390  0.00  0.00    +0.000 NA
ATOM     25  C   UNL     1      49.022   4.927  17.450  0.00  0.00    +0.000 A 
ATOM     26  S   UNL     1      50.329   5.996  17.629  0.00  0.00    +0.000 S 
ATOM     27  C   UNL     1      49.947   6.786  16.174  0.00  0.00    +0.000 A 
ATOM     28  C   UNL     1      48.829   6.268  15.529  0.00  0.00    +0.000 A 
ATOM     29  C   UNL     1      48.289   5.140  16.288  0.00  0.00    +0.000 A 
BRANCH  21  31
ATOM     30  C   UNL     1      47.016   3.570  13.897  0.00  0.00    +0.000 C 
ATOM     31  O   UNL     1      46.436   4.278  14.990  0.00  0.00    +0.000 OA
ENDBRANCH  21  31
ENDBRANCH  17  28
ENDBRANCH   1  19
TORSDOF 7
ENDMDL
MODEL 2
REMARK VINA RESULT:    -7.808      1.530      2.075
REMARK INTER + INTRA:         -12.337
REMARK INTER:                 -11.159
REMARK INTRA:                  -1.178
REMARK UNBOUND:                -1.333
REMARK  Name = 
REMARK  8 active torsions:
REMARK  status: ('A' for Active; 'I' for Inactive)
REMARK    1  A    between atoms: C_1  and  O_2
REMARK    2  A    between atoms: O_2  and  C_3
REMARK    3  A    between atoms: C_10  and  C_11
REMARK    4  A    between atoms: N_13  and  C_14
REMARK    5  A    between atoms: C_14  and  C_15
REMARK    6  A    between atoms: C_18  and  N_19
REMARK    7  A    between atoms: N_19  and  C_20
REMARK    8  A    between atoms: C_20  and  C_21
REMARK                            x       y       z     vdW  Elec       q    Type
REMARK                         _______ _______ _______ _____ _____    ______ ____
ROOT
ATOM      1  C   UNL     1      45.958   7.851  13.105  0.00  0.00    +0.000 C 
ENDROOT
BRANCH   1   2
ATOM      2  C   UNL     1      45.598   6.536  12.461  0.00  0.00    +0.000 A 
ATOM      3  C   UNL     1      45.459   6.429  11.071  0.00  0.00    +0.000 A 
ATOM      4  C   UNL     1      45.197   5.189  10.472  0.00  0.00    +0.000 A 
ATOM      5  C   UNL     1      45.085   4.029  11.243  0.00  0.00    +0.000 A 
ATOM      6  C   UNL     1      45.108   4.163  12.635  0.00  0.00    +0.000 A 
ATOM      7  C   UNL     1      45.377   5.395  13.241  0.00  0.00    +0.000 A 
BRANCH   5   8
ATOM      8  N   UNL     1      44.898   2.751  10.713  0.00  0.00    +0.000 N 
ATOM      9  H   UNL     1      44.365   2.155  11.344  0.00  0.00    +0.000 HD
BRANCH   8  10
ATOM     10  C   UNL     1      44.406   2.641   9.335  0.00  0.00    +0.000 C 
BRANCH  10  11
ATOM     11  C   UNL     1      45.551   2.361   8.378  0.00  0.00    +0.000 A 
ATOM     12  C   UNL     1      45.973   3.357   7.495  0.00  0.00    +0.000 A 
ATOM     13  C   UNL     1      46.992   3.075   6.591  0.00  0.00    +0.000 A 
ATOM     14  C   UNL     1      47.560   1.807   6.585  0.00  0.00    +0.000 A 
ATOM     15  C   UNL     1      47.084   0.873   7.490  0.00  0.00    +0.000 A 
ATOM     16  N   UNL     1      46.098   1.117   8.382  0.00  0.00    +0.000 NA
ENDBRANCH  10  11
ENDBRANCH   8  10
ENDBRANCH   5   8
ENDBRANCH   1   2
BRANCH   1  19
ATOM     17  C   UNL     1      48.399   7.805  13.424  0.00  0.00    +0.000 C 
ATOM     18  O   UNL     1      48.597   7.983  12.226  0.00  0.00    +0.000 OA
ATOM     19  N   UNL     1      47.132   7.729  13.932  0.00  0.00    +0.000 N 
ATOM     20  H   UNL     1      46.988   7.488  14.902  0.00  0.00    +0.000 HD
BRANCH  17  28
ATOM     21  C   UNL     1      49.051   5.641  16.020  0.00  0.00    +0.000 A 
ATOM     22  N   UNL     1      49.521   4.979  17.093  0.00  0.00    +0.000 NA
ATOM     23  C   UNL     1      50.669   5.394  17.634  0.00  0.00    +0.000 A 
ATOM     24  N   UNL     1      51.427   6.407  17.224  0.00  0.00    +0.000 NA
ATOM     25  C   UNL     1      50.922   7.041  16.152  0.00  0.00    +0.000 A 
ATOM     26  S   UNL     1      51.760   8.359  15.487  0.00  0.00    +0.000 S 
ATOM     27  C   UNL     1      50.568   8.582  14.297  0.00  0.00    +0.000 A 
ATOM     28  C   UNL     1      49.516   7.675  14.378  0.00  0.00    +0.000 A 
ATOM     29  C   UNL     1      49.742   6.741  15.480  0.00  0.00    +0.000 A 
BRANCH  21  31
ATOM     30  C   UNL     1      47.201   4.220  16.222  0.00  0.00    +0.000 C 
ATOM     31  O   UNL     1      47.903   5.167  15.420  0.00  0.00    +0.000 OA
ENDBRANCH  21  31
ENDBRANCH  17  28
ENDBRANCH   1  19
TORSDOF 7
ENDMDL
MODEL 3
REMARK VINA RESULT:    -7.445      2.490      3.255
REMARK INTER + INTRA:         -11.825
REMARK INTER:                 -10.764
REMARK INTRA:                  -1.061
REMARK UNBOUND:                -1.333
REMARK  Name = 
REMARK  8 active torsions:
REMARK  status: ('A' for Active; 'I' for Inactive)
REMARK    1  A    between atoms: C_1  and  O_2
REMARK    2  A    between atoms: O_2  and  C_3
REMARK    3  A    between atoms: C_10  and  C_11
REMARK    4  A    between atoms: N_13  and  C_14
REMARK    5  A    between atoms: C_14  and  C_15
REMARK    6  A    between atoms: C_18  and  N_19
REMARK    7  A    between atoms: N_19  and  C_20
REMARK    8  A    between atoms: C_20  and  C_21
REMARK                            x       y       z     vdW  Elec       q    Type
REMARK                         _______ _______ _______ _____ _____    ______ ____
ROOT
ATOM      1  C   UNL     1      47.914   6.708  13.872  0.00  0.00    +0.000 C 
ENDROOT
BRANCH   1   2
ATOM      2  C   UNL     1      47.011   5.731  13.163  0.00  0.00    +0.000 A 
ATOM      3  C   UNL     1      46.287   6.114  12.027  0.00  0.00    +0.000 A 
ATOM      4  C   UNL     1      45.505   5.183  11.329  0.00  0.00    +0.000 A 
ATOM      5  C   UNL     1      45.443   3.848  11.739  0.00  0.00    +0.000 A 
ATOM      6  C   UNL     1      46.072   3.502  12.940  0.00  0.00    +0.000 A 
ATOM      7  C   UNL     1      46.860   4.423  13.638  0.00  0.00    +0.000 A 
BRANCH   5   8
ATOM      8  N   UNL     1      44.746   2.850  11.055  0.00  0.00    +0.000 N 
ATOM      9  H   UNL     1      43.988   2.466  11.617  0.00  0.00    +0.000 HD
BRANCH   8  10
ATOM     10  C   UNL     1      44.302   3.134   9.686  0.00  0.00    +0.000 C 
BRANCH  10  11
ATOM     11  C   UNL     1      45.353   2.696   8.681  0.00  0.00    +0.000 A 
ATOM     12  C   UNL     1      45.850   3.616   7.755  0.00  0.00    +0.000 A 
ATOM     13  C   UNL     1      46.778   3.192   6.809  0.00  0.00    +0.000 A 
ATOM     14  C   UNL     1      47.182   1.864   6.805  0.00  0.00    +0.000 A 
ATOM     15  C   UNL     1      46.640   1.012   7.754  0.00  0.00    +0.000 A 
ATOM     16  N   UNL     1      45.739   1.393   8.687  0.00  0.00    +0.000 NA
ENDBRANCH  10  11
ENDBRANCH   8  10
ENDBRANCH   5   8
ENDBRANCH   1   2
BRANCH   1  19
ATOM     17  C   UNL     1      48.967   6.363  16.071  0.00  0.00    +0.000 C 
ATOM     18  O   UNL     1      50.089   6.336  15.572  0.00  0.00    +0.000 OA
ATOM     19  N   UNL     1      47.851   6.542  15.302  0.00  0.00    +0.000 N 
ATOM     20  H   UNL     1      46.933   6.467  15.716  0.00  0.00    +0.000 HD
BRANCH  17  28
ATOM     21  C   UNL     1      47.846   8.494  18.529  0.00  0.00    +0.000 A 
ATOM     22  N   UNL     1      47.498   9.119  19.669  0.00  0.00    +0.000 NA
ATOM     23  C   UNL     1      47.592   8.437  20.814  0.00  0.00    +0.000 A 
ATOM     24  N   UNL     1      47.993   7.178  20.965  0.00  0.00    +0.000 NA
ATOM     25  C   UNL     1      48.331   6.592  19.804  0.00  0.00    +0.000 A 
ATOM     26  S   UNL     1      48.863   4.980  19.804  0.00  0.00    +0.000 S 
ATOM     27  C   UNL     1      49.083   4.999  18.119  0.00  0.00    +0.000 A 
ATOM     28  C   UNL     1      48.767   6.216  17.525  0.00  0.00    +0.000 A 
ATOM     29  C   UNL     1      48.298   7.163  18.536  0.00  0.00    +0.000 A 
BRANCH  21  31
ATOM     30  C   UNL     1      48.459  10.369  17.267  0.00  0.00    +0.000 C 
ATOM     31  O   UNL     1      47.680   9.177  17.342  0.00  0.00    +0.000 OA
ENDBRANCH  21  31
ENDBRANCH  17  28
ENDBRANCH   1  19
TORSDOF 7
ENDMDL
MODEL 4
REMARK VINA RESULT:    -7.394      1.741      2.139
REMARK INTER + INTRA:         -11.753
REMARK INTER:                 -10.759
REMARK INTRA:                  -0.994
REMARK UNBOUND:                -1.333
REMARK  Name = 
REMARK  8 active torsions:
REMARK  status: ('A' for Active; 'I' for Inactive)
REMARK    1  A    between atoms: C_1  and  O_2
REMARK    2  A    between atoms: O_2  and  C_3
REMARK    3  A    between atoms: C_10  and  C_11
REMARK    4  A    between atoms: N_13  and  C_14
REMARK    5  A    between atoms: C_14  and  C_15
REMARK    6  A    between atoms: C_18  and  N_19
REMARK    7  A    between atoms: N_19  and  C_20
REMARK    8  A    between atoms: C_20  and  C_21
REMARK                            x       y       z     vdW  Elec       q    Type
REMARK                         _______ _______ _______ _____ _____    ______ ____
ROOT
ATOM      1  C   UNL     1      48.015   7.410  13.349  0.00  0.00    +0.000 C 
ENDROOT
BRANCH   1   2
ATOM      2  C   UNL     1      47.008   6.462  12.746  0.00  0.00    +0.000 A 
ATOM      3  C   UNL     1      46.220   6.849  11.654  0.00  0.00    +0.000 A 
ATOM      4  C   UNL     1      45.339   5.941  11.051  0.00  0.00    +0.000 A 
ATOM      5  C   UNL     1      45.237   4.626  11.513  0.00  0.00    +0.000 A 
ATOM      6  C   UNL     1      45.937   4.283  12.674  0.00  0.00    +0.000 A 
ATOM      7  C   UNL     1      46.825   5.181  13.278  0.00  0.00    +0.000 A 
BRANCH   5   8
ATOM      8  N   UNL     1      44.438   3.647  10.920  0.00  0.00    +0.000 N 
ATOM      9  H   UNL     1      43.588   3.477  11.455  0.00  0.00    +0.000 HD
BRANCH   8  10
ATOM     10  C   UNL     1      44.148   3.769   9.487  0.00  0.00    +0.000 C 
BRANCH  10  11
ATOM     11  C   UNL     1      45.250   3.129   8.661  0.00  0.00    +0.000 A 
ATOM     12  C   UNL     1      45.976   3.907   7.756  0.00  0.00    +0.000 A 
ATOM     13  C   UNL     1      46.952   3.301   6.971  0.00  0.00    +0.000 A 
ATOM     14  C   UNL     1      47.175   1.936   7.102  0.00  0.00    +0.000 A 
ATOM     15  C   UNL     1      46.412   1.234   8.020  0.00  0.00    +0.000 A 
ATOM     16  N   UNL     1      45.458   1.794   8.799  0.00  0.00    +0.000 NA
ENDBRANCH  10  11
ENDBRANCH   8  10
ENDBRANCH   5   8
ENDBRANCH   1   2
BRANCH   1  19
ATOM     17  C   UNL     1      48.967   7.010  15.585  0.00  0.00    +0.000 C 
ATOM     18  O   UNL     1      50.025   6.614  15.105  0.00  0.00    +0.000 OA
ATOM     19  N   UNL     1      47.933   7.418  14.788  0.00  0.00    +0.000 N 
ATOM     20  H   UNL     1      47.040   7.651  15.197  0.00  0.00    +0.000 HD
BRANCH  17  28
ATOM     21  C   UNL     1      48.951   4.642  18.081  0.00  0.00    +0.000 A 
ATOM     22  N   UNL     1      48.843   3.933  19.220  0.00  0.00    +0.000 NA
ATOM     23  C   UNL     1      48.541   4.589  20.343  0.00  0.00    +0.000 A 
ATOM     24  N   UNL     1      48.335   5.896  20.475  0.00  0.00    +0.000 NA
ATOM     25  C   UNL     1      48.451   6.567  19.317  0.00  0.00    +0.000 A 
ATOM     26  S   UNL     1      48.225   8.249  19.296  0.00  0.00    +0.000 S 
ATOM     27  C   UNL     1      48.499   8.316  17.621  0.00  0.00    +0.000 A 
ATOM     28  C   UNL     1      48.761   7.078  17.043  0.00  0.00    +0.000 A 
ATOM     29  C   UNL     1      48.750   6.034  18.067  0.00  0.00    +0.000 A 
BRANCH  21  31
ATOM     30  C   UNL     1      48.943   2.602  16.933  0.00  0.00    +0.000 C 
ATOM     31  O   UNL     1      49.333   3.973  16.937  0.00  0.00    +0.000 OA
ENDBRANCH  21  31
ENDBRANCH  17  28
ENDBRANCH   1  19
TORSDOF 7
ENDMDL
MODEL 5
REMARK VINA RESULT:    -7.217      2.531      3.329
REMARK INTER + INTRA:         -11.504
REMARK INTER:                 -10.654
REMARK INTRA:                  -0.849
REMARK UNBOUND:                -1.333
REMARK  Name = 
REMARK  8 active torsions:
REMARK  status: ('A' for Active; 'I' for Inactive)
REMARK    1  A    between atoms: C_1  and  O_2
REMARK    2  A    between atoms: O_2  and  C_3
REMARK    3  A    between atoms: C_10  and  C_11
REMARK    4  A    between atoms: N_13  and  C_14
REMARK    5  A    between atoms: C_14  and  C_15
REMARK    6  A    between atoms: C_18  and  N_19
REMARK    7  A    between atoms: N_19  and  C_20
REMARK    8  A    between atoms: C_20  and  C_21
REMARK                            x       y       z     vdW  Elec       q    Type
REMARK                         _______ _______ _______ _____ _____    ______ ____
ROOT
ATOM      1  C   UNL     1      47.024   4.393  14.870  0.00  0.00    +0.000 C 
ENDROOT
BRANCH   1   2
ATOM      2  C   UNL     1      46.432   4.649  13.508  0.00  0.00    +0.000 A 
ATOM      3  C   UNL     1      46.642   5.867  12.849  0.00  0.00    +0.000 A 
ATOM      4  C   UNL     1      46.151   6.073  11.552  0.00  0.00    +0.000 A 
ATOM      5  C   UNL     1      45.456   5.065  10.880  0.00  0.00    +0.000 A 
ATOM      6  C   UNL     1      45.149   3.898  11.587  0.00  0.00    +0.000 A 
ATOM      7  C   UNL     1      45.641   3.681  12.878  0.00  0.00    +0.000 A 
BRANCH   5   8
ATOM      8  N   UNL     1      45.002   5.169   9.564  0.00  0.00    +0.000 N 
ATOM      9  H   UNL     1      45.700   5.594   8.955  0.00  0.00    +0.000 HD
BRANCH   8  10
ATOM     10  C   UNL     1      44.408   3.980   8.943  0.00  0.00    +0.000 C 
BRANCH  10  11
ATOM     11  C   UNL     1      45.478   3.137   8.271  0.00  0.00    +0.000 A 
ATOM     12  C   UNL     1      46.307   3.713   7.305  0.00  0.00    +0.000 A 
ATOM     13  C   UNL     1      47.252   2.919   6.663  0.00  0.00    +0.000 A 
ATOM     14  C   UNL     1      47.343   1.574   6.993  0.00  0.00    +0.000 A 
ATOM     15  C   UNL     1      46.483   1.077   7.959  0.00  0.00    +0.000 A 
ATOM     16  N   UNL     1      45.556   1.822   8.603  0.00  0.00    +0.000 NA
ENDBRANCH  10  11
ENDBRANCH   8  10
ENDBRANCH   5   8
ENDBRANCH   1   2
BRANCH   1  19
ATOM     17  C   UNL     1      48.570   5.646  16.322  0.00  0.00    +0.000 C 
ATOM     18  O   UNL     1      49.190   4.625  16.606  0.00  0.00    +0.000 OA
ATOM     19  N   UNL     1      47.495   5.613  15.477  0.00  0.00    +0.000 N 
ATOM     20  H   UNL     1      46.941   6.444  15.330  0.00  0.00    +0.000 HD
BRANCH  17  28
ATOM     21  C   UNL     1      47.953   7.239  19.309  0.00  0.00    +0.000 A 
ATOM     22  N   UNL     1      47.826   8.091  20.343  0.00  0.00    +0.000 NA
ATOM     23  C   UNL     1      48.393   9.296  20.237  0.00  0.00    +0.000 A 
ATOM     24  N   UNL     1      49.092   9.764  19.207  0.00  0.00    +0.000 NA
ATOM     25  C   UNL     1      49.193   8.884  18.197  0.00  0.00    +0.000 A 
ATOM     26  S   UNL     1      50.055   9.310  16.798  0.00  0.00    +0.000 S 
ATOM     27  C   UNL     1      49.726   7.807  16.076  0.00  0.00    +0.000 A 
ATOM     28  C   UNL     1      48.958   6.959  16.868  0.00  0.00    +0.000 A 
ATOM     29  C   UNL     1      48.657   7.601  18.147  0.00  0.00    +0.000 A 
BRANCH  21  31
ATOM     30  C   UNL     1      48.333   5.054  20.057  0.00  0.00    +0.000 C 
ATOM     31  O   UNL     1      47.428   5.972  19.448  0.00  0.00    +0.000 OA
ENDBRANCH  21  31
ENDBRANCH  17  28
ENDBRANCH   1  19
TORSDOF 7
ENDMDL
MODEL 6
REMARK VINA RESULT:    -7.145      2.296      3.740
REMARK INTER + INTRA:         -11.402
REMARK INTER:                 -10.322
REMARK INTRA:                  -1.079
REMARK UNBOUND:                -1.333
REMARK  Name = 
REMARK  8 active torsions:
REMARK  status: ('A' for Active; 'I' for Inactive)
REMARK    1  A    between atoms: C_1  and  O_2
REMARK    2  A    between atoms: O_2  and  C_3
REMARK    3  A    between atoms: C_10  and  C_11
REMARK    4  A    between atoms: N_13  and  C_14
REMARK    5  A    between atoms: C_14  and  C_15
REMARK    6  A    between atoms: C_18  and  N_19
REMARK    7  A    between atoms: N_19  and  C_20
REMARK    8  A    between atoms: C_20  and  C_21
REMARK                            x       y       z     vdW  Elec       q    Type
REMARK                         _______ _______ _______ _____ _____    ______ ____
ROOT
ATOM      1  C   UNL     1      47.296   4.166  15.232  0.00  0.00    +0.000 C 
ENDROOT
BRANCH   1   2
ATOM      2  C   UNL     1      46.684   4.402  13.875  0.00  0.00    +0.000 A 
ATOM      3  C   UNL     1      45.964   3.391  13.224  0.00  0.00    +0.000 A 
ATOM      4  C   UNL     1      45.335   3.637  11.996  0.00  0.00    +0.000 A 
ATOM      5  C   UNL     1      45.396   4.900  11.400  0.00  0.00    +0.000 A 
ATOM      6  C   UNL     1      46.212   5.867  11.995  0.00  0.00    +0.000 A 
ATOM      7  C   UNL     1      46.837   5.632  13.225  0.00  0.00    +0.000 A 
BRANCH   5   8
ATOM      8  N   UNL     1      44.736   5.241  10.218  0.00  0.00    +0.000 N 
ATOM      9  H   UNL     1      45.301   5.855   9.633  0.00  0.00    +0.000 HD
BRANCH   8  10
ATOM     10  C   UNL     1      44.135   4.160   9.428  0.00  0.00    +0.000 C 
BRANCH  10  11
ATOM     11  C   UNL     1      45.186   3.469   8.578  0.00  0.00    +0.000 A 
ATOM     12  C   UNL     1      45.423   2.103   8.747  0.00  0.00    +0.000 A 
ATOM     13  C   UNL     1      46.421   1.490   7.996  0.00  0.00    +0.000 A 
ATOM     14  C   UNL     1      47.160   2.252   7.102  0.00  0.00    +0.000 A 
ATOM     15  C   UNL     1      46.867   3.602   6.994  0.00  0.00    +0.000 A 
ATOM     16  N   UNL     1      45.903   4.227   7.707  0.00  0.00    +0.000 NA
ENDBRANCH  10  11
ENDBRANCH   8  10
ENDBRANCH   5   8
ENDBRANCH   1   2
BRANCH   1  19
ATOM     17  C   UNL     1      48.604   5.634  16.716  0.00  0.00    +0.000 C 
ATOM     18  O   UNL     1      49.479   4.783  16.848  0.00  0.00    +0.000 OA
ATOM     19  N   UNL     1      47.502   5.406  15.939  0.00  0.00    +0.000 N 
ATOM     20  H   UNL     1      46.750   6.078  15.917  0.00  0.00    +0.000 HD
BRANCH  17  28
ATOM     21  C   UNL     1      48.818   8.861  15.540  0.00  0.00    +0.000 A 
ATOM     22  N   UNL     1      48.959  10.186  15.356  0.00  0.00    +0.000 NA
ATOM     23  C   UNL     1      49.084  10.961  16.438  0.00  0.00    +0.000 A 
ATOM     24  N   UNL     1      49.078  10.568  17.708  0.00  0.00    +0.000 NA
ATOM     25  C   UNL     1      48.938   9.239  17.847  0.00  0.00    +0.000 A 
ATOM     26  S   UNL     1      48.905   8.558  19.402  0.00  0.00    +0.000 S 
ATOM     27  C   UNL     1      48.733   6.992  18.767  0.00  0.00    +0.000 A 
ATOM     28  C   UNL     1      48.701   6.948  17.377  0.00  0.00    +0.000 A 
ATOM     29  C   UNL     1      48.805   8.300  16.830  0.00  0.00    +0.000 A 
BRANCH  21  31
ATOM     30  C   UNL     1      49.829   7.740  13.750  0.00  0.00    +0.000 C 
ATOM     31  O   UNL     1      48.619   8.072  14.426  0.00  0.00    +0.000 OA
ENDBRANCH  21  31
ENDBRANCH  17  28
ENDBRANCH   1  19
TORSDOF 7
ENDMDL
MODEL 7
REMARK VINA RESULT:    -7.025      2.659      4.442
REMARK INTER + INTRA:         -11.232
REMARK INTER:                 -10.022
REMARK INTRA:                  -1.210
REMARK UNBOUND:                -1.333
REMARK  Name = 
REMARK  8 active torsions:
REMARK  status: ('A' for Active; 'I' for Inactive)
REMARK    1  A    between atoms: C_1  and  O_2
REMARK    2  A    between atoms: O_2  and  C_3
REMARK    3  A    between atoms: C_10  and  C_11
REMARK    4  A    between atoms: N_13  and  C_14
REMARK    5  A    between atoms: C_14  and  C_15
REMARK    6  A    between atoms: C_18  and  N_19
REMARK    7  A    between atoms: N_19  and  C_20
REMARK    8  A    between atoms: C_20  and  C_21
REMARK                            x       y       z     vdW  Elec       q    Type
REMARK                         _______ _______ _______ _____ _____    ______ ____
ROOT
ATOM      1  C   UNL     1      47.229   5.618  14.321  0.00  0.00    +0.000 C 
ENDROOT
BRANCH   1   2
ATOM      2  C   UNL     1      46.386   5.206  13.141  0.00  0.00    +0.000 A 
ATOM      3  C   UNL     1      46.260   6.037  12.020  0.00  0.00    +0.000 A 
ATOM      4  C   UNL     1      45.535   5.618  10.897  0.00  0.00    +0.000 A 
ATOM      5  C   UNL     1      44.935   4.356  10.860  0.00  0.00    +0.000 A 
ATOM      6  C   UNL     1      44.966   3.582  12.024  0.00  0.00    +0.000 A 
ATOM      7  C   UNL     1      45.694   3.989  13.148  0.00  0.00    +0.000 A 
BRANCH   5   8
ATOM      8  N   UNL     1      44.261   3.840   9.751  0.00  0.00    +0.000 N 
ATOM      9  H   UNL     1      44.357   4.444   8.936  0.00  0.00    +0.000 HD
BRANCH   8  10
ATOM     10  C   UNL     1      44.487   2.434   9.399  0.00  0.00    +0.000 C 
BRANCH  10  11
ATOM     11  C   UNL     1      45.577   2.313   8.349  0.00  0.00    +0.000 A 
ATOM     12  C   UNL     1      45.845   3.391   7.503  0.00  0.00    +0.000 A 
ATOM     13  C   UNL     1      46.814   3.253   6.514  0.00  0.00    +0.000 A 
ATOM     14  C   UNL     1      47.486   2.044   6.390  0.00  0.00    +0.000 A 
ATOM     15  C   UNL     1      47.161   1.022   7.266  0.00  0.00    +0.000 A 
ATOM     16  N   UNL     1      46.227   1.125   8.238  0.00  0.00    +0.000 NA
ENDBRANCH  10  11
ENDBRANCH   8  10
ENDBRANCH   5   8
ENDBRANCH   1   2
BRANCH   1  19
ATOM     17  C   UNL     1      49.102   7.144  14.800  0.00  0.00    +0.000 C 
ATOM     18  O   UNL     1      48.862   7.121  16.004  0.00  0.00    +0.000 OA
ATOM     19  N   UNL     1      48.345   6.433  13.911  0.00  0.00    +0.000 N 
ATOM     20  H   UNL     1      48.498   6.538  12.918  0.00  0.00    +0.000 HD
BRANCH  17  28
ATOM     21  C   UNL     1      49.441   9.180  12.047  0.00  0.00    +0.000 A 
ATOM     22  N   UNL     1      49.854   9.969  11.038  0.00  0.00    +0.000 NA
ATOM     23  C   UNL     1      51.132  10.360  11.029  0.00  0.00    +0.000 A 
ATOM     24  N   UNL     1      52.066  10.061  11.926  0.00  0.00    +0.000 NA
ATOM     25  C   UNL     1      51.613   9.272  12.915  0.00  0.00    +0.000 A 
ATOM     26  S   UNL     1      52.669   8.792  14.154  0.00  0.00    +0.000 S 
ATOM     27  C   UNL     1      51.446   7.892  14.917  0.00  0.00    +0.000 A 
ATOM     28  C   UNL     1      50.224   7.930  14.254  0.00  0.00    +0.000 A 
ATOM     29  C   UNL     1      50.323   8.775  13.065  0.00  0.00    +0.000 A 
BRANCH  21  31
ATOM     30  C   UNL     1      47.271   9.889  12.568  0.00  0.00    +0.000 C 
ATOM     31  O   UNL     1      48.106   8.836  12.093  0.00  0.00    +0.000 OA
ENDBRANCH  21  31
ENDBRANCH  17  28
ENDBRANCH   1  19
TORSDOF 7
ENDMDL
MODEL 8
REMARK VINA RESULT:    -6.850      4.124      8.892
REMARK INTER + INTRA:         -10.987
REMARK INTER:                 -10.115
REMARK INTRA:                  -0.872
REMARK UNBOUND:                -1.333
REMARK  Name = 
REMARK  8 active torsions:
REMARK  status: ('A' for Active; 'I' for Inactive)
REMARK    1  A    between atoms: C_1  and  O_2
REMARK    2  A    between atoms: O_2  and  C_3
REMARK    3  A    between atoms: C_10  and  C_11
REMARK    4  A    between atoms: N_13  and  C_14
REMARK    5  A    between atoms: C_14  and  C_15
REMARK    6  A    between atoms: C_18  and  N_19
REMARK    7  A    between atoms: N_19  and  C_20
REMARK    8  A    between atoms: C_20  and  C_21
REMARK                            x       y       z     vdW  Elec       q    Type
REMARK                         _______ _______ _______ _____ _____    ______ ____
ROOT
ATOM      1  C   UNL     1      47.316   3.276  16.880  0.00  0.00    +0.000 C 
ENDROOT
BRANCH   1   2
ATOM      2  C   UNL     1      48.784   3.274  17.220  0.00  0.00    +0.000 A 
ATOM      3  C   UNL     1      49.570   2.132  17.016  0.00  0.00    +0.000 A 
ATOM      4  C   UNL     1      50.948   2.158  17.265  0.00  0.00    +0.000 A 
ATOM      5  C   UNL     1      51.576   3.327  17.706  0.00  0.00    +0.000 A 
ATOM      6  C   UNL     1      50.769   4.425  18.020  0.00  0.00    +0.000 A 
ATOM      7  C   UNL     1      49.392   4.410  17.767  0.00  0.00    +0.000 A 
BRANCH   5   8
ATOM      8  N   UNL     1      52.952   3.450  17.905  0.00  0.00    +0.000 N 
ATOM      9  H   UNL     1      53.230   4.422  18.030  0.00  0.00    +0.000 HD
BRANCH   8  10
ATOM     10  C   UNL     1      53.584   2.584  18.907  0.00  0.00    +0.000 C 
BRANCH  10  11
ATOM     11  C   UNL     1      54.120   1.319  18.259  0.00  0.00    +0.000 A 
ATOM     12  C   UNL     1      54.797   1.400  17.040  0.00  0.00    +0.000 A 
ATOM     13  C   UNL     1      55.243   0.230  16.434  0.00  0.00    +0.000 A 
ATOM     14  C   UNL     1      54.999  -0.989  17.052  0.00  0.00    +0.000 A 
ATOM     15  C   UNL     1      54.319  -0.986  18.259  0.00  0.00    +0.000 A 
ATOM     16  N   UNL     1      53.875   0.133  18.875  0.00  0.00    +0.000 NA
ENDBRANCH  10  11
ENDBRANCH   8  10
ENDBRANCH   5   8
ENDBRANCH   1   2
BRANCH   1  19
ATOM     17  C   UNL     1      46.994   4.187  14.615  0.00  0.00    +0.000 C 
ATOM     18  O   UNL     1      47.284   3.111  14.099  0.00  0.00    +0.000 OA
ATOM     19  N   UNL     1      46.987   4.347  15.973  0.00  0.00    +0.000 N 
ATOM     20  H   UNL     1      46.838   5.261  16.374  0.00  0.00    +0.000 HD
BRANCH  17  28
ATOM     21  C   UNL     1      44.268   4.939  12.653  0.00  0.00    +0.000 A 
ATOM     22  N   UNL     1      43.365   5.457  11.801  0.00  0.00    +0.000 NA
ATOM     23  C   UNL     1      43.625   6.649  11.257  0.00  0.00    +0.000 A 
ATOM     24  N   UNL     1      44.696   7.408  11.468  0.00  0.00    +0.000 NA
ATOM     25  C   UNL     1      45.572   6.855  12.322  0.00  0.00    +0.000 A 
ATOM     26  S   UNL     1      46.999   7.687  12.714  0.00  0.00    +0.000 S 
ATOM     27  C   UNL     1      47.513   6.429  13.734  0.00  0.00    +0.000 A 
ATOM     28  C   UNL     1      46.627   5.358  13.797  0.00  0.00    +0.000 A 
ATOM     29  C   UNL     1      45.455   5.626  12.964  0.00  0.00    +0.000 A 
BRANCH  21  31
ATOM     30  C   UNL     1      43.552   2.731  12.352  0.00  0.00    +0.000 C 
ATOM     31  O   UNL     1      43.965   3.742  13.267  0.00  0.00    +0.000 OA
ENDBRANCH  21  31
ENDBRANCH  17  28
ENDBRANCH   1  19
TORSDOF 7
ENDMDL
MODEL 9
REMARK VINA RESULT:    -6.746      2.540      3.618
REMARK INTER + INTRA:         -10.840
REMARK INTER:                  -9.939
REMARK INTRA:                  -0.901
REMARK UNBOUND:                -1.333
REMARK  Name = 
REMARK  8 active torsions:
REMARK  status: ('A' for Active; 'I' for Inactive)
REMARK    1  A    between atoms: C_1  and  O_2
REMARK    2  A    between atoms: O_2  and  C_3
REMARK    3  A    between atoms: C_10  and  C_11
REMARK    4  A    between atoms: N_13  and  C_14
REMARK    5  A    between atoms: C_14  and  C_15
REMARK    6  A    between atoms: C_18  and  N_19
REMARK    7  A    between atoms: N_19  and  C_20
REMARK    8  A    between atoms: C_20  and  C_21
REMARK                            x       y       z     vdW  Elec       q    Type
REMARK                         _______ _______ _______ _____ _____    ______ ____
ROOT
ATOM      1  C   UNL     1      47.120   4.381  15.154  0.00  0.00    +0.000 C 
ENDROOT
BRANCH   1   2
ATOM      2  C   UNL     1      46.566   4.735  13.797  0.00  0.00    +0.000 A 
ATOM      3  C   UNL     1      46.990   5.889  13.125  0.00  0.00    +0.000 A 
ATOM      4  C   UNL     1      46.527   6.176  11.834  0.00  0.00    +0.000 A 
ATOM      5  C   UNL     1      45.646   5.310  11.179  0.00  0.00    +0.000 A 
ATOM      6  C   UNL     1      45.138   4.225  11.900  0.00  0.00    +0.000 A 
ATOM      7  C   UNL     1      45.600   3.927  13.186  0.00  0.00    +0.000 A 
BRANCH   5   8
ATOM      8  N   UNL     1      45.200   5.490   9.868  0.00  0.00    +0.000 N 
ATOM      9  H   UNL     1      45.940   5.842   9.262  0.00  0.00    +0.000 HD
BRANCH   8  10
ATOM     10  C   UNL     1      44.471   4.388   9.231  0.00  0.00    +0.000 C 
BRANCH  10  11
ATOM     11  C   UNL     1      45.418   3.510   8.432  0.00  0.00    +0.000 A 
ATOM     12  C   UNL     1      45.487   2.142   8.703  0.00  0.00    +0.000 A 
ATOM     13  C   UNL     1      46.392   1.355   7.998  0.00  0.00    +0.000 A 
ATOM     14  C   UNL     1      47.208   1.951   7.045  0.00  0.00    +0.000 A 
ATOM     15  C   UNL     1      47.082   3.315   6.836  0.00  0.00    +0.000 A 
ATOM     16  N   UNL     1      46.211   4.106   7.504  0.00  0.00    +0.000 NA
ENDBRANCH  10  11
ENDBRANCH   8  10
ENDBRANCH   5   8
ENDBRANCH   1   2
BRANCH   1  19
ATOM     17  C   UNL     1      48.156   5.610  17.019  0.00  0.00    +0.000 C 
ATOM     18  O   UNL     1      47.651   4.857  17.846  0.00  0.00    +0.000 OA
ATOM     19  N   UNL     1      47.943   5.442  15.679  0.00  0.00    +0.000 N 
ATOM     20  H   UNL     1      48.288   6.125  15.021  0.00  0.00    +0.000 HD
BRANCH  17  28
ATOM     21  C   UNL     1      51.017   5.803  18.922  0.00  0.00    +0.000 A 
ATOM     22  N   UNL     1      52.090   6.163  19.649  0.00  0.00    +0.000 NA
ATOM     23  C   UNL     1      52.395   7.461  19.719  0.00  0.00    +0.000 A 
ATOM     24  N   UNL     1      51.751   8.467  19.134  0.00  0.00    +0.000 NA
ATOM     25  C   UNL     1      50.687   8.065  18.420  0.00  0.00    +0.000 A 
ATOM     26  S   UNL     1      49.746   9.215  17.599  0.00  0.00    +0.000 S 
ATOM     27  C   UNL     1      48.696   8.014  17.014  0.00  0.00    +0.000 A 
ATOM     28  C   UNL     1      49.027   6.728  17.427  0.00  0.00    +0.000 A 
ATOM     29  C   UNL     1      50.233   6.761  18.254  0.00  0.00    +0.000 A 
BRANCH  21  31
ATOM     30  C   UNL     1      51.429   3.849  17.698  0.00  0.00    +0.000 C 
ATOM     31  O   UNL     1      50.746   4.456  18.793  0.00  0.00    +0.000 OA
ENDBRANCH  21  31
ENDBRANCH  17  28
ENDBRANCH   1  19
TORSDOF 7
ENDMDL
