MODEL 1
REMARK VINA RESULT:    -8.670      0.000      0.000
REMARK INTER + INTRA:         -13.529
REMARK INTER:                 -12.471
REMARK INTRA:                  -1.058
REMARK UNBOUND:                -1.058
REMARK  Name = 
REMARK  8 active torsions:
REMARK  status: ('A' for Active; 'I' for Inactive)
REMARK    1  A    between atoms: C_2  and  C_21
REMARK    2  A    between atoms: N_3  and  C_4
REMARK    3  A    between atoms: C_4  and  C_5
REMARK    4  A    between atoms: C_8  and  C_9
REMARK    5  A    between atoms: C_9  and  C_10
REMARK    6  A    between atoms: C_10  and  O_11
REMARK    7  A    between atoms: C_10  and  C_12
REMARK    8  A    between atoms: C_12  and  C_13
REMARK                            x       y       z     vdW  Elec       q    Type
REMARK                         _______ _______ _______ _____ _____    ______ ____
ROOT
ATOM      1  C   UNL     1      46.195   7.244  12.395  0.00  0.00    +0.000 A 
ATOM      2  C   UNL     1      46.628   6.743  11.163  0.00  0.00    +0.000 A 
ATOM      3  C   UNL     1      45.857   5.815  10.464  0.00  0.00    +0.000 A 
ATOM      4  C   UNL     1      44.631   5.371  10.980  0.00  0.00    +0.000 A 
ATOM      5  C   UNL     1      44.174   5.910  12.188  0.00  0.00    +0.000 A 
ATOM      6  C   UNL     1      44.947   6.839  12.888  0.00  0.00    +0.000 A 
ENDROOT
BRANCH   1   7
ATOM      7  C   UNL     1      47.044   8.236  13.146  0.00  0.00    +0.000 C 
BRANCH   7  10
ATOM      8  O   UNL     1      49.003   6.250  13.554  0.00  0.00    +0.000 OA
ATOM      9  C   UNL     1      48.475   6.780  14.528  0.00  0.00    +0.000 C 
ATOM     10  N   UNL     1      47.469   7.703  14.413  0.00  0.00    +0.000 N 
ATOM     11  H   UNL     1      47.210   8.249  15.228  0.00  0.00    +0.000 HD
BRANCH   9  12
ATOM     12  C   UNL     1      48.846   6.404  15.900  0.00  0.00    +0.000 A 
ATOM     13  C   UNL     1      49.640   7.252  16.658  0.00  0.00    +0.000 A 
ATOM     14  S   UNL     1      50.017   6.632  18.202  0.00  0.00    +0.000 S 
ATOM     15  C   UNL     1      49.085   5.234  17.930  0.00  0.00    +0.000 A 
ATOM     16  N   UNL     1      48.968   4.274  18.888  0.00  0.00    +0.000 NA
ATOM     17  C   UNL     1      48.193   3.291  18.565  0.00  0.00    +0.000 A 
ATOM     18  N   UNL     1      47.530   3.179  17.371  0.00  0.00    +0.000 N 
ATOM     19  C   UNL     1      47.677   4.087  16.351  0.00  0.00    +0.000 A 
ATOM     20  O   UNL     1      47.168   3.889  15.251  0.00  0.00    +0.000 OA
ATOM     21  C   UNL     1      48.508   5.232  16.674  0.00  0.00    +0.000 A 
ATOM     22  H   UNL     1      46.956   2.373  17.171  0.00  0.00    +0.000 HD
ENDBRANCH   9  12
ENDBRANCH   7  10
ENDBRANCH   1   7
BRANCH   4  23
ATOM     23  C   UNL     1      43.842   4.302  10.251  0.00  0.00    +0.000 C 
BRANCH  23  24
ATOM     24  C   UNL     1      44.388   2.867  10.436  0.00  0.00    +0.000 C 
BRANCH  24  25
ATOM     25  O   UNL     1      43.705   2.232  11.525  0.00  0.00    +0.000 OA
ATOM     26  H   UNL     1      42.963   2.806  11.781  0.00  0.00    +0.000 HD
ENDBRANCH  24  25
BRANCH  24  27
ATOM     27  C   UNL     1      44.304   2.027   9.152  0.00  0.00    +0.000 C 
BRANCH  27  28
ATOM     28  C   UNL     1      45.541   2.136   8.295  0.00  0.00    +0.000 A 
ATOM     29  C   UNL     1      45.869   3.352   7.698  0.00  0.00    +0.000 A 
ATOM     30  C   UNL     1      47.021   3.437   6.924  0.00  0.00    +0.000 A 
ATOM     31  C   UNL     1      47.811   2.309   6.758  0.00  0.00    +0.000 A 
ATOM     32  C   UNL     1      47.411   1.136   7.380  0.00  0.00    +0.000 A 
ATOM     33  N   UNL     1      46.302   1.024   8.146  0.00  0.00    +0.000 NA
ENDBRANCH  27  28
ENDBRANCH  24  27
ENDBRANCH  23  24
ENDBRANCH   4  23
TORSDOF 8
ENDMDL
MODEL 2
REMARK VINA RESULT:    -8.201      1.718      2.100
REMARK INTER + INTRA:         -12.854
REMARK INTER:                 -11.606
REMARK INTRA:                  -1.248
REMARK UNBOUND:                -1.058
REMARK  Name = 
REMARK  8 active torsions:
REMARK  status: ('A' for Active; 'I' for Inactive)
REMARK    1  A    between atoms: C_2  and  C_21
REMARK    2  A    between atoms: N_3  and  C_4
REMARK    3  A    between atoms: C_4  and  C_5
REMARK    4  A    between atoms: C_8  and  C_9
REMARK    5  A    between atoms: C_9  and  C_10
REMARK    6  A    between atoms: C_10  and  O_11
REMARK    7  A    between atoms: C_10  and  C_12
REMARK    8  A    between atoms: C_12  and  C_13
REMARK                            x       y       z     vdW  Elec       q    Type
REMARK                         _______ _______ _______ _____ _____    ______ ____
ROOT
ATOM      1  C   UNL     1      47.524   6.376  13.273  0.00  0.00    +0.000 A 
ATOM      2  C   UNL     1      46.923   5.220  13.782  0.00  0.00    +0.000 A 
ATOM      3  C   UNL     1      45.891   4.592  13.086  0.00  0.00    +0.000 A 
ATOM      4  C   UNL     1      45.441   5.104  11.860  0.00  0.00    +0.000 A 
ATOM      5  C   UNL     1      46.076   6.232  11.327  0.00  0.00    +0.000 A 
ATOM      6  C   UNL     1      47.109   6.861  12.026  0.00  0.00    +0.000 A 
ENDROOT
BRANCH   1   7
ATOM      7  C   UNL     1      48.629   7.052  14.042  0.00  0.00    +0.000 C 
BRANCH   7  10
ATOM      8  O   UNL     1      49.842   8.571  16.085  0.00  0.00    +0.000 OA
ATOM      9  C   UNL     1      49.049   7.683  16.388  0.00  0.00    +0.000 C 
ATOM     10  N   UNL     1      48.470   6.859  15.460  0.00  0.00    +0.000 N 
ATOM     11  H   UNL     1      47.682   6.284  15.738  0.00  0.00    +0.000 HD
BRANCH   9  12
ATOM     12  C   UNL     1      48.715   7.400  17.792  0.00  0.00    +0.000 A 
ATOM     13  C   UNL     1      48.176   8.399  18.589  0.00  0.00    +0.000 A 
ATOM     14  S   UNL     1      47.903   7.911  20.201  0.00  0.00    +0.000 S 
ATOM     15  C   UNL     1      48.445   6.332  19.874  0.00  0.00    +0.000 A 
ATOM     16  N   UNL     1      48.454   5.379  20.846  0.00  0.00    +0.000 NA
ATOM     17  C   UNL     1      48.845   4.213  20.447  0.00  0.00    +0.000 A 
ATOM     18  N   UNL     1      49.233   3.916  19.166  0.00  0.00    +0.000 N 
ATOM     19  C   UNL     1      49.308   4.862  18.173  0.00  0.00    +0.000 A 
ATOM     20  O   UNL     1      49.779   4.587  17.073  0.00  0.00    +0.000 OA
ATOM     21  C   UNL     1      48.844   6.182  18.558  0.00  0.00    +0.000 A 
ATOM     22  H   UNL     1      49.550   2.989  18.924  0.00  0.00    +0.000 HD
ENDBRANCH   9  12
ENDBRANCH   7  10
ENDBRANCH   1   7
BRANCH   4  23
ATOM     23  C   UNL     1      44.265   4.461  11.154  0.00  0.00    +0.000 C 
BRANCH  23  24
ATOM     24  C   UNL     1      44.641   3.267  10.247  0.00  0.00    +0.000 C 
BRANCH  24  25
ATOM     25  O   UNL     1      43.756   2.169  10.510  0.00  0.00    +0.000 OA
ATOM     26  H   UNL     1      42.878   2.541  10.706  0.00  0.00    +0.000 HD
ENDBRANCH  24  25
BRANCH  24  27
ATOM     27  C   UNL     1      44.655   3.632   8.754  0.00  0.00    +0.000 C 
BRANCH  27  28
ATOM     28  C   UNL     1      45.690   2.864   7.970  0.00  0.00    +0.000 A 
ATOM     29  C   UNL     1      46.332   3.465   6.888  0.00  0.00    +0.000 A 
ATOM     30  C   UNL     1      47.294   2.747   6.187  0.00  0.00    +0.000 A 
ATOM     31  C   UNL     1      47.587   1.448   6.576  0.00  0.00    +0.000 A 
ATOM     32  C   UNL     1      46.900   0.921   7.659  0.00  0.00    +0.000 A 
ATOM     33  N   UNL     1      45.967   1.597   8.367  0.00  0.00    +0.000 NA
ENDBRANCH  27  28
ENDBRANCH  24  27
ENDBRANCH  23  24
ENDBRANCH   4  23
TORSDOF 8
ENDMDL
MODEL 3
REMARK VINA RESULT:    -8.101      2.297      2.798
REMARK INTER + INTRA:         -12.710
REMARK INTER:                 -11.441
REMARK INTRA:                  -1.269
REMARK UNBOUND:                -1.058
REMARK  Name = 
REMARK  8 active torsions:
REMARK  status: ('A' for Active; 'I' for Inactive)
REMARK    1  A    between atoms: C_2  and  C_21
REMARK    2  A    between atoms: N_3  and  C_4
REMARK    3  A    between atoms: C_4  and  C_5
REMARK    4  A    between atoms: C_8  and  C_9
REMARK    5  A    between atoms: C_9  and  C_10
REMARK    6  A    between atoms: C_10  and  O_11
REMARK    7  A    between atoms: C_10  and  C_12
REMARK    8  A    between atoms: C_12  and  C_13
REMARK                            x       y       z     vdW  Elec       q    Type
REMARK                         _______ _______ _______ _____ _____    ______ ____
ROOT
ATOM      1  C   UNL     1      47.228   6.335  13.232  0.00  0.00    +0.000 A 
ATOM      2  C   UNL     1      46.801   6.944  12.048  0.00  0.00    +0.000 A 
ATOM      3  C   UNL     1      45.768   6.385  11.297  0.00  0.00    +0.000 A 
ATOM      4  C   UNL     1      45.135   5.206  11.716  0.00  0.00    +0.000 A 
ATOM      5  C   UNL     1      45.529   4.625  12.927  0.00  0.00    +0.000 A 
ATOM      6  C   UNL     1      46.565   5.185  13.679  0.00  0.00    +0.000 A 
ENDROOT
BRANCH   1   7
ATOM      7  C   UNL     1      48.354   6.942  14.028  0.00  0.00    +0.000 C 
BRANCH   7  10
ATOM      8  O   UNL     1      50.313   6.219  15.924  0.00  0.00    +0.000 OA
ATOM      9  C   UNL     1      49.172   6.467  16.305  0.00  0.00    +0.000 C 
ATOM     10  N   UNL     1      48.150   6.759  15.441  0.00  0.00    +0.000 N 
ATOM     11  H   UNL     1      47.289   7.146  15.813  0.00  0.00    +0.000 HD
BRANCH   9  12
ATOM     12  C   UNL     1      48.808   6.398  17.728  0.00  0.00    +0.000 A 
ATOM     13  C   UNL     1      49.009   5.223  18.438  0.00  0.00    +0.000 A 
ATOM     14  S   UNL     1      48.480   5.307  20.057  0.00  0.00    +0.000 S 
ATOM     15  C   UNL     1      48.014   6.934  19.880  0.00  0.00    +0.000 A 
ATOM     16  N   UNL     1      47.485   7.629  20.924  0.00  0.00    +0.000 NA
ATOM     17  C   UNL     1      47.220   8.866  20.662  0.00  0.00    +0.000 A 
ATOM     18  N   UNL     1      47.431   9.470  19.451  0.00  0.00    +0.000 N 
ATOM     19  C   UNL     1      47.895   8.790  18.351  0.00  0.00    +0.000 A 
ATOM     20  O   UNL     1      47.952   9.331  17.251  0.00  0.00    +0.000 OA
ATOM     21  C   UNL     1      48.244   7.403  18.600  0.00  0.00    +0.000 A 
ATOM     22  H   UNL     1      47.182  10.437  19.304  0.00  0.00    +0.000 HD
ENDBRANCH   9  12
ENDBRANCH   7  10
ENDBRANCH   1   7
BRANCH   4  23
ATOM     23  C   UNL     1      44.071   4.565  10.850  0.00  0.00    +0.000 C 
BRANCH  23  24
ATOM     24  C   UNL     1      44.542   3.305  10.086  0.00  0.00    +0.000 C 
BRANCH  24  25
ATOM     25  O   UNL     1      43.754   2.178  10.492  0.00  0.00    +0.000 OA
ATOM     26  H   UNL     1      43.715   2.182  11.464  0.00  0.00    +0.000 HD
ENDBRANCH  24  25
BRANCH  24  27
ATOM     27  C   UNL     1      44.518   3.488   8.561  0.00  0.00    +0.000 C 
BRANCH  27  28
ATOM     28  C   UNL     1      45.650   2.775   7.864  0.00  0.00    +0.000 A 
ATOM     29  C   UNL     1      46.352   3.414   6.844  0.00  0.00    +0.000 A 
ATOM     30  C   UNL     1      47.404   2.746   6.224  0.00  0.00    +0.000 A 
ATOM     31  C   UNL     1      47.722   1.458   6.631  0.00  0.00    +0.000 A 
ATOM     32  C   UNL     1      46.971   0.892   7.649  0.00  0.00    +0.000 A 
ATOM     33  N   UNL     1      45.950   1.519   8.277  0.00  0.00    +0.000 NA
ENDBRANCH  27  28
ENDBRANCH  24  27
ENDBRANCH  23  24
ENDBRANCH   4  23
TORSDOF 8
ENDMDL
MODEL 4
REMARK VINA RESULT:    -7.558      1.895      2.155
REMARK INTER + INTRA:         -11.930
REMARK INTER:                 -10.697
REMARK INTRA:                  -1.233
REMARK UNBOUND:                -1.058
REMARK  Name = 
REMARK  8 active torsions:
REMARK  status: ('A' for Active; 'I' for Inactive)
REMARK    1  A    between atoms: C_2  and  C_21
REMARK    2  A    between atoms: N_3  and  C_4
REMARK    3  A    between atoms: C_4  and  C_5
REMARK    4  A    between atoms: C_8  and  C_9
REMARK    5  A    between atoms: C_9  and  C_10
REMARK    6  A    between atoms: C_10  and  O_11
REMARK    7  A    between atoms: C_10  and  C_12
REMARK    8  A    between atoms: C_12  and  C_13
REMARK                            x       y       z     vdW  Elec       q    Type
REMARK                         _______ _______ _______ _____ _____    ______ ____
ROOT
ATOM      1  C   UNL     1      48.012   7.142  12.532  0.00  0.00    +0.000 A 
ATOM      2  C   UNL     1      47.238   7.408  11.398  0.00  0.00    +0.000 A 
ATOM      3  C   UNL     1      46.109   6.640  11.115  0.00  0.00    +0.000 A 
ATOM      4  C   UNL     1      45.726   5.592  11.964  0.00  0.00    +0.000 A 
ATOM      5  C   UNL     1      46.472   5.359  13.125  0.00  0.00    +0.000 A 
ATOM      6  C   UNL     1      47.604   6.128  13.408  0.00  0.00    +0.000 A 
ENDROOT
BRANCH   1   7
ATOM      7  C   UNL     1      49.237   7.971  12.820  0.00  0.00    +0.000 C 
BRANCH   7  10
ATOM      8  O   UNL     1      49.891   8.820  15.428  0.00  0.00    +0.000 OA
ATOM      9  C   UNL     1      50.332   7.749  15.018  0.00  0.00    +0.000 C 
ATOM     10  N   UNL     1      50.114   7.300  13.742  0.00  0.00    +0.000 N 
ATOM     11  H   UNL     1      50.327   6.333  13.520  0.00  0.00    +0.000 HD
BRANCH   9  12
ATOM     12  C   UNL     1      51.187   6.900  15.859  0.00  0.00    +0.000 A 
ATOM     13  C   UNL     1      52.567   7.027  15.792  0.00  0.00    +0.000 A 
ATOM     14  S   UNL     1      53.401   5.927  16.794  0.00  0.00    +0.000 S 
ATOM     15  C   UNL     1      51.946   5.280  17.392  0.00  0.00    +0.000 A 
ATOM     16  N   UNL     1      51.951   4.286  18.322  0.00  0.00    +0.000 NA
ATOM     17  C   UNL     1      50.777   3.924  18.722  0.00  0.00    +0.000 A 
ATOM     18  N   UNL     1      49.599   4.461  18.272  0.00  0.00    +0.000 N 
ATOM     19  C   UNL     1      49.544   5.413  17.284  0.00  0.00    +0.000 A 
ATOM     20  O   UNL     1      48.469   5.779  16.818  0.00  0.00    +0.000 OA
ATOM     21  C   UNL     1      50.838   5.884  16.825  0.00  0.00    +0.000 A 
ATOM     22  H   UNL     1      48.711   4.117  18.609  0.00  0.00    +0.000 HD
ENDBRANCH   9  12
ENDBRANCH   7  10
ENDBRANCH   1   7
BRANCH   4  23
ATOM     23  C   UNL     1      44.545   4.713  11.603  0.00  0.00    +0.000 C 
BRANCH  23  24
ATOM     24  C   UNL     1      44.915   3.247  11.280  0.00  0.00    +0.000 C 
BRANCH  24  25
ATOM     25  O   UNL     1      44.516   2.403  12.368  0.00  0.00    +0.000 OA
ATOM     26  H   UNL     1      44.328   1.521  12.002  0.00  0.00    +0.000 HD
ENDBRANCH  24  25
BRANCH  24  27
ATOM     27  C   UNL     1      44.326   2.763   9.946  0.00  0.00    +0.000 C 
BRANCH  27  28
ATOM     28  C   UNL     1      45.349   2.699   8.839  0.00  0.00    +0.000 A 
ATOM     29  C   UNL     1      45.700   3.858   8.148  0.00  0.00    +0.000 A 
ATOM     30  C   UNL     1      46.657   3.782   7.141  0.00  0.00    +0.000 A 
ATOM     31  C   UNL     1      47.232   2.555   6.844  0.00  0.00    +0.000 A 
ATOM     32  C   UNL     1      46.823   1.449   7.574  0.00  0.00    +0.000 A 
ATOM     33  N   UNL     1      45.904   1.492   8.565  0.00  0.00    +0.000 NA
ENDBRANCH  27  28
ENDBRANCH  24  27
ENDBRANCH  23  24
ENDBRANCH   4  23
TORSDOF 8
ENDMDL
MODEL 5
REMARK VINA RESULT:    -7.114      1.906      2.403
REMARK INTER + INTRA:         -11.291
REMARK INTER:                 -10.163
REMARK INTRA:                  -1.128
REMARK UNBOUND:                -1.058
REMARK  Name = 
REMARK  8 active torsions:
REMARK  status: ('A' for Active; 'I' for Inactive)
REMARK    1  A    between atoms: C_2  and  C_21
REMARK    2  A    between atoms: N_3  and  C_4
REMARK    3  A    between atoms: C_4  and  C_5
REMARK    4  A    between atoms: C_8  and  C_9
REMARK    5  A    between atoms: C_9  and  C_10
REMARK    6  A    between atoms: C_10  and  O_11
REMARK    7  A    between atoms: C_10  and  C_12
REMARK    8  A    between atoms: C_12  and  C_13
REMARK                            x       y       z     vdW  Elec       q    Type
REMARK                         _______ _______ _______ _____ _____    ______ ____
ROOT
ATOM      1  C   UNL     1      45.989   7.600  12.299  0.00  0.00    +0.000 A 
ATOM      2  C   UNL     1      44.771   7.579  11.613  0.00  0.00    +0.000 A 
ATOM      3  C   UNL     1      44.030   6.401  11.519  0.00  0.00    +0.000 A 
ATOM      4  C   UNL     1      44.490   5.218  12.115  0.00  0.00    +0.000 A 
ATOM      5  C   UNL     1      45.684   5.252  12.844  0.00  0.00    +0.000 A 
ATOM      6  C   UNL     1      46.426   6.432  12.937  0.00  0.00    +0.000 A 
ENDROOT
BRANCH   1   7
ATOM      7  C   UNL     1      46.786   8.876  12.382  0.00  0.00    +0.000 C 
BRANCH   7  10
ATOM      8  O   UNL     1      49.549   8.442  12.027  0.00  0.00    +0.000 OA
ATOM      9  C   UNL     1      49.115   8.649  13.157  0.00  0.00    +0.000 C 
ATOM     10  N   UNL     1      47.780   8.802  13.420  0.00  0.00    +0.000 N 
ATOM     11  H   UNL     1      47.497   9.165  14.324  0.00  0.00    +0.000 HD
BRANCH   9  12
ATOM     12  C   UNL     1      50.006   8.680  14.327  0.00  0.00    +0.000 A 
ATOM     13  C   UNL     1      50.868   9.752  14.511  0.00  0.00    +0.000 A 
ATOM     14  S   UNL     1      51.865   9.595  15.886  0.00  0.00    +0.000 S 
ATOM     15  C   UNL     1      51.139   8.116  16.313  0.00  0.00    +0.000 A 
ATOM     16  N   UNL     1      51.528   7.442  17.430  0.00  0.00    +0.000 NA
ATOM     17  C   UNL     1      50.861   6.359  17.659  0.00  0.00    +0.000 A 
ATOM     18  N   UNL     1      49.844   5.887  16.870  0.00  0.00    +0.000 N 
ATOM     19  C   UNL     1      49.468   6.496  15.697  0.00  0.00    +0.000 A 
ATOM     20  O   UNL     1      48.641   5.977  14.953  0.00  0.00    +0.000 OA
ATOM     21  C   UNL     1      50.161   7.739  15.411  0.00  0.00    +0.000 A 
ATOM     22  H   UNL     1      49.376   5.020  17.092  0.00  0.00    +0.000 HD
ENDBRANCH   9  12
ENDBRANCH   7  10
ENDBRANCH   1   7
BRANCH   4  23
ATOM     23  C   UNL     1      43.718   3.927  11.937  0.00  0.00    +0.000 C 
BRANCH  23  24
ATOM     24  C   UNL     1      44.291   2.984  10.853  0.00  0.00    +0.000 C 
BRANCH  24  25
ATOM     25  O   UNL     1      43.561   1.750  10.859  0.00  0.00    +0.000 OA
ATOM     26  H   UNL     1      43.784   1.273  10.041  0.00  0.00    +0.000 HD
ENDBRANCH  24  25
BRANCH  24  27
ATOM     27  C   UNL     1      44.306   3.621   9.455  0.00  0.00    +0.000 C 
BRANCH  27  28
ATOM     28  C   UNL     1      45.315   2.986   8.530  0.00  0.00    +0.000 A 
ATOM     29  C   UNL     1      45.906   3.743   7.520  0.00  0.00    +0.000 A 
ATOM     30  C   UNL     1      46.845   3.143   6.686  0.00  0.00    +0.000 A 
ATOM     31  C   UNL     1      47.164   1.806   6.876  0.00  0.00    +0.000 A 
ATOM     32  C   UNL     1      46.526   1.123   7.900  0.00  0.00    +0.000 A 
ATOM     33  N   UNL     1      45.617   1.679   8.732  0.00  0.00    +0.000 NA
ENDBRANCH  27  28
ENDBRANCH  24  27
ENDBRANCH  23  24
ENDBRANCH   4  23
TORSDOF 8
ENDMDL
MODEL 6
REMARK VINA RESULT:    -6.977      2.897      8.480
REMARK INTER + INTRA:         -11.094
REMARK INTER:                  -9.594
REMARK INTRA:                  -1.500
REMARK UNBOUND:                -1.058
REMARK  Name = 
REMARK  8 active torsions:
REMARK  status: ('A' for Active; 'I' for Inactive)
REMARK    1  A    between atoms: C_2  and  C_21
REMARK    2  A    between atoms: N_3  and  C_4
REMARK    3  A    between atoms: C_4  and  C_5
REMARK    4  A    between atoms: C_8  and  C_9
REMARK    5  A    between atoms: C_9  and  C_10
REMARK    6  A    between atoms: C_10  and  O_11
REMARK    7  A    between atoms: C_10  and  C_12
REMARK    8  A    between atoms: C_12  and  C_13
REMARK                            x       y       z     vdW  Elec       q    Type
REMARK                         _______ _______ _______ _____ _____    ______ ____
ROOT
ATOM      1  C   UNL     1      48.596   7.332  13.550  0.00  0.00    +0.000 A 
ATOM      2  C   UNL     1      48.076   6.725  14.697  0.00  0.00    +0.000 A 
ATOM      3  C   UNL     1      48.867   6.562  15.834  0.00  0.00    +0.000 A 
ATOM      4  C   UNL     1      50.196   7.008  15.849  0.00  0.00    +0.000 A 
ATOM      5  C   UNL     1      50.701   7.660  14.718  0.00  0.00    +0.000 A 
ATOM      6  C   UNL     1      49.909   7.822  13.580  0.00  0.00    +0.000 A 
ENDROOT
BRANCH   1   7
ATOM      7  C   UNL     1      47.735   7.490  12.324  0.00  0.00    +0.000 C 
BRANCH   7  10
ATOM      8  O   UNL     1      44.932   7.366  12.040  0.00  0.00    +0.000 OA
ATOM      9  C   UNL     1      45.595   6.342  11.895  0.00  0.00    +0.000 C 
ATOM     10  N   UNL     1      46.951   6.307  12.082  0.00  0.00    +0.000 N 
ATOM     11  H   UNL     1      47.470   5.497  11.760  0.00  0.00    +0.000 HD
BRANCH   9  12
ATOM     12  C   UNL     1      44.959   5.057  11.573  0.00  0.00    +0.000 A 
ATOM     13  C   UNL     1      44.210   4.395  12.535  0.00  0.00    +0.000 A 
ATOM     14  S   UNL     1      43.594   2.895  12.005  0.00  0.00    +0.000 S 
ATOM     15  C   UNL     1      44.261   3.105  10.454  0.00  0.00    +0.000 A 
ATOM     16  N   UNL     1      44.085   2.167   9.483  0.00  0.00    +0.000 NA
ATOM     17  C   UNL     1      44.605   2.477   8.342  0.00  0.00    +0.000 A 
ATOM     18  N   UNL     1      45.288   3.636   8.084  0.00  0.00    +0.000 N 
ATOM     19  C   UNL     1      45.552   4.575   9.051  0.00  0.00    +0.000 A 
ATOM     20  O   UNL     1      46.274   5.539   8.816  0.00  0.00    +0.000 OA
ATOM     21  C   UNL     1      44.958   4.295  10.345  0.00  0.00    +0.000 A 
ATOM     22  H   UNL     1      45.691   3.809   7.174  0.00  0.00    +0.000 HD
ENDBRANCH   9  12
ENDBRANCH   7  10
ENDBRANCH   1   7
BRANCH   4  23
ATOM     23  C   UNL     1      51.070   6.752  17.061  0.00  0.00    +0.000 C 
BRANCH  23  24
ATOM     24  C   UNL     1      51.973   5.502  16.944  0.00  0.00    +0.000 C 
BRANCH  24  25
ATOM     25  O   UNL     1      53.348   5.896  17.045  0.00  0.00    +0.000 OA
ATOM     26  H   UNL     1      53.380   6.723  17.556  0.00  0.00    +0.000 HD
ENDBRANCH  24  25
BRANCH  24  27
ATOM     27  C   UNL     1      51.622   4.415  17.971  0.00  0.00    +0.000 C 
BRANCH  27  28
ATOM     28  C   UNL     1      50.219   3.884  17.811  0.00  0.00    +0.000 A 
ATOM     29  C   UNL     1      49.212   4.306  18.677  0.00  0.00    +0.000 A 
ATOM     30  C   UNL     1      47.921   3.818  18.503  0.00  0.00    +0.000 A 
ATOM     31  C   UNL     1      47.669   2.917  17.478  0.00  0.00    +0.000 A 
ATOM     32  C   UNL     1      48.727   2.544  16.664  0.00  0.00    +0.000 A 
ATOM     33  N   UNL     1      49.990   3.008  16.801  0.00  0.00    +0.000 NA
ENDBRANCH  27  28
ENDBRANCH  24  27
ENDBRANCH  23  24
ENDBRANCH   4  23
TORSDOF 8
ENDMDL
MODEL 7
REMARK VINA RESULT:    -6.826      4.954      6.506
REMARK INTER + INTRA:         -10.877
REMARK INTER:                  -9.815
REMARK INTRA:                  -1.062
REMARK UNBOUND:                -1.058
REMARK  Name = 
REMARK  8 active torsions:
REMARK  status: ('A' for Active; 'I' for Inactive)
REMARK    1  A    between atoms: C_2  and  C_21
REMARK    2  A    between atoms: N_3  and  C_4
REMARK    3  A    between atoms: C_4  and  C_5
REMARK    4  A    between atoms: C_8  and  C_9
REMARK    5  A    between atoms: C_9  and  C_10
REMARK    6  A    between atoms: C_10  and  O_11
REMARK    7  A    between atoms: C_10  and  C_12
REMARK    8  A    between atoms: C_12  and  C_13
REMARK                            x       y       z     vdW  Elec       q    Type
REMARK                         _______ _______ _______ _____ _____    ______ ____
ROOT
ATOM      1  C   UNL     1      48.840   7.211  12.676  0.00  0.00    +0.000 A 
ATOM      2  C   UNL     1      48.123   7.299  11.479  0.00  0.00    +0.000 A 
ATOM      3  C   UNL     1      46.901   6.644  11.334  0.00  0.00    +0.000 A 
ATOM      4  C   UNL     1      46.366   5.889  12.388  0.00  0.00    +0.000 A 
ATOM      5  C   UNL     1      47.059   5.843  13.603  0.00  0.00    +0.000 A 
ATOM      6  C   UNL     1      48.284   6.498  13.747  0.00  0.00    +0.000 A 
ENDROOT
BRANCH   1   7
ATOM      7  C   UNL     1      50.165   7.914  12.815  0.00  0.00    +0.000 C 
BRANCH   7  10
ATOM      8  O   UNL     1      52.899   8.256  12.214  0.00  0.00    +0.000 OA
ATOM      9  C   UNL     1      52.074   8.317  11.306  0.00  0.00    +0.000 C 
ATOM     10  N   UNL     1      50.725   8.229  11.526  0.00  0.00    +0.000 N 
ATOM     11  H   UNL     1      50.107   8.086  10.734  0.00  0.00    +0.000 HD
BRANCH   9  12
ATOM     12  C   UNL     1      52.481   8.560   9.915  0.00  0.00    +0.000 A 
ATOM     13  C   UNL     1      52.365   9.832   9.373  0.00  0.00    +0.000 A 
ATOM     14  S   UNL     1      52.831   9.918   7.734  0.00  0.00    +0.000 S 
ATOM     15  C   UNL     1      53.255   8.270   7.709  0.00  0.00    +0.000 A 
ATOM     16  N   UNL     1      53.753   7.692   6.582  0.00  0.00    +0.000 NA
ATOM     17  C   UNL     1      54.077   6.449   6.719  0.00  0.00    +0.000 A 
ATOM     18  N   UNL     1      53.942   5.730   7.877  0.00  0.00    +0.000 N 
ATOM     19  C   UNL     1      53.377   6.252   9.015  0.00  0.00    +0.000 A 
ATOM     20  O   UNL     1      53.157   5.544   9.994  0.00  0.00    +0.000 OA
ATOM     21  C   UNL     1      53.030   7.658   8.929  0.00  0.00    +0.000 A 
ATOM     22  H   UNL     1      54.192   4.753   7.912  0.00  0.00    +0.000 HD
ENDBRANCH   9  12
ENDBRANCH   7  10
ENDBRANCH   1   7
BRANCH   4  23
ATOM     23  C   UNL     1      45.078   5.115  12.191  0.00  0.00    +0.000 C 
BRANCH  23  24
ATOM     24  C   UNL     1      45.262   3.723  11.543  0.00  0.00    +0.000 C 
BRANCH  24  25
ATOM     25  O   UNL     1      44.944   2.704  12.501  0.00  0.00    +0.000 OA
ATOM     26  H   UNL     1      44.872   3.132  13.372  0.00  0.00    +0.000 HD
ENDBRANCH  24  25
BRANCH  24  27
ATOM     27  C   UNL     1      44.448   3.554  10.251  0.00  0.00    +0.000 C 
BRANCH  27  28
ATOM     28  C   UNL     1      45.286   3.095   9.083  0.00  0.00    +0.000 A 
ATOM     29  C   UNL     1      45.667   4.005   8.099  0.00  0.00    +0.000 A 
ATOM     30  C   UNL     1      46.453   3.567   7.038  0.00  0.00    +0.000 A 
ATOM     31  C   UNL     1      46.831   2.233   6.981  0.00  0.00    +0.000 A 
ATOM     32  C   UNL     1      46.405   1.391   7.997  0.00  0.00    +0.000 A 
ATOM     33  N   UNL     1      45.650   1.789   9.046  0.00  0.00    +0.000 NA
ENDBRANCH  27  28
ENDBRANCH  24  27
ENDBRANCH  23  24
ENDBRANCH   4  23
TORSDOF 8
ENDMDL
MODEL 8
REMARK VINA RESULT:    -6.655      2.637      4.409
REMARK INTER + INTRA:         -10.630
REMARK INTER:                  -9.530
REMARK INTRA:                  -1.100
REMARK UNBOUND:                -1.058
REMARK  Name = 
REMARK  8 active torsions:
REMARK  status: ('A' for Active; 'I' for Inactive)
REMARK    1  A    between atoms: C_2  and  C_21
REMARK    2  A    between atoms: N_3  and  C_4
REMARK    3  A    between atoms: C_4  and  C_5
REMARK    4  A    between atoms: C_8  and  C_9
REMARK    5  A    between atoms: C_9  and  C_10
REMARK    6  A    between atoms: C_10  and  O_11
REMARK    7  A    between atoms: C_10  and  C_12
REMARK    8  A    between atoms: C_12  and  C_13
REMARK                            x       y       z     vdW  Elec       q    Type
REMARK                         _______ _______ _______ _____ _____    ______ ____
ROOT
ATOM      1  C   UNL     1      46.630   4.845  14.039  0.00  0.00    +0.000 A 
ATOM      2  C   UNL     1      45.700   5.732  13.489  0.00  0.00    +0.000 A 
ATOM      3  C   UNL     1      44.875   5.333  12.437  0.00  0.00    +0.000 A 
ATOM      4  C   UNL     1      44.960   4.034  11.915  0.00  0.00    +0.000 A 
ATOM      5  C   UNL     1      45.856   3.132  12.500  0.00  0.00    +0.000 A 
ATOM      6  C   UNL     1      46.682   3.532  13.552  0.00  0.00    +0.000 A 
ENDROOT
BRANCH   1   7
ATOM      7  C   UNL     1      47.523   5.293  15.166  0.00  0.00    +0.000 C 
BRANCH   7  10
ATOM      8  O   UNL     1      50.092   6.335  15.684  0.00  0.00    +0.000 OA
ATOM      9  C   UNL     1      49.232   7.069  15.203  0.00  0.00    +0.000 C 
ATOM     10  N   UNL     1      47.945   6.657  14.985  0.00  0.00    +0.000 N 
ATOM     11  H   UNL     1      47.337   7.231  14.410  0.00  0.00    +0.000 HD
BRANCH   9  12
ATOM     12  C   UNL     1      49.516   8.477  14.888  0.00  0.00    +0.000 A 
ATOM     13  C   UNL     1      49.526   9.424  15.902  0.00  0.00    +0.000 A 
ATOM     14  S   UNL     1      49.818  11.011  15.348  0.00  0.00    +0.000 S 
ATOM     15  C   UNL     1      49.995  10.478  13.742  0.00  0.00    +0.000 A 
ATOM     16  N   UNL     1      50.280  11.356  12.741  0.00  0.00    +0.000 NA
ATOM     17  C   UNL     1      50.434  10.809  11.581  0.00  0.00    +0.000 A 
ATOM     18  N   UNL     1      50.324   9.466  11.330  0.00  0.00    +0.000 N 
ATOM     19  C   UNL     1      49.968   8.556  12.294  0.00  0.00    +0.000 A 
ATOM     20  O   UNL     1      49.756   7.381  12.007  0.00  0.00    +0.000 OA
ATOM     21  C   UNL     1      49.819   9.112  13.626  0.00  0.00    +0.000 A 
ATOM     22  H   UNL     1      50.434   9.104  10.394  0.00  0.00    +0.000 HD
ENDBRANCH   9  12
ENDBRANCH   7  10
ENDBRANCH   1   7
BRANCH   4  23
ATOM     23  C   UNL     1      44.117   3.639  10.720  0.00  0.00    +0.000 C 
BRANCH  23  24
ATOM     24  C   UNL     1      44.410   4.448   9.436  0.00  0.00    +0.000 C 
BRANCH  24  25
ATOM     25  O   UNL     1      45.716   5.034   9.528  0.00  0.00    +0.000 OA
ATOM     26  H   UNL     1      46.319   4.355   9.874  0.00  0.00    +0.000 HD
ENDBRANCH  24  25
BRANCH  24  27
ATOM     27  C   UNL     1      44.259   3.611   8.156  0.00  0.00    +0.000 C 
BRANCH  27  28
ATOM     28  C   UNL     1      45.561   3.005   7.692  0.00  0.00    +0.000 A 
ATOM     29  C   UNL     1      45.904   1.712   8.083  0.00  0.00    +0.000 A 
ATOM     30  C   UNL     1      47.101   1.164   7.632  0.00  0.00    +0.000 A 
ATOM     31  C   UNL     1      47.926   1.920   6.812  0.00  0.00    +0.000 A 
ATOM     32  C   UNL     1      47.514   3.200   6.474  0.00  0.00    +0.000 A 
ATOM     33  N   UNL     1      46.353   3.756   6.888  0.00  0.00    +0.000 NA
ENDBRANCH  27  28
ENDBRANCH  24  27
ENDBRANCH  23  24
ENDBRANCH   4  23
TORSDOF 8
ENDMDL
MODEL 9
REMARK VINA RESULT:    -6.615      2.728      3.754
REMARK INTER + INTRA:         -10.574
REMARK INTER:                  -9.365
REMARK INTRA:                  -1.209
REMARK UNBOUND:                -1.058
REMARK  Name = 
REMARK  8 active torsions:
REMARK  status: ('A' for Active; 'I' for Inactive)
REMARK    1  A    between atoms: C_2  and  C_21
REMARK    2  A    between atoms: N_3  and  C_4
REMARK    3  A    between atoms: C_4  and  C_5
REMARK    4  A    between atoms: C_8  and  C_9
REMARK    5  A    between atoms: C_9  and  C_10
REMARK    6  A    between atoms: C_10  and  O_11
REMARK    7  A    between atoms: C_10  and  C_12
REMARK    8  A    between atoms: C_12  and  C_13
REMARK                            x       y       z     vdW  Elec       q    Type
REMARK                         _______ _______ _______ _____ _____    ______ ____
ROOT
ATOM      1  C   UNL     1      46.699   4.586  14.308  0.00  0.00    +0.000 A 
ATOM      2  C   UNL     1      46.760   3.371  13.619  0.00  0.00    +0.000 A 
ATOM      3  C   UNL     1      45.953   3.147  12.504  0.00  0.00    +0.000 A 
ATOM      4  C   UNL     1      45.070   4.137  12.049  0.00  0.00    +0.000 A 
ATOM      5  C   UNL     1      45.047   5.371  12.709  0.00  0.00    +0.000 A 
ATOM      6  C   UNL     1      45.854   5.595  13.827  0.00  0.00    +0.000 A 
ENDROOT
BRANCH   1   7
ATOM      7  C   UNL     1      47.566   4.811  15.519  0.00  0.00    +0.000 C 
BRANCH   7  10
ATOM      8  O   UNL     1      50.075   5.911  16.188  0.00  0.00    +0.000 OA
ATOM      9  C   UNL     1      49.133   6.664  15.956  0.00  0.00    +0.000 C 
ATOM     10  N   UNL     1      47.869   6.207  15.691  0.00  0.00    +0.000 N 
ATOM     11  H   UNL     1      47.183   6.853  15.315  0.00  0.00    +0.000 HD
BRANCH   9  12
ATOM     12  C   UNL     1      49.287   8.124  16.016  0.00  0.00    +0.000 A 
ATOM     13  C   UNL     1      50.011   8.784  15.033  0.00  0.00    +0.000 A 
ATOM     14  S   UNL     1      50.133  10.466  15.291  0.00  0.00    +0.000 S 
ATOM     15  C   UNL     1      49.176  10.377  16.695  0.00  0.00    +0.000 A 
ATOM     16  N   UNL     1      48.873  11.497  17.408  0.00  0.00    +0.000 NA
ATOM     17  C   UNL     1      48.100  11.290  18.423  0.00  0.00    +0.000 A 
ATOM     18  N   UNL     1      47.607  10.066  18.791  0.00  0.00    +0.000 N 
ATOM     19  C   UNL     1      47.944   8.902  18.144  0.00  0.00    +0.000 A 
ATOM     20  O   UNL     1      47.585   7.811  18.578  0.00  0.00    +0.000 OA
ATOM     21  C   UNL     1      48.781   9.081  16.973  0.00  0.00    +0.000 A 
ATOM     22  H   UNL     1      47.024   9.968  19.610  0.00  0.00    +0.000 HD
ENDBRANCH   9  12
ENDBRANCH   7  10
ENDBRANCH   1   7
BRANCH   4  23
ATOM     23  C   UNL     1      44.141   3.852  10.887  0.00  0.00    +0.000 C 
BRANCH  23  24
ATOM     24  C   UNL     1      44.518   4.577   9.575  0.00  0.00    +0.000 C 
BRANCH  24  25
ATOM     25  O   UNL     1      45.871   5.045   9.660  0.00  0.00    +0.000 OA
ATOM     26  H   UNL     1      46.212   5.124   8.752  0.00  0.00    +0.000 HD
ENDBRANCH  24  25
BRANCH  24  27
ATOM     27  C   UNL     1      44.302   3.706   8.328  0.00  0.00    +0.000 C 
BRANCH  27  28
ATOM     28  C   UNL     1      45.576   3.079   7.819  0.00  0.00    +0.000 A 
ATOM     29  C   UNL     1      45.873   1.754   8.132  0.00  0.00    +0.000 A 
ATOM     30  C   UNL     1      47.046   1.189   7.641  0.00  0.00    +0.000 A 
ATOM     31  C   UNL     1      47.893   1.960   6.858  0.00  0.00    +0.000 A 
ATOM     32  C   UNL     1      47.528   3.271   6.598  0.00  0.00    +0.000 A 
ATOM     33  N   UNL     1      46.391   3.846   7.053  0.00  0.00    +0.000 NA
ENDBRANCH  27  28
ENDBRANCH  24  27
ENDBRANCH  23  24
ENDBRANCH   4  23
TORSDOF 8
ENDMDL
