MODEL 1
REMARK VINA RESULT:    -7.896      0.000      0.000
REMARK INTER + INTRA:         -10.218
REMARK INTER:                  -9.742
REMARK INTRA:                  -0.476
REMARK UNBOUND:                -0.476
REMARK  Name = 
REMARK  4 active torsions:
REMARK  status: ('A' for Active; 'I' for Inactive)
REMARK    1  A    between atoms: C_2  and  C_4
REMARK    2  A    between atoms: N_8  and  C_9
REMARK    3  A    between atoms: C_9  and  C_10
REMARK    4  A    between atoms: C_10  and  C_11
REMARK                            x       y       z     vdW  Elec       q    Type
REMARK                         _______ _______ _______ _____ _____    ______ ____
ROOT
ATOM      1  C   UNL     1      46.409   2.464   7.743  0.00  0.00    +0.000 A 
ATOM      2  C   UNL     1      46.224   3.842   7.717  0.00  0.00    +0.000 A 
ATOM      3  C   UNL     1      45.307   4.418   8.603  0.00  0.00    +0.000 A 
ATOM      4  C   UNL     1      44.637   3.614   9.526  0.00  0.00    +0.000 A 
ATOM      5  N   UNL     1      43.706   4.213  10.387  0.00  0.00    +0.000 N 
ATOM      6  N   UNL     1      44.803   2.275   9.541  0.00  0.00    +0.000 NA
ATOM      7  C   UNL     1      45.654   1.725   8.638  0.00  0.00    +0.000 A 
ATOM      8  H   UNL     1      43.906   5.194  10.527  0.00  0.00    +0.000 HD
ENDROOT
BRANCH   1  10
ATOM      9  N   UNL     1      48.468   2.467   6.460  0.00  0.00    +0.000 N 
ATOM     10  C   UNL     1      47.365   1.763   6.860  0.00  0.00    +0.000 C 
ATOM     11  O   UNL     1      47.208   0.593   6.545  0.00  0.00    +0.000 OA
ATOM     12  H   UNL     1      49.176   1.940   5.966  0.00  0.00    +0.000 HD
ATOM     13  H   UNL     1      48.754   3.325   6.907  0.00  0.00    +0.000 HD
ENDBRANCH   1  10
BRANCH   5  14
ATOM     14  C   UNL     1      43.517   3.482  11.644  0.00  0.00    +0.000 C 
BRANCH  14  15
ATOM     15  C   UNL     1      43.627   4.440  12.840  0.00  0.00    +0.000 C 
BRANCH  15  16
ATOM     16  C   UNL     1      45.003   5.008  13.017  0.00  0.00    +0.000 A 
ATOM     17  C   UNL     1      46.094   4.229  13.356  0.00  0.00    +0.000 A 
ATOM     18  N   UNL     1      47.329   4.719  13.555  0.00  0.00    +0.000 NA
ATOM     19  C   UNL     1      47.456   6.046  13.417  0.00  0.00    +0.000 A 
ATOM     20  N   UNL     1      46.485   6.905  13.078  0.00  0.00    +0.000 NA
ATOM     21  C   UNL     1      45.270   6.355  12.881  0.00  0.00    +0.000 A 
ENDBRANCH  15  16
ENDBRANCH  14  15
ENDBRANCH   5  14
TORSDOF 4
ENDMDL
MODEL 2
REMARK VINA RESULT:    -7.202      2.692      6.231
REMARK INTER + INTRA:          -9.362
REMARK INTER:                  -8.937
REMARK INTRA:                  -0.425
REMARK UNBOUND:                -0.476
REMARK  Name = 
REMARK  4 active torsions:
REMARK  status: ('A' for Active; 'I' for Inactive)
REMARK    1  A    between atoms: C_2  and  C_4
REMARK    2  A    between atoms: N_8  and  C_9
REMARK    3  A    between atoms: C_9  and  C_10
REMARK    4  A    between atoms: C_10  and  C_11
REMARK                            x       y       z     vdW  Elec       q    Type
REMARK                         _______ _______ _______ _____ _____    ______ ____
ROOT
ATOM      1  C   UNL     1      46.899   5.624  13.123  0.00  0.00    +0.000 A 
ATOM      2  C   UNL     1      46.720   4.368  13.693  0.00  0.00    +0.000 A 
ATOM      3  C   UNL     1      45.863   3.457  13.068  0.00  0.00    +0.000 A 
ATOM      4  C   UNL     1      45.245   3.800  11.865  0.00  0.00    +0.000 A 
ATOM      5  N   UNL     1      44.372   2.877  11.270  0.00  0.00    +0.000 N 
ATOM      6  N   UNL     1      45.404   5.024  11.318  0.00  0.00    +0.000 NA
ATOM      7  C   UNL     1      46.196   5.916  11.966  0.00  0.00    +0.000 A 
ATOM      8  H   UNL     1      44.585   1.929  11.550  0.00  0.00    +0.000 HD
ENDROOT
BRANCH   1  10
ATOM      9  N   UNL     1      47.238   7.862  13.992  0.00  0.00    +0.000 N 
ATOM     10  C   UNL     1      47.796   6.649  13.697  0.00  0.00    +0.000 C 
ATOM     11  O   UNL     1      48.968   6.409  13.946  0.00  0.00    +0.000 OA
ATOM     12  H   UNL     1      47.826   8.509  14.502  0.00  0.00    +0.000 HD
ATOM     13  H   UNL     1      46.240   8.001  14.045  0.00  0.00    +0.000 HD
ENDBRANCH   1  10
BRANCH   5  14
ATOM     14  C   UNL     1      44.255   3.034   9.817  0.00  0.00    +0.000 C 
BRANCH  14  15
ATOM     15  C   UNL     1      44.744   1.764   9.103  0.00  0.00    +0.000 C 
BRANCH  15  16
ATOM     16  C   UNL     1      45.906   2.012   8.189  0.00  0.00    +0.000 A 
ATOM     17  C   UNL     1      46.734   0.999   7.742  0.00  0.00    +0.000 A 
ATOM     18  N   UNL     1      47.803   1.201   6.952  0.00  0.00    +0.000 NA
ATOM     19  C   UNL     1      48.045   2.475   6.617  0.00  0.00    +0.000 A 
ATOM     20  N   UNL     1      47.312   3.541   6.971  0.00  0.00    +0.000 NA
ATOM     21  C   UNL     1      46.247   3.277   7.754  0.00  0.00    +0.000 A 
ENDBRANCH  15  16
ENDBRANCH  14  15
ENDBRANCH   5  14
TORSDOF 4
ENDMDL
MODEL 3
REMARK VINA RESULT:    -7.069      3.008      6.767
REMARK INTER + INTRA:          -9.198
REMARK INTER:                  -8.901
REMARK INTRA:                  -0.297
REMARK UNBOUND:                -0.476
REMARK  Name = 
REMARK  4 active torsions:
REMARK  status: ('A' for Active; 'I' for Inactive)
REMARK    1  A    between atoms: C_2  and  C_4
REMARK    2  A    between atoms: N_8  and  C_9
REMARK    3  A    between atoms: C_9  and  C_10
REMARK    4  A    between atoms: C_10  and  C_11
REMARK                            x       y       z     vdW  Elec       q    Type
REMARK                         _______ _______ _______ _____ _____    ______ ____
ROOT
ATOM      1  C   UNL     1      45.446   7.146  12.526  0.00  0.00    +0.000 A 
ATOM      2  C   UNL     1      46.079   6.080  13.155  0.00  0.00    +0.000 A 
ATOM      3  C   UNL     1      45.870   4.786  12.667  0.00  0.00    +0.000 A 
ATOM      4  C   UNL     1      45.077   4.592  11.535  0.00  0.00    +0.000 A 
ATOM      5  N   UNL     1      44.864   3.282  11.080  0.00  0.00    +0.000 N 
ATOM      6  N   UNL     1      44.448   5.623  10.934  0.00  0.00    +0.000 NA
ATOM      7  C   UNL     1      44.617   6.866  11.453  0.00  0.00    +0.000 A 
ATOM      8  H   UNL     1      45.612   2.663  11.363  0.00  0.00    +0.000 HD
ENDROOT
BRANCH   1  10
ATOM      9  N   UNL     1      46.580   8.798  13.893  0.00  0.00    +0.000 N 
ATOM     10  C   UNL     1      45.616   8.550  12.955  0.00  0.00    +0.000 C 
ATOM     11  O   UNL     1      44.964   9.456  12.458  0.00  0.00    +0.000 OA
ATOM     12  H   UNL     1      46.776   9.772  14.083  0.00  0.00    +0.000 HD
ATOM     13  H   UNL     1      47.298   8.127  14.121  0.00  0.00    +0.000 HD
ENDBRANCH   1  10
BRANCH   5  14
ATOM     14  C   UNL     1      44.565   3.203   9.647  0.00  0.00    +0.000 C 
BRANCH  14  15
ATOM     15  C   UNL     1      45.100   1.885   9.063  0.00  0.00    +0.000 C 
BRANCH  15  16
ATOM     16  C   UNL     1      46.057   2.089   7.927  0.00  0.00    +0.000 A 
ATOM     17  C   UNL     1      46.056   3.230   7.146  0.00  0.00    +0.000 A 
ATOM     18  N   UNL     1      46.878   3.421   6.100  0.00  0.00    +0.000 NA
ATOM     19  C   UNL     1      47.719   2.413   5.832  0.00  0.00    +0.000 A 
ATOM     20  N   UNL     1      47.829   1.267   6.519  0.00  0.00    +0.000 NA
ATOM     21  C   UNL     1      46.986   1.136   7.563  0.00  0.00    +0.000 A 
ENDBRANCH  15  16
ENDBRANCH  14  15
ENDBRANCH   5  14
TORSDOF 4
ENDMDL
MODEL 4
REMARK VINA RESULT:    -6.086      3.587      5.132
REMARK INTER + INTRA:          -7.985
REMARK INTER:                  -7.737
REMARK INTRA:                  -0.248
REMARK UNBOUND:                -0.476
REMARK  Name = 
REMARK  4 active torsions:
REMARK  status: ('A' for Active; 'I' for Inactive)
REMARK    1  A    between atoms: C_2  and  C_4
REMARK    2  A    between atoms: N_8  and  C_9
REMARK    3  A    between atoms: C_9  and  C_10
REMARK    4  A    between atoms: C_10  and  C_11
REMARK                            x       y       z     vdW  Elec       q    Type
REMARK                         _______ _______ _______ _____ _____    ______ ____
ROOT
ATOM      1  C   UNL     1      44.974   3.967  10.763  0.00  0.00    +0.000 A 
ATOM      2  C   UNL     1      45.467   5.254  10.950  0.00  0.00    +0.000 A 
ATOM      3  C   UNL     1      45.963   5.612  12.208  0.00  0.00    +0.000 A 
ATOM      4  C   UNL     1      46.002   4.666  13.232  0.00  0.00    +0.000 A 
ATOM      5  N   UNL     1      46.483   5.057  14.491  0.00  0.00    +0.000 N 
ATOM      6  N   UNL     1      45.509   3.422  13.058  0.00  0.00    +0.000 NA
ATOM      7  C   UNL     1      44.981   3.107  11.848  0.00  0.00    +0.000 A 
ATOM      8  H   UNL     1      47.112   5.845  14.421  0.00  0.00    +0.000 HD
ENDROOT
BRANCH   1  10
ATOM      9  N   UNL     1      44.042   4.441   8.574  0.00  0.00    +0.000 N 
ATOM     10  C   UNL     1      44.445   3.488   9.469  0.00  0.00    +0.000 C 
ATOM     11  O   UNL     1      44.417   2.299   9.189  0.00  0.00    +0.000 OA
ATOM     12  H   UNL     1      43.805   4.109   7.649  0.00  0.00    +0.000 HD
ATOM     13  H   UNL     1      44.294   5.413   8.669  0.00  0.00    +0.000 HD
ENDBRANCH   1  10
BRANCH   5  14
ATOM     14  C   UNL     1      47.037   3.949  15.275  0.00  0.00    +0.000 C 
BRANCH  14  15
ATOM     15  C   UNL     1      47.726   4.485  16.541  0.00  0.00    +0.000 C 
BRANCH  15  16
ATOM     16  C   UNL     1      48.973   3.732  16.896  0.00  0.00    +0.000 A 
ATOM     17  C   UNL     1      50.046   4.325  17.536  0.00  0.00    +0.000 A 
ATOM     18  N   UNL     1      51.188   3.681  17.832  0.00  0.00    +0.000 NA
ATOM     19  C   UNL     1      51.246   2.397  17.453  0.00  0.00    +0.000 A 
ATOM     20  N   UNL     1      50.272   1.706  16.843  0.00  0.00    +0.000 NA
ATOM     21  C   UNL     1      49.147   2.400  16.580  0.00  0.00    +0.000 A 
ENDBRANCH  15  16
ENDBRANCH  14  15
ENDBRANCH   5  14
TORSDOF 4
ENDMDL
MODEL 5
REMARK VINA RESULT:    -5.939      3.322      6.777
REMARK INTER + INTRA:          -7.804
REMARK INTER:                  -7.551
REMARK INTRA:                  -0.253
REMARK UNBOUND:                -0.476
REMARK  Name = 
REMARK  4 active torsions:
REMARK  status: ('A' for Active; 'I' for Inactive)
REMARK    1  A    between atoms: C_2  and  C_4
REMARK    2  A    between atoms: N_8  and  C_9
REMARK    3  A    between atoms: C_9  and  C_10
REMARK    4  A    between atoms: C_10  and  C_11
REMARK                            x       y       z     vdW  Elec       q    Type
REMARK                         _______ _______ _______ _____ _____    ______ ____
ROOT
ATOM      1  C   UNL     1      47.835   5.154  15.476  0.00  0.00    +0.000 A 
ATOM      2  C   UNL     1      47.838   6.196  14.555  0.00  0.00    +0.000 A 
ATOM      3  C   UNL     1      47.128   6.044  13.360  0.00  0.00    +0.000 A 
ATOM      4  C   UNL     1      46.392   4.880  13.134  0.00  0.00    +0.000 A 
ATOM      5  N   UNL     1      45.708   4.743  11.918  0.00  0.00    +0.000 N 
ATOM      6  N   UNL     1      46.402   3.861  14.019  0.00  0.00    +0.000 NA
ATOM      7  C   UNL     1      47.140   4.002  15.149  0.00  0.00    +0.000 A 
ATOM      8  H   UNL     1      45.489   5.642  11.510  0.00  0.00    +0.000 HD
ENDROOT
BRANCH   1  10
ATOM      9  N   UNL     1      47.781   5.510  17.875  0.00  0.00    +0.000 N 
ATOM     10  C   UNL     1      48.540   5.224  16.774  0.00  0.00    +0.000 C 
ATOM     11  O   UNL     1      49.735   4.985  16.868  0.00  0.00    +0.000 OA
ATOM     12  H   UNL     1      48.247   5.427  18.769  0.00  0.00    +0.000 HD
ATOM     13  H   UNL     1      46.774   5.451  17.868  0.00  0.00    +0.000 HD
ENDBRANCH   1  10
BRANCH   5  14
ATOM     14  C   UNL     1      44.547   3.852  11.997  0.00  0.00    +0.000 C 
BRANCH  14  15
ATOM     15  C   UNL     1      43.802   3.826  10.653  0.00  0.00    +0.000 C 
BRANCH  15  16
ATOM     16  C   UNL     1      44.676   3.424   9.502  0.00  0.00    +0.000 A 
ATOM     17  C   UNL     1      45.112   2.126   9.315  0.00  0.00    +0.000 A 
ATOM     18  N   UNL     1      45.926   1.749   8.313  0.00  0.00    +0.000 NA
ATOM     19  C   UNL     1      46.317   2.726   7.484  0.00  0.00    +0.000 A 
ATOM     20  N   UNL     1      45.953   4.014   7.549  0.00  0.00    +0.000 NA
ATOM     21  C   UNL     1      45.129   4.332   8.567  0.00  0.00    +0.000 A 
ENDBRANCH  15  16
ENDBRANCH  14  15
ENDBRANCH   5  14
TORSDOF 4
ENDMDL
MODEL 6
REMARK VINA RESULT:    -5.823      3.216      5.356
REMARK INTER + INTRA:          -7.661
REMARK INTER:                  -7.274
REMARK INTRA:                  -0.386
REMARK UNBOUND:                -0.476
REMARK  Name = 
REMARK  4 active torsions:
REMARK  status: ('A' for Active; 'I' for Inactive)
REMARK    1  A    between atoms: C_2  and  C_4
REMARK    2  A    between atoms: N_8  and  C_9
REMARK    3  A    between atoms: C_9  and  C_10
REMARK    4  A    between atoms: C_10  and  C_11
REMARK                            x       y       z     vdW  Elec       q    Type
REMARK                         _______ _______ _______ _____ _____    ______ ____
ROOT
ATOM      1  C   UNL     1      44.659   5.114  11.446  0.00  0.00    +0.000 A 
ATOM      2  C   UNL     1      44.704   6.503  11.406  0.00  0.00    +0.000 A 
ATOM      3  C   UNL     1      45.569   7.177  12.275  0.00  0.00    +0.000 A 
ATOM      4  C   UNL     1      46.402   6.449  13.126  0.00  0.00    +0.000 A 
ATOM      5  N   UNL     1      47.243   7.149  14.003  0.00  0.00    +0.000 N 
ATOM      6  N   UNL     1      46.348   5.102  13.178  0.00  0.00    +0.000 NA
ATOM      7  C   UNL     1      45.464   4.466  12.367  0.00  0.00    +0.000 A 
ATOM      8  H   UNL     1      47.452   8.077  13.659  0.00  0.00    +0.000 HD
ENDROOT
BRANCH   1  10
ATOM      9  N   UNL     1      43.891   4.552   9.215  0.00  0.00    +0.000 N 
ATOM     10  C   UNL     1      43.792   4.311  10.558  0.00  0.00    +0.000 C 
ATOM     11  O   UNL     1      43.062   3.435  10.997  0.00  0.00    +0.000 OA
ATOM     12  H   UNL     1      43.392   3.911   8.612  0.00  0.00    +0.000 HD
ATOM     13  H   UNL     1      44.658   5.068   8.813  0.00  0.00    +0.000 HD
ENDBRANCH   1  10
BRANCH   5  14
ATOM     14  C   UNL     1      48.441   6.398  14.390  0.00  0.00    +0.000 C 
BRANCH  14  15
ATOM     15  C   UNL     1      48.660   6.487  15.909  0.00  0.00    +0.000 C 
BRANCH  15  16
ATOM     16  C   UNL     1      48.369   5.201  16.623  0.00  0.00    +0.000 A 
ATOM     17  C   UNL     1      49.300   4.563  17.422  0.00  0.00    +0.000 A 
ATOM     18  N   UNL     1      49.075   3.392  18.042  0.00  0.00    +0.000 NA
ATOM     19  C   UNL     1      47.870   2.846  17.832  0.00  0.00    +0.000 A 
ATOM     20  N   UNL     1      46.880   3.368  17.095  0.00  0.00    +0.000 NA
ATOM     21  C   UNL     1      47.158   4.548  16.505  0.00  0.00    +0.000 A 
ENDBRANCH  15  16
ENDBRANCH  14  15
ENDBRANCH   5  14
TORSDOF 4
ENDMDL
MODEL 7
REMARK VINA RESULT:    -5.438      4.994      8.247
REMARK INTER + INTRA:          -7.186
REMARK INTER:                  -6.952
REMARK INTRA:                  -0.234
REMARK UNBOUND:                -0.476
REMARK  Name = 
REMARK  4 active torsions:
REMARK  status: ('A' for Active; 'I' for Inactive)
REMARK    1  A    between atoms: C_2  and  C_4
REMARK    2  A    between atoms: N_8  and  C_9
REMARK    3  A    between atoms: C_9  and  C_10
REMARK    4  A    between atoms: C_10  and  C_11
REMARK                            x       y       z     vdW  Elec       q    Type
REMARK                         _______ _______ _______ _____ _____    ______ ____
ROOT
ATOM      1  C   UNL     1      49.771   4.287  18.074  0.00  0.00    +0.000 A 
ATOM      2  C   UNL     1      48.729   3.389  18.279  0.00  0.00    +0.000 A 
ATOM      3  C   UNL     1      47.634   3.414  17.409  0.00  0.00    +0.000 A 
ATOM      4  C   UNL     1      47.627   4.297  16.329  0.00  0.00    +0.000 A 
ATOM      5  N   UNL     1      46.507   4.318  15.485  0.00  0.00    +0.000 N 
ATOM      6  N   UNL     1      48.629   5.181  16.138  0.00  0.00    +0.000 NA
ATOM      7  C   UNL     1      49.658   5.181  17.022  0.00  0.00    +0.000 A 
ATOM      8  H   UNL     1      46.010   3.437  15.503  0.00  0.00    +0.000 HD
ENDROOT
BRANCH   1  10
ATOM      9  N   UNL     1      51.907   3.345  18.730  0.00  0.00    +0.000 N 
ATOM     10  C   UNL     1      50.978   4.329  18.926  0.00  0.00    +0.000 C 
ATOM     11  O   UNL     1      51.164   5.230  19.731  0.00  0.00    +0.000 OA
ATOM     12  H   UNL     1      52.783   3.456  19.224  0.00  0.00    +0.000 HD
ATOM     13  H   UNL     1      51.907   2.755  17.912  0.00  0.00    +0.000 HD
ENDBRANCH   1  10
BRANCH   5  14
ATOM     14  C   UNL     1      46.806   4.780  14.126  0.00  0.00    +0.000 C 
BRANCH  14  15
ATOM     15  C   UNL     1      46.182   3.830  13.091  0.00  0.00    +0.000 C 
BRANCH  15  16
ATOM     16  C   UNL     1      44.895   4.345  12.519  0.00  0.00    +0.000 A 
ATOM     17  C   UNL     1      44.751   4.677  11.184  0.00  0.00    +0.000 A 
ATOM     18  N   UNL     1      43.620   5.175  10.656  0.00  0.00    +0.000 NA
ATOM     19  C   UNL     1      42.607   5.352  11.515  0.00  0.00    +0.000 A 
ATOM     20  N   UNL     1      42.615   5.057  12.823  0.00  0.00    +0.000 NA
ATOM     21  C   UNL     1      43.773   4.552  13.295  0.00  0.00    +0.000 A 
ENDBRANCH  15  16
ENDBRANCH  14  15
ENDBRANCH   5  14
TORSDOF 4
ENDMDL
MODEL 8
REMARK VINA RESULT:    -4.946      4.154      7.598
REMARK INTER + INTRA:          -6.579
REMARK INTER:                  -6.237
REMARK INTRA:                  -0.342
REMARK UNBOUND:                -0.476
REMARK  Name = 
REMARK  4 active torsions:
REMARK  status: ('A' for Active; 'I' for Inactive)
REMARK    1  A    between atoms: C_2  and  C_4
REMARK    2  A    between atoms: N_8  and  C_9
REMARK    3  A    between atoms: C_9  and  C_10
REMARK    4  A    between atoms: C_10  and  C_11
REMARK                            x       y       z     vdW  Elec       q    Type
REMARK                         _______ _______ _______ _____ _____    ______ ____
ROOT
ATOM      1  C   UNL     1      49.354   5.849  16.617  0.00  0.00    +0.000 A 
ATOM      2  C   UNL     1      49.943   6.876  15.888  0.00  0.00    +0.000 A 
ATOM      3  C   UNL     1      49.399   7.223  14.647  0.00  0.00    +0.000 A 
ATOM      4  C   UNL     1      48.253   6.572  14.187  0.00  0.00    +0.000 A 
ATOM      5  N   UNL     1      47.741   6.922  12.929  0.00  0.00    +0.000 N 
ATOM      6  N   UNL     1      47.690   5.563  14.885  0.00  0.00    +0.000 NA
ATOM      7  C   UNL     1      48.263   5.203  16.061  0.00  0.00    +0.000 A 
ATOM      8  H   UNL     1      48.004   7.863  12.668  0.00  0.00    +0.000 HD
ENDROOT
BRANCH   1  10
ATOM      9  N   UNL     1      50.831   4.474  17.963  0.00  0.00    +0.000 N 
ATOM     10  C   UNL     1      49.844   5.421  17.945  0.00  0.00    +0.000 C 
ATOM     11  O   UNL     1      49.425   5.926  18.975  0.00  0.00    +0.000 OA
ATOM     12  H   UNL     1      51.247   4.285  18.866  0.00  0.00    +0.000 HD
ATOM     13  H   UNL     1      51.370   4.238  17.144  0.00  0.00    +0.000 HD
ENDBRANCH   1  10
BRANCH   5  14
ATOM     14  C   UNL     1      46.303   6.670  12.791  0.00  0.00    +0.000 C 
BRANCH  14  15
ATOM     15  C   UNL     1      46.007   5.993  11.443  0.00  0.00    +0.000 C 
BRANCH  15  16
ATOM     16  C   UNL     1      45.080   4.821  11.563  0.00  0.00    +0.000 A 
ATOM     17  C   UNL     1      44.571   4.156  10.463  0.00  0.00    +0.000 A 
ATOM     18  N   UNL     1      43.710   3.127  10.544  0.00  0.00    +0.000 NA
ATOM     19  C   UNL     1      43.345   2.772  11.783  0.00  0.00    +0.000 A 
ATOM     20  N   UNL     1      43.777   3.324  12.926  0.00  0.00    +0.000 NA
ATOM     21  C   UNL     1      44.646   4.344  12.783  0.00  0.00    +0.000 A 
ENDBRANCH  15  16
ENDBRANCH  14  15
ENDBRANCH   5  14
TORSDOF 4
ENDMDL
