MODEL 1
REMARK VINA RESULT:    -8.918      0.000      0.000
REMARK INTER + INTRA:         -14.062
REMARK INTER:                 -13.088
REMARK INTRA:                  -0.974
REMARK UNBOUND:                -0.974
REMARK  Name = 
REMARK  9 active torsions:
REMARK  status: ('A' for Active; 'I' for Inactive)
REMARK    1  A    between atoms: C_1  and  N_2
REMARK    2  A    between atoms: C_4  and  O_5
REMARK    3  A    between atoms: O_5  and  C_6
REMARK    4  A    between atoms: C_8  and  C_9
REMARK    5  A    between atoms: C_9  and  C_10
REMARK    6  A    between atoms: C_10  and  N_11
REMARK    7  A    between atoms: N_11  and  C_12
REMARK    8  A    between atoms: C_15  and  C_16
REMARK    9  A    between atoms: C_22  and  C_23
REMARK                            x       y       z     vdW  Elec       q    Type
REMARK                         _______ _______ _______ _____ _____    ______ ____
ROOT
ATOM      1  C   UNL     1      46.842   4.501  13.854  0.00  0.00    +0.000 A 
ATOM      2  C   UNL     1      45.504   4.390  13.475  0.00  0.00    +0.000 A 
ATOM      3  C   UNL     1      44.904   5.358  12.654  0.00  0.00    +0.000 A 
ATOM      4  C   UNL     1      45.694   6.429  12.207  0.00  0.00    +0.000 A 
ATOM      5  C   UNL     1      47.034   6.570  12.593  0.00  0.00    +0.000 A 
ATOM      6  C   UNL     1      47.605   5.587  13.410  0.00  0.00    +0.000 A 
ENDROOT
BRANCH   5   7
ATOM      7  C   UNL     1      47.820   7.793  12.183  0.00  0.00    +0.000 C 
ATOM      8  F   UNL     1      48.614   8.278  13.182  0.00  0.00    +0.000 F 
ATOM      9  F   UNL     1      48.658   7.548  11.139  0.00  0.00    +0.000 F 
ATOM     10  F   UNL     1      47.029   8.832  11.803  0.00  0.00    +0.000 F 
ENDBRANCH   5   7
BRANCH   1  11
ATOM     11  O   UNL     1      47.479   3.639  14.711  0.00  0.00    +0.000 OA
BRANCH  11  15
ATOM     12  C   UNL     1      49.963   4.053  18.316  0.00  0.00    +0.000 C 
ATOM     13  N   UNL     1      49.357   3.905  17.000  0.00  0.00    +0.000 NA
ATOM     14  C   UNL     1      48.363   4.973  16.749  0.00  0.00    +0.000 C 
ATOM     15  C   UNL     1      47.422   3.896  16.139  0.00  0.00    +0.000 C 
ATOM     16  C   UNL     1      48.252   2.918  17.018  0.00  0.00    +0.000 C 
ENDBRANCH  11  15
ENDBRANCH   1  11
BRANCH   3  17
ATOM     17  C   UNL     1      43.422   5.234  12.335  0.00  0.00    +0.000 C 
BRANCH  17  18
ATOM     18  C   UNL     1      43.123   4.388  11.096  0.00  0.00    +0.000 C 
BRANCH  18  19
ATOM     19  N   UNL     1      43.740   4.908   9.874  0.00  0.00    +0.000 N 
ATOM     20  H   UNL     1      44.236   5.785  10.033  0.00  0.00    +0.000 HD
BRANCH  19  21
ATOM     21  C   UNL     1      44.547   3.982   9.177  0.00  0.00    +0.000 A 
ATOM     22  C   UNL     1      45.544   4.367   8.270  0.00  0.00    +0.000 A 
ATOM     23  C   UNL     1      46.362   3.423   7.656  0.00  0.00    +0.000 A 
ATOM     24  C   UNL     1      46.194   2.094   7.992  0.00  0.00    +0.000 A 
ATOM     25  N   UNL     1      45.268   1.654   8.897  0.00  0.00    +0.000 NA
ATOM     26  C   UNL     1      44.492   2.614   9.467  0.00  0.00    +0.000 A 
BRANCH  24  27
ATOM     27  C   UNL     1      47.078   1.064   7.366  0.00  0.00    +0.000 C 
ATOM     28  N   UNL     1      46.804  -0.230   7.713  0.00  0.00    +0.000 N 
ATOM     29  O   UNL     1      47.989   1.354   6.601  0.00  0.00    +0.000 OA
ATOM     30  H   UNL     1      46.054  -0.420   8.369  0.00  0.00    +0.000 HD
ATOM     31  H   UNL     1      47.381  -0.974   7.351  0.00  0.00    +0.000 HD
ENDBRANCH  24  27
ENDBRANCH  19  21
ENDBRANCH  18  19
ENDBRANCH  17  18
ENDBRANCH   3  17
TORSDOF 8
ENDMDL
MODEL 2
REMARK VINA RESULT:    -7.828      1.845      2.373
REMARK INTER + INTRA:         -12.462
REMARK INTER:                 -11.949
REMARK INTRA:                  -0.513
REMARK UNBOUND:                -0.974
REMARK  Name = 
REMARK  9 active torsions:
REMARK  status: ('A' for Active; 'I' for Inactive)
REMARK    1  A    between atoms: C_1  and  N_2
REMARK    2  A    between atoms: C_4  and  O_5
REMARK    3  A    between atoms: O_5  and  C_6
REMARK    4  A    between atoms: C_8  and  C_9
REMARK    5  A    between atoms: C_9  and  C_10
REMARK    6  A    between atoms: C_10  and  N_11
REMARK    7  A    between atoms: N_11  and  C_12
REMARK    8  A    between atoms: C_15  and  C_16
REMARK    9  A    between atoms: C_22  and  C_23
REMARK                            x       y       z     vdW  Elec       q    Type
REMARK                         _______ _______ _______ _____ _____    ______ ____
ROOT
ATOM      1  C   UNL     1      47.358   6.306  13.061  0.00  0.00    +0.000 A 
ATOM      2  C   UNL     1      46.485   5.220  13.004  0.00  0.00    +0.000 A 
ATOM      3  C   UNL     1      45.168   5.378  12.543  0.00  0.00    +0.000 A 
ATOM      4  C   UNL     1      44.761   6.654  12.122  0.00  0.00    +0.000 A 
ATOM      5  C   UNL     1      45.617   7.762  12.190  0.00  0.00    +0.000 A 
ATOM      6  C   UNL     1      46.926   7.572  12.652  0.00  0.00    +0.000 A 
ENDROOT
BRANCH   5   7
ATOM      7  C   UNL     1      45.110   9.138  11.834  0.00  0.00    +0.000 C 
ATOM      8  F   UNL     1      44.180   9.124  10.834  0.00  0.00    +0.000 F 
ATOM      9  F   UNL     1      44.505   9.759  12.884  0.00  0.00    +0.000 F 
ATOM     10  F   UNL     1      46.093   9.976  11.410  0.00  0.00    +0.000 F 
ENDBRANCH   5   7
BRANCH   1  11
ATOM     11  O   UNL     1      48.634   6.249  13.565  0.00  0.00    +0.000 OA
BRANCH  11  15
ATOM     12  C   UNL     1      50.735   6.447  17.423  0.00  0.00    +0.000 C 
ATOM     13  N   UNL     1      50.127   6.149  16.133  0.00  0.00    +0.000 NA
ATOM     14  C   UNL     1      50.481   7.176  15.128  0.00  0.00    +0.000 C 
ATOM     15  C   UNL     1      49.005   7.150  14.642  0.00  0.00    +0.000 C 
ATOM     16  C   UNL     1      48.721   6.616  16.075  0.00  0.00    +0.000 C 
ENDBRANCH  11  15
ENDBRANCH   1  11
BRANCH   3  17
ATOM     17  C   UNL     1      44.230   4.181  12.577  0.00  0.00    +0.000 C 
BRANCH  17  18
ATOM     18  C   UNL     1      43.385   4.020  11.311  0.00  0.00    +0.000 C 
BRANCH  18  19
ATOM     19  N   UNL     1      43.935   4.723  10.152  0.00  0.00    +0.000 N 
ATOM     20  H   UNL     1      44.410   5.588  10.411  0.00  0.00    +0.000 HD
BRANCH  19  21
ATOM     21  C   UNL     1      44.741   3.931   9.304  0.00  0.00    +0.000 A 
ATOM     22  C   UNL     1      45.661   4.473   8.397  0.00  0.00    +0.000 A 
ATOM     23  C   UNL     1      46.483   3.653   7.630  0.00  0.00    +0.000 A 
ATOM     24  C   UNL     1      46.399   2.286   7.811  0.00  0.00    +0.000 A 
ATOM     25  N   UNL     1      45.551   1.694   8.706  0.00  0.00    +0.000 NA
ATOM     26  C   UNL     1      44.767   2.537   9.429  0.00  0.00    +0.000 A 
BRANCH  24  27
ATOM     27  C   UNL     1      47.290   1.386   7.017  0.00  0.00    +0.000 C 
ATOM     28  N   UNL     1      48.344   2.003   6.403  0.00  0.00    +0.000 N 
ATOM     29  O   UNL     1      47.089   0.183   6.915  0.00  0.00    +0.000 OA
ATOM     30  H   UNL     1      48.457   3.008   6.498  0.00  0.00    +0.000 HD
ATOM     31  H   UNL     1      48.969   1.462   5.825  0.00  0.00    +0.000 HD
ENDBRANCH  24  27
ENDBRANCH  19  21
ENDBRANCH  18  19
ENDBRANCH  17  18
ENDBRANCH   3  17
TORSDOF 8
ENDMDL
MODEL 3
REMARK VINA RESULT:    -7.780      2.902      4.347
REMARK INTER + INTRA:         -12.392
REMARK INTER:                 -11.451
REMARK INTRA:                  -0.941
REMARK UNBOUND:                -0.974
REMARK  Name = 
REMARK  9 active torsions:
REMARK  status: ('A' for Active; 'I' for Inactive)
REMARK    1  A    between atoms: C_1  and  N_2
REMARK    2  A    between atoms: C_4  and  O_5
REMARK    3  A    between atoms: O_5  and  C_6
REMARK    4  A    between atoms: C_8  and  C_9
REMARK    5  A    between atoms: C_9  and  C_10
REMARK    6  A    between atoms: C_10  and  N_11
REMARK    7  A    between atoms: N_11  and  C_12
REMARK    8  A    between atoms: C_15  and  C_16
REMARK    9  A    between atoms: C_22  and  C_23
REMARK                            x       y       z     vdW  Elec       q    Type
REMARK                         _______ _______ _______ _____ _____    ______ ____
ROOT
ATOM      1  C   UNL     1      47.495   6.708  13.625  0.00  0.00    +0.000 A 
ATOM      2  C   UNL     1      46.357   6.374  12.891  0.00  0.00    +0.000 A 
ATOM      3  C   UNL     1      45.613   5.224  13.200  0.00  0.00    +0.000 A 
ATOM      4  C   UNL     1      46.034   4.431  14.280  0.00  0.00    +0.000 A 
ATOM      5  C   UNL     1      47.187   4.738  15.016  0.00  0.00    +0.000 A 
ATOM      6  C   UNL     1      47.907   5.894  14.686  0.00  0.00    +0.000 A 
ENDROOT
BRANCH   5   7
ATOM      7  C   UNL     1      47.672   3.803  16.097  0.00  0.00    +0.000 C 
ATOM      8  F   UNL     1      48.029   2.574  15.621  0.00  0.00    +0.000 F 
ATOM      9  F   UNL     1      48.773   4.277  16.741  0.00  0.00    +0.000 F 
ATOM     10  F   UNL     1      46.739   3.570  17.058  0.00  0.00    +0.000 F 
ENDBRANCH   5   7
BRANCH   1  11
ATOM     11  O   UNL     1      48.316   7.772  13.341  0.00  0.00    +0.000 OA
BRANCH  11  15
ATOM     12  C   UNL     1      51.243   9.898  10.843  0.00  0.00    +0.000 C 
ATOM     13  N   UNL     1      50.410   9.275  11.862  0.00  0.00    +0.000 NA
ATOM     14  C   UNL     1      50.221   7.833  11.587  0.00  0.00    +0.000 C 
ATOM     15  C   UNL     1      48.723   7.999  11.966  0.00  0.00    +0.000 C 
ATOM     16  C   UNL     1      48.968   9.488  11.590  0.00  0.00    +0.000 C 
ENDBRANCH  11  15
ENDBRANCH   1  11
BRANCH   3  17
ATOM     17  C   UNL     1      44.427   4.859  12.320  0.00  0.00    +0.000 C 
BRANCH  17  18
ATOM     18  C   UNL     1      44.401   5.593  10.978  0.00  0.00    +0.000 C 
BRANCH  18  19
ATOM     19  N   UNL     1      43.746   4.833   9.912  0.00  0.00    +0.000 N 
ATOM     20  H   UNL     1      43.181   5.426   9.304  0.00  0.00    +0.000 HD
BRANCH  19  21
ATOM     21  C   UNL     1      44.606   4.002   9.161  0.00  0.00    +0.000 A 
ATOM     22  C   UNL     1      45.577   4.500   8.283  0.00  0.00    +0.000 A 
ATOM     23  C   UNL     1      46.449   3.645   7.614  0.00  0.00    +0.000 A 
ATOM     24  C   UNL     1      46.360   2.290   7.867  0.00  0.00    +0.000 A 
ATOM     25  N   UNL     1      45.461   1.741   8.739  0.00  0.00    +0.000 NA
ATOM     26  C   UNL     1      44.631   2.617   9.365  0.00  0.00    +0.000 A 
BRANCH  24  27
ATOM     27  C   UNL     1      47.302   1.354   7.180  0.00  0.00    +0.000 C 
ATOM     28  N   UNL     1      48.301   1.954   6.464  0.00  0.00    +0.000 N 
ATOM     29  O   UNL     1      47.187   0.138   7.245  0.00  0.00    +0.000 OA
ATOM     30  H   UNL     1      48.342   2.967   6.420  0.00  0.00    +0.000 HD
ATOM     31  H   UNL     1      48.955   1.384   5.949  0.00  0.00    +0.000 HD
ENDBRANCH  24  27
ENDBRANCH  19  21
ENDBRANCH  18  19
ENDBRANCH  17  18
ENDBRANCH   3  17
TORSDOF 8
ENDMDL
MODEL 4
REMARK VINA RESULT:    -7.154      3.313      4.056
REMARK INTER + INTRA:         -11.474
REMARK INTER:                 -10.507
REMARK INTRA:                  -0.967
REMARK UNBOUND:                -0.974
REMARK  Name = 
REMARK  9 active torsions:
REMARK  status: ('A' for Active; 'I' for Inactive)
REMARK    1  A    between atoms: C_1  and  N_2
REMARK    2  A    between atoms: C_4  and  O_5
REMARK    3  A    between atoms: O_5  and  C_6
REMARK    4  A    between atoms: C_8  and  C_9
REMARK    5  A    between atoms: C_9  and  C_10
REMARK    6  A    between atoms: C_10  and  N_11
REMARK    7  A    between atoms: N_11  and  C_12
REMARK    8  A    between atoms: C_15  and  C_16
REMARK    9  A    between atoms: C_22  and  C_23
REMARK                            x       y       z     vdW  Elec       q    Type
REMARK                         _______ _______ _______ _____ _____    ______ ____
ROOT
ATOM      1  C   UNL     1      46.510   7.191  12.492  0.00  0.00    +0.000 A 
ATOM      2  C   UNL     1      45.836   5.992  12.723  0.00  0.00    +0.000 A 
ATOM      3  C   UNL     1      44.483   5.847  12.375  0.00  0.00    +0.000 A 
ATOM      4  C   UNL     1      43.834   6.934  11.767  0.00  0.00    +0.000 A 
ATOM      5  C   UNL     1      44.488   8.154  11.545  0.00  0.00    +0.000 A 
ATOM      6  C   UNL     1      45.838   8.267  11.901  0.00  0.00    +0.000 A 
ENDROOT
BRANCH   5   7
ATOM      7  C   UNL     1      43.728   9.336  10.993  0.00  0.00    +0.000 C 
ATOM      8  F   UNL     1      44.238   9.797   9.813  0.00  0.00    +0.000 F 
ATOM      9  F   UNL     1      42.424   9.041  10.735  0.00  0.00    +0.000 F 
ATOM     10  F   UNL     1      43.719  10.404  11.833  0.00  0.00    +0.000 F 
ENDBRANCH   5   7
BRANCH   1  11
ATOM     11  O   UNL     1      47.807   7.437  12.869  0.00  0.00    +0.000 OA
BRANCH  11  15
ATOM     12  C   UNL     1      51.635   9.586  12.628  0.00  0.00    +0.000 C 
ATOM     13  N   UNL     1      50.439   8.815  12.938  0.00  0.00    +0.000 NA
ATOM     14  C   UNL     1      50.186   7.786  11.905  0.00  0.00    +0.000 C 
ATOM     15  C   UNL     1      48.679   8.160  11.961  0.00  0.00    +0.000 C 
ATOM     16  C   UNL     1      49.210   9.518  12.500  0.00  0.00    +0.000 C 
ENDBRANCH  11  15
ENDBRANCH   1  11
BRANCH   3  17
ATOM     17  C   UNL     1      43.771   4.548  12.721  0.00  0.00    +0.000 C 
BRANCH  17  18
ATOM     18  C   UNL     1      44.111   3.386  11.785  0.00  0.00    +0.000 C 
BRANCH  18  19
ATOM     19  N   UNL     1      43.738   3.635  10.391  0.00  0.00    +0.000 N 
ATOM     20  H   UNL     1      43.394   4.583  10.245  0.00  0.00    +0.000 HD
BRANCH  19  21
ATOM     21  C   UNL     1      44.729   3.297   9.443  0.00  0.00    +0.000 A 
ATOM     22  C   UNL     1      45.159   1.983   9.221  0.00  0.00    +0.000 A 
ATOM     23  C   UNL     1      46.090   1.688   8.228  0.00  0.00    +0.000 A 
ATOM     24  C   UNL     1      46.554   2.722   7.438  0.00  0.00    +0.000 A 
ATOM     25  N   UNL     1      46.148   4.020   7.577  0.00  0.00    +0.000 NA
ATOM     26  C   UNL     1      45.241   4.257   8.561  0.00  0.00    +0.000 A 
BRANCH  24  27
ATOM     27  C   UNL     1      47.535   2.426   6.349  0.00  0.00    +0.000 C 
ATOM     28  N   UNL     1      47.470   3.256   5.264  0.00  0.00    +0.000 N 
ATOM     29  O   UNL     1      48.335   1.503   6.416  0.00  0.00    +0.000 OA
ATOM     30  H   UNL     1      46.773   3.994   5.244  0.00  0.00    +0.000 HD
ATOM     31  H   UNL     1      48.082   3.095   4.478  0.00  0.00    +0.000 HD
ENDBRANCH  24  27
ENDBRANCH  19  21
ENDBRANCH  18  19
ENDBRANCH  17  18
ENDBRANCH   3  17
TORSDOF 8
ENDMDL
MODEL 5
REMARK VINA RESULT:    -6.618      4.222      5.991
REMARK INTER + INTRA:         -10.687
REMARK INTER:                  -9.658
REMARK INTRA:                  -1.029
REMARK UNBOUND:                -0.974
REMARK  Name = 
REMARK  9 active torsions:
REMARK  status: ('A' for Active; 'I' for Inactive)
REMARK    1  A    between atoms: C_1  and  N_2
REMARK    2  A    between atoms: C_4  and  O_5
REMARK    3  A    between atoms: O_5  and  C_6
REMARK    4  A    between atoms: C_8  and  C_9
REMARK    5  A    between atoms: C_9  and  C_10
REMARK    6  A    between atoms: C_10  and  N_11
REMARK    7  A    between atoms: N_11  and  C_12
REMARK    8  A    between atoms: C_15  and  C_16
REMARK    9  A    between atoms: C_22  and  C_23
REMARK                            x       y       z     vdW  Elec       q    Type
REMARK                         _______ _______ _______ _____ _____    ______ ____
ROOT
ATOM      1  C   UNL     1      46.365   4.307  13.485  0.00  0.00    +0.000 A 
ATOM      2  C   UNL     1      46.153   5.682  13.380  0.00  0.00    +0.000 A 
ATOM      3  C   UNL     1      45.354   6.212  12.355  0.00  0.00    +0.000 A 
ATOM      4  C   UNL     1      44.756   5.319  11.451  0.00  0.00    +0.000 A 
ATOM      5  C   UNL     1      44.973   3.936  11.527  0.00  0.00    +0.000 A 
ATOM      6  C   UNL     1      45.773   3.437  12.562  0.00  0.00    +0.000 A 
ENDROOT
BRANCH   5   7
ATOM      7  C   UNL     1      44.405   3.017  10.472  0.00  0.00    +0.000 C 
ATOM      8  F   UNL     1      43.811   3.688   9.442  0.00  0.00    +0.000 F 
ATOM      9  F   UNL     1      45.358   2.235   9.895  0.00  0.00    +0.000 F 
ATOM     10  F   UNL     1      43.458   2.171  10.956  0.00  0.00    +0.000 F 
ENDBRANCH   5   7
BRANCH   1  11
ATOM     11  O   UNL     1      47.190   3.718  14.411  0.00  0.00    +0.000 OA
BRANCH  11  15
ATOM     12  C   UNL     1      49.602   4.171  18.059  0.00  0.00    +0.000 C 
ATOM     13  N   UNL     1      49.017   3.955  16.743  0.00  0.00    +0.000 NA
ATOM     14  C   UNL     1      48.245   5.139  16.304  0.00  0.00    +0.000 C 
ATOM     15  C   UNL     1      47.140   4.175  15.789  0.00  0.00    +0.000 C 
ATOM     16  C   UNL     1      47.749   3.193  16.830  0.00  0.00    +0.000 C 
ENDBRANCH  11  15
ENDBRANCH   1  11
BRANCH   3  17
ATOM     17  C   UNL     1      45.219   7.722  12.235  0.00  0.00    +0.000 C 
BRANCH  17  18
ATOM     18  C   UNL     1      46.104   8.503  13.209  0.00  0.00    +0.000 C 
BRANCH  18  19
ATOM     19  N   UNL     1      46.831   9.606  12.579  0.00  0.00    +0.000 N 
ATOM     20  H   UNL     1      46.783  10.465  13.127  0.00  0.00    +0.000 HD
BRANCH  19  21
ATOM     21  C   UNL     1      48.161   9.307  12.210  0.00  0.00    +0.000 A 
ATOM     22  C   UNL     1      48.596   8.012  11.902  0.00  0.00    +0.000 A 
ATOM     23  C   UNL     1      49.900   7.773  11.477  0.00  0.00    +0.000 A 
ATOM     24  C   UNL     1      50.749   8.852  11.329  0.00  0.00    +0.000 A 
ATOM     25  N   UNL     1      50.378  10.145  11.576  0.00  0.00    +0.000 NA
ATOM     26  C   UNL     1      49.096  10.326  11.991  0.00  0.00    +0.000 A 
BRANCH  24  27
ATOM     27  C   UNL     1      52.146   8.624  10.850  0.00  0.00    +0.000 C 
ATOM     28  N   UNL     1      52.642   7.369  11.073  0.00  0.00    +0.000 N 
ATOM     29  O   UNL     1      52.806   9.497  10.302  0.00  0.00    +0.000 OA
ATOM     30  H   UNL     1      52.065   6.685  11.551  0.00  0.00    +0.000 HD
ATOM     31  H   UNL     1      53.590   7.154  10.803  0.00  0.00    +0.000 HD
ENDBRANCH  24  27
ENDBRANCH  19  21
ENDBRANCH  18  19
ENDBRANCH  17  18
ENDBRANCH   3  17
TORSDOF 8
ENDMDL
MODEL 6
REMARK VINA RESULT:    -6.269      3.544      4.589
REMARK INTER + INTRA:         -10.175
REMARK INTER:                  -9.626
REMARK INTRA:                  -0.549
REMARK UNBOUND:                -0.974
REMARK  Name = 
REMARK  9 active torsions:
REMARK  status: ('A' for Active; 'I' for Inactive)
REMARK    1  A    between atoms: C_1  and  N_2
REMARK    2  A    between atoms: C_4  and  O_5
REMARK    3  A    between atoms: O_5  and  C_6
REMARK    4  A    between atoms: C_8  and  C_9
REMARK    5  A    between atoms: C_9  and  C_10
REMARK    6  A    between atoms: C_10  and  N_11
REMARK    7  A    between atoms: N_11  and  C_12
REMARK    8  A    between atoms: C_15  and  C_16
REMARK    9  A    between atoms: C_22  and  C_23
REMARK                            x       y       z     vdW  Elec       q    Type
REMARK                         _______ _______ _______ _____ _____    ______ ____
ROOT
ATOM      1  C   UNL     1      48.603   6.465  15.464  0.00  0.00    +0.000 A 
ATOM      2  C   UNL     1      47.843   6.279  14.309  0.00  0.00    +0.000 A 
ATOM      3  C   UNL     1      47.092   5.108  14.122  0.00  0.00    +0.000 A 
ATOM      4  C   UNL     1      47.110   4.138  15.137  0.00  0.00    +0.000 A 
ATOM      5  C   UNL     1      47.883   4.297  16.296  0.00  0.00    +0.000 A 
ATOM      6  C   UNL     1      48.620   5.477  16.455  0.00  0.00    +0.000 A 
ENDROOT
BRANCH   5   7
ATOM      7  C   UNL     1      47.966   3.185  17.314  0.00  0.00    +0.000 C 
ATOM      8  F   UNL     1      48.702   2.118  16.884  0.00  0.00    +0.000 F 
ATOM      9  F   UNL     1      48.551   3.586  18.476  0.00  0.00    +0.000 F 
ATOM     10  F   UNL     1      46.749   2.682  17.653  0.00  0.00    +0.000 F 
ENDBRANCH   5   7
BRANCH   1  11
ATOM     11  O   UNL     1      49.420   7.545  15.689  0.00  0.00    +0.000 OA
BRANCH  11  15
ATOM     12  C   UNL     1      48.998  11.212  18.079  0.00  0.00    +0.000 C 
ATOM     13  N   UNL     1      49.293   9.923  17.467  0.00  0.00    +0.000 NA
ATOM     14  C   UNL     1      49.737  10.089  16.065  0.00  0.00    +0.000 C 
ATOM     15  C   UNL     1      48.842   8.877  15.682  0.00  0.00    +0.000 C 
ATOM     16  C   UNL     1      48.062   9.263  16.971  0.00  0.00    +0.000 C 
ENDBRANCH  11  15
ENDBRANCH   1  11
BRANCH   3  17
ATOM     17  C   UNL     1      46.344   4.917  12.811  0.00  0.00    +0.000 C 
BRANCH  17  18
ATOM     18  C   UNL     1      44.889   5.388  12.853  0.00  0.00    +0.000 C 
BRANCH  18  19
ATOM     19  N   UNL     1      44.023   4.687  11.904  0.00  0.00    +0.000 N 
ATOM     20  H   UNL     1      43.178   5.215  11.686  0.00  0.00    +0.000 HD
BRANCH  19  21
ATOM     21  C   UNL     1      44.667   4.243  10.728  0.00  0.00    +0.000 A 
ATOM     22  C   UNL     1      44.684   2.902  10.324  0.00  0.00    +0.000 A 
ATOM     23  C   UNL     1      45.272   2.519   9.122  0.00  0.00    +0.000 A 
ATOM     24  C   UNL     1      45.810   3.502   8.314  0.00  0.00    +0.000 A 
ATOM     25  N   UNL     1      45.795   4.833   8.630  0.00  0.00    +0.000 NA
ATOM     26  C   UNL     1      45.211   5.154   9.815  0.00  0.00    +0.000 A 
BRANCH  24  27
ATOM     27  C   UNL     1      46.426   3.118   7.007  0.00  0.00    +0.000 C 
ATOM     28  N   UNL     1      46.799   1.807   6.900  0.00  0.00    +0.000 N 
ATOM     29  O   UNL     1      46.593   3.919   6.097  0.00  0.00    +0.000 OA
ATOM     30  H   UNL     1      46.661   1.185   7.691  0.00  0.00    +0.000 HD
ATOM     31  H   UNL     1      47.249   1.486   6.057  0.00  0.00    +0.000 HD
ENDBRANCH  24  27
ENDBRANCH  19  21
ENDBRANCH  18  19
ENDBRANCH  17  18
ENDBRANCH   3  17
TORSDOF 8
ENDMDL
MODEL 7
REMARK VINA RESULT:    -6.168      4.307      7.382
REMARK INTER + INTRA:         -10.027
REMARK INTER:                  -8.752
REMARK INTRA:                  -1.275
REMARK UNBOUND:                -0.974
REMARK  Name = 
REMARK  9 active torsions:
REMARK  status: ('A' for Active; 'I' for Inactive)
REMARK    1  A    between atoms: C_1  and  N_2
REMARK    2  A    between atoms: C_4  and  O_5
REMARK    3  A    between atoms: O_5  and  C_6
REMARK    4  A    between atoms: C_8  and  C_9
REMARK    5  A    between atoms: C_9  and  C_10
REMARK    6  A    between atoms: C_10  and  N_11
REMARK    7  A    between atoms: N_11  and  C_12
REMARK    8  A    between atoms: C_15  and  C_16
REMARK    9  A    between atoms: C_22  and  C_23
REMARK                            x       y       z     vdW  Elec       q    Type
REMARK                         _______ _______ _______ _____ _____    ______ ____
ROOT
ATOM      1  C   UNL     1      46.810   4.112  13.565  0.00  0.00    +0.000 A 
ATOM      2  C   UNL     1      47.208   5.415  13.266  0.00  0.00    +0.000 A 
ATOM      3  C   UNL     1      46.575   6.146  12.249  0.00  0.00    +0.000 A 
ATOM      4  C   UNL     1      45.516   5.538  11.555  0.00  0.00    +0.000 A 
ATOM      5  C   UNL     1      45.115   4.222  11.826  0.00  0.00    +0.000 A 
ATOM      6  C   UNL     1      45.764   3.519  12.848  0.00  0.00    +0.000 A 
ENDROOT
BRANCH   5   7
ATOM      7  C   UNL     1      44.048   3.563  10.985  0.00  0.00    +0.000 C 
ATOM      8  F   UNL     1      44.541   2.597  10.156  0.00  0.00    +0.000 F 
ATOM      9  F   UNL     1      43.099   2.945  11.739  0.00  0.00    +0.000 F 
ATOM     10  F   UNL     1      43.388   4.438  10.180  0.00  0.00    +0.000 F 
ENDBRANCH   5   7
BRANCH   1  11
ATOM     11  O   UNL     1      47.425   3.306  14.491  0.00  0.00    +0.000 OA
BRANCH  11  15
ATOM     12  C   UNL     1      49.770   4.014  18.143  0.00  0.00    +0.000 C 
ATOM     13  N   UNL     1      49.214   3.771  16.819  0.00  0.00    +0.000 NA
ATOM     14  C   UNL     1      48.191   4.784  16.477  0.00  0.00    +0.000 C 
ATOM     15  C   UNL     1      47.311   3.640  15.900  0.00  0.00    +0.000 C 
ATOM     16  C   UNL     1      48.145   2.744  16.859  0.00  0.00    +0.000 C 
ENDBRANCH  11  15
ENDBRANCH   1  11
BRANCH   3  17
ATOM     17  C   UNL     1      47.098   7.533  11.907  0.00  0.00    +0.000 C 
BRANCH  17  18
ATOM     18  C   UNL     1      47.287   8.441  13.124  0.00  0.00    +0.000 C 
BRANCH  18  19
ATOM     19  N   UNL     1      48.690   8.737  13.416  0.00  0.00    +0.000 N 
ATOM     20  H   UNL     1      48.937   9.703  13.203  0.00  0.00    +0.000 HD
BRANCH  19  21
ATOM     21  C   UNL     1      49.115   8.376  14.714  0.00  0.00    +0.000 A 
ATOM     22  C   UNL     1      50.308   7.685  14.964  0.00  0.00    +0.000 A 
ATOM     23  C   UNL     1      50.721   7.409  16.265  0.00  0.00    +0.000 A 
ATOM     24  C   UNL     1      49.943   7.867  17.310  0.00  0.00    +0.000 A 
ATOM     25  N   UNL     1      48.788   8.579  17.137  0.00  0.00    +0.000 NA
ATOM     26  C   UNL     1      48.427   8.821  15.849  0.00  0.00    +0.000 A 
BRANCH  24  27
ATOM     27  C   UNL     1      50.379   7.606  18.716  0.00  0.00    +0.000 C 
ATOM     28  N   UNL     1      49.370   7.353  19.602  0.00  0.00    +0.000 N 
ATOM     29  O   UNL     1      51.555   7.623  19.055  0.00  0.00    +0.000 OA
ATOM     30  H   UNL     1      48.408   7.372  19.279  0.00  0.00    +0.000 HD
ATOM     31  H   UNL     1      49.590   7.198  20.575  0.00  0.00    +0.000 HD
ENDBRANCH  24  27
ENDBRANCH  19  21
ENDBRANCH  18  19
ENDBRANCH  17  18
ENDBRANCH   3  17
TORSDOF 8
ENDMDL
MODEL 8
REMARK VINA RESULT:    -6.050      3.793      5.906
REMARK INTER + INTRA:          -9.853
REMARK INTER:                  -8.799
REMARK INTRA:                  -1.054
REMARK UNBOUND:                -0.974
REMARK  Name = 
REMARK  9 active torsions:
REMARK  status: ('A' for Active; 'I' for Inactive)
REMARK    1  A    between atoms: C_1  and  N_2
REMARK    2  A    between atoms: C_4  and  O_5
REMARK    3  A    between atoms: O_5  and  C_6
REMARK    4  A    between atoms: C_8  and  C_9
REMARK    5  A    between atoms: C_9  and  C_10
REMARK    6  A    between atoms: C_10  and  N_11
REMARK    7  A    between atoms: N_11  and  C_12
REMARK    8  A    between atoms: C_15  and  C_16
REMARK    9  A    between atoms: C_22  and  C_23
REMARK                            x       y       z     vdW  Elec       q    Type
REMARK                         _______ _______ _______ _____ _____    ______ ____
ROOT
ATOM      1  C   UNL     1      49.672   5.959  18.675  0.00  0.00    +0.000 A 
ATOM      2  C   UNL     1      49.502   6.977  17.737  0.00  0.00    +0.000 A 
ATOM      3  C   UNL     1      48.869   6.727  16.509  0.00  0.00    +0.000 A 
ATOM      4  C   UNL     1      48.393   5.430  16.260  0.00  0.00    +0.000 A 
ATOM      5  C   UNL     1      48.572   4.388  17.182  0.00  0.00    +0.000 A 
ATOM      6  C   UNL     1      49.204   4.669  18.399  0.00  0.00    +0.000 A 
ENDROOT
BRANCH   5   7
ATOM      7  C   UNL     1      48.146   2.982  16.833  0.00  0.00    +0.000 C 
ATOM      8  F   UNL     1      47.123   2.524  17.613  0.00  0.00    +0.000 F 
ATOM      9  F   UNL     1      47.701   2.876  15.551  0.00  0.00    +0.000 F 
ATOM     10  F   UNL     1      49.148   2.073  16.967  0.00  0.00    +0.000 F 
ENDBRANCH   5   7
BRANCH   1  11
ATOM     11  O   UNL     1      50.343   6.105  19.864  0.00  0.00    +0.000 OA
BRANCH  11  15
ATOM     12  C   UNL     1      53.747   3.340  19.543  0.00  0.00    +0.000 C 
ATOM     13  N   UNL     1      52.480   4.057  19.594  0.00  0.00    +0.000 NA
ATOM     14  C   UNL     1      52.515   5.261  18.733  0.00  0.00    +0.000 C 
ATOM     15  C   UNL     1      51.793   6.042  19.866  0.00  0.00    +0.000 C 
ATOM     16  C   UNL     1      52.404   4.942  20.781  0.00  0.00    +0.000 C 
ENDBRANCH  11  15
ENDBRANCH   1  11
BRANCH   3  17
ATOM     17  C   UNL     1      48.781   7.849  15.486  0.00  0.00    +0.000 C 
BRANCH  17  18
ATOM     18  C   UNL     1      48.417   7.377  14.077  0.00  0.00    +0.000 C 
BRANCH  18  19
ATOM     19  N   UNL     1      47.035   7.682  13.700  0.00  0.00    +0.000 N 
ATOM     20  H   UNL     1      46.968   8.506  13.104  0.00  0.00    +0.000 HD
BRANCH  19  21
ATOM     21  C   UNL     1      46.315   6.596  13.155  0.00  0.00    +0.000 A 
ATOM     22  C   UNL     1      46.685   5.258  13.349  0.00  0.00    +0.000 A 
ATOM     23  C   UNL     1      45.907   4.217  12.851  0.00  0.00    +0.000 A 
ATOM     24  C   UNL     1      44.736   4.533  12.189  0.00  0.00    +0.000 A 
ATOM     25  N   UNL     1      44.298   5.814  11.998  0.00  0.00    +0.000 NA
ATOM     26  C   UNL     1      45.093   6.795  12.501  0.00  0.00    +0.000 A 
BRANCH  24  27
ATOM     27  C   UNL     1      43.872   3.431  11.666  0.00  0.00    +0.000 C 
ATOM     28  N   UNL     1      43.696   2.375  12.516  0.00  0.00    +0.000 N 
ATOM     29  O   UNL     1      43.362   3.465  10.554  0.00  0.00    +0.000 OA
ATOM     30  H   UNL     1      44.158   2.381  13.420  0.00  0.00    +0.000 HD
ATOM     31  H   UNL     1      43.149   1.582  12.217  0.00  0.00    +0.000 HD
ENDBRANCH  24  27
ENDBRANCH  19  21
ENDBRANCH  18  19
ENDBRANCH  17  18
ENDBRANCH   3  17
TORSDOF 8
ENDMDL
MODEL 9
REMARK VINA RESULT:    -6.007      3.973      5.977
REMARK INTER + INTRA:          -9.789
REMARK INTER:                  -8.773
REMARK INTRA:                  -1.016
REMARK UNBOUND:                -0.974
REMARK  Name = 
REMARK  9 active torsions:
REMARK  status: ('A' for Active; 'I' for Inactive)
REMARK    1  A    between atoms: C_1  and  N_2
REMARK    2  A    between atoms: C_4  and  O_5
REMARK    3  A    between atoms: O_5  and  C_6
REMARK    4  A    between atoms: C_8  and  C_9
REMARK    5  A    between atoms: C_9  and  C_10
REMARK    6  A    between atoms: C_10  and  N_11
REMARK    7  A    between atoms: N_11  and  C_12
REMARK    8  A    between atoms: C_15  and  C_16
REMARK    9  A    between atoms: C_22  and  C_23
REMARK                            x       y       z     vdW  Elec       q    Type
REMARK                         _______ _______ _______ _____ _____    ______ ____
ROOT
ATOM      1  C   UNL     1      51.174   5.293  17.316  0.00  0.00    +0.000 A 
ATOM      2  C   UNL     1      51.061   6.312  16.370  0.00  0.00    +0.000 A 
ATOM      3  C   UNL     1      49.808   6.688  15.862  0.00  0.00    +0.000 A 
ATOM      4  C   UNL     1      48.669   6.025  16.348  0.00  0.00    +0.000 A 
ATOM      5  C   UNL     1      48.763   4.985  17.283  0.00  0.00    +0.000 A 
ATOM      6  C   UNL     1      50.027   4.634  17.773  0.00  0.00    +0.000 A 
ENDROOT
BRANCH   5   7
ATOM      7  C   UNL     1      47.528   4.221  17.698  0.00  0.00    +0.000 C 
ATOM      8  F   UNL     1      47.813   3.077  18.386  0.00  0.00    +0.000 F 
ATOM      9  F   UNL     1      46.719   4.947  18.518  0.00  0.00    +0.000 F 
ATOM     10  F   UNL     1      46.759   3.837  16.645  0.00  0.00    +0.000 F 
ENDBRANCH   5   7
BRANCH   1  11
ATOM     11  O   UNL     1      52.365   4.817  17.805  0.00  0.00    +0.000 OA
BRANCH  11  15
ATOM     12  C   UNL     1      54.929   1.704  19.556  0.00  0.00    +0.000 C 
ATOM     13  N   UNL     1      54.292   2.832  18.892  0.00  0.00    +0.000 NA
ATOM     14  C   UNL     1      53.405   3.566  19.822  0.00  0.00    +0.000 C 
ATOM     15  C   UNL     1      52.354   3.659  18.680  0.00  0.00    +0.000 C 
ATOM     16  C   UNL     1      53.095   2.408  18.127  0.00  0.00    +0.000 C 
ENDBRANCH  11  15
ENDBRANCH   1  11
BRANCH   3  17
ATOM     17  C   UNL     1      49.745   7.749  14.774  0.00  0.00    +0.000 C 
BRANCH  17  18
ATOM     18  C   UNL     1      48.435   7.748  13.983  0.00  0.00    +0.000 C 
BRANCH  18  19
ATOM     19  N   UNL     1      48.447   6.836  12.838  0.00  0.00    +0.000 N 
ATOM     20  H   UNL     1      49.236   6.190  12.864  0.00  0.00    +0.000 HD
BRANCH  19  21
ATOM     21  C   UNL     1      47.233   6.150  12.612  0.00  0.00    +0.000 A 
ATOM     22  C   UNL     1      46.485   6.286  11.435  0.00  0.00    +0.000 A 
ATOM     23  C   UNL     1      45.329   5.539  11.226  0.00  0.00    +0.000 A 
ATOM     24  C   UNL     1      44.955   4.628  12.195  0.00  0.00    +0.000 A 
ATOM     25  N   UNL     1      45.659   4.418  13.349  0.00  0.00    +0.000 NA
ATOM     26  C   UNL     1      46.778   5.173  13.506  0.00  0.00    +0.000 A 
BRANCH  24  27
ATOM     27  C   UNL     1      43.731   3.796  11.982  0.00  0.00    +0.000 C 
ATOM     28  N   UNL     1      43.801   2.520  12.468  0.00  0.00    +0.000 N 
ATOM     29  O   UNL     1      42.738   4.221  11.407  0.00  0.00    +0.000 OA
ATOM     30  H   UNL     1      44.655   2.205  12.917  0.00  0.00    +0.000 HD
ATOM     31  H   UNL     1      43.023   1.893  12.332  0.00  0.00    +0.000 HD
ENDBRANCH  24  27
ENDBRANCH  19  21
ENDBRANCH  18  19
ENDBRANCH  17  18
ENDBRANCH   3  17
TORSDOF 8
ENDMDL
