MODEL 1
REMARK VINA RESULT:    -8.939      0.000      0.000
REMARK INTER + INTRA:         -12.546
REMARK INTER:                 -12.075
REMARK INTRA:                  -0.471
REMARK UNBOUND:                -0.471
REMARK  Name = 
REMARK  7 active torsions:
REMARK  status: ('A' for Active; 'I' for Inactive)
REMARK    1  A    between atoms: C_1  and  C_2
REMARK    2  A    between atoms: C_2  and  N_3
REMARK    3  A    between atoms: C_2  and  C_16
REMARK    4  A    between atoms: C_4  and  C_6
REMARK    5  A    between atoms: C_19  and  O_20
REMARK    6  A    between atoms: O_20  and  C_21
REMARK    7  A    between atoms: C_21  and  C_22
REMARK                            x       y       z     vdW  Elec       q    Type
REMARK                         _______ _______ _______ _____ _____    ______ ____
ROOT
ATOM      1  C   UNL     1      47.520   8.729  12.147  0.00  0.00    +0.000 C 
ATOM      2  C   UNL     1      46.512   7.896  12.947  0.00  0.00    +0.000 C 
ENDROOT
BRANCH   2   3
ATOM      3  C   UNL     1      45.946   6.720  12.174  0.00  0.00    +0.000 A 
ATOM      4  C   UNL     1      46.172   6.608  10.792  0.00  0.00    +0.000 A 
ATOM      5  C   UNL     1      45.690   5.507  10.075  0.00  0.00    +0.000 A 
ATOM      6  C   UNL     1      44.975   4.506  10.731  0.00  0.00    +0.000 A 
ATOM      7  C   UNL     1      44.659   4.660  12.079  0.00  0.00    +0.000 A 
ATOM      8  C   UNL     1      45.144   5.753  12.795  0.00  0.00    +0.000 A 
BRANCH   6   9
ATOM      9  O   UNL     1      44.634   3.411   9.983  0.00  0.00    +0.000 OA
BRANCH   9  10
ATOM     10  C   UNL     1      44.682   3.639   8.570  0.00  0.00    +0.000 C 
BRANCH  10  11
ATOM     11  C   UNL     1      45.799   2.840   7.959  0.00  0.00    +0.000 A 
ATOM     12  C   UNL     1      46.757   3.462   7.154  0.00  0.00    +0.000 A 
ATOM     13  C   UNL     1      47.787   2.694   6.635  0.00  0.00    +0.000 A 
ATOM     14  N   UNL     1      47.925   1.372   6.864  0.00  0.00    +0.000 NA
ATOM     15  C   UNL     1      46.983   0.790   7.639  0.00  0.00    +0.000 A 
ATOM     16  C   UNL     1      45.917   1.471   8.203  0.00  0.00    +0.000 A 
ENDBRANCH  10  11
ENDBRANCH   9  10
ENDBRANCH   6   9
ENDBRANCH   2   3
BRANCH   2  17
ATOM     17  N   UNL     1      47.120   7.399  14.161  0.00  0.00    +0.000 N 
ATOM     18  C   UNL     1      48.294   6.696  14.161  0.00  0.00    +0.000 C 
ATOM     19  O   UNL     1      48.949   6.510  13.141  0.00  0.00    +0.000 OA
ATOM     20  H   UNL     1      46.530   7.387  14.986  0.00  0.00    +0.000 HD
BRANCH  18  21
ATOM     21  C   UNL     1      48.760   6.228  15.468  0.00  0.00    +0.000 A 
ATOM     22  C   UNL     1      49.821   6.871  16.089  0.00  0.00    +0.000 A 
ATOM     23  S   UNL     1      50.223   6.209  17.608  0.00  0.00    +0.000 S 
ATOM     24  C   UNL     1      49.026   5.009  17.464  0.00  0.00    +0.000 A 
ATOM     25  N   UNL     1      48.857   4.069  18.432  0.00  0.00    +0.000 NA
ATOM     26  C   UNL     1      47.939   3.198  18.177  0.00  0.00    +0.000 A 
ATOM     27  N   UNL     1      47.163   3.187  17.047  0.00  0.00    +0.000 N 
ATOM     28  C   UNL     1      47.259   4.147  16.066  0.00  0.00    +0.000 A 
ATOM     29  O   UNL     1      46.493   4.161  15.110  0.00  0.00    +0.000 OA
ATOM     30  C   UNL     1      48.306   5.130  16.289  0.00  0.00    +0.000 A 
ATOM     31  H   UNL     1      46.446   2.490  16.921  0.00  0.00    +0.000 HD
ENDBRANCH  18  21
ENDBRANCH   2  17
TORSDOF 6
ENDMDL
MODEL 2
REMARK VINA RESULT:    -8.167      1.885      2.815
REMARK INTER + INTRA:         -11.503
REMARK INTER:                 -10.443
REMARK INTRA:                  -1.059
REMARK UNBOUND:                -0.471
REMARK  Name = 
REMARK  7 active torsions:
REMARK  status: ('A' for Active; 'I' for Inactive)
REMARK    1  A    between atoms: C_1  and  C_2
REMARK    2  A    between atoms: C_2  and  N_3
REMARK    3  A    between atoms: C_2  and  C_16
REMARK    4  A    between atoms: C_4  and  C_6
REMARK    5  A    between atoms: C_19  and  O_20
REMARK    6  A    between atoms: O_20  and  C_21
REMARK    7  A    between atoms: C_21  and  C_22
REMARK                            x       y       z     vdW  Elec       q    Type
REMARK                         _______ _______ _______ _____ _____    ______ ____
ROOT
ATOM      1  C   UNL     1      48.448   7.962  12.111  0.00  0.00    +0.000 C 
ATOM      2  C   UNL     1      47.470   7.198  13.011  0.00  0.00    +0.000 C 
ENDROOT
BRANCH   2   3
ATOM      3  C   UNL     1      46.630   6.177  12.268  0.00  0.00    +0.000 A 
ATOM      4  C   UNL     1      46.193   6.440  10.958  0.00  0.00    +0.000 A 
ATOM      5  C   UNL     1      45.452   5.490  10.247  0.00  0.00    +0.000 A 
ATOM      6  C   UNL     1      45.137   4.267  10.838  0.00  0.00    +0.000 A 
ATOM      7  C   UNL     1      45.478   4.040  12.170  0.00  0.00    +0.000 A 
ATOM      8  C   UNL     1      46.221   4.983  12.876  0.00  0.00    +0.000 A 
BRANCH   6   9
ATOM      9  O   UNL     1      44.506   3.349  10.040  0.00  0.00    +0.000 OA
BRANCH   9  10
ATOM     10  C   UNL     1      44.620   3.628   8.640  0.00  0.00    +0.000 C 
BRANCH  10  11
ATOM     11  C   UNL     1      45.753   2.836   8.050  0.00  0.00    +0.000 A 
ATOM     12  C   UNL     1      45.857   1.463   8.286  0.00  0.00    +0.000 A 
ATOM     13  C   UNL     1      46.901   0.766   7.698  0.00  0.00    +0.000 A 
ATOM     14  N   UNL     1      47.828   1.336   6.902  0.00  0.00    +0.000 NA
ATOM     15  C   UNL     1      47.712   2.666   6.693  0.00  0.00    +0.000 A 
ATOM     16  C   UNL     1      46.707   3.449   7.235  0.00  0.00    +0.000 A 
ENDBRANCH  10  11
ENDBRANCH   9  10
ENDBRANCH   6   9
ENDBRANCH   2   3
BRANCH   2  17
ATOM     17  N   UNL     1      48.185   6.522  14.071  0.00  0.00    +0.000 N 
ATOM     18  C   UNL     1      48.612   7.168  15.198  0.00  0.00    +0.000 C 
ATOM     19  O   UNL     1      48.347   8.345  15.422  0.00  0.00    +0.000 OA
ATOM     20  H   UNL     1      48.563   5.607  13.846  0.00  0.00    +0.000 HD
BRANCH  18  21
ATOM     21  C   UNL     1      49.356   6.353  16.161  0.00  0.00    +0.000 A 
ATOM     22  C   UNL     1      48.673   5.471  16.987  0.00  0.00    +0.000 A 
ATOM     23  S   UNL     1      49.693   4.591  18.033  0.00  0.00    +0.000 S 
ATOM     24  C   UNL     1      51.074   5.397  17.454  0.00  0.00    +0.000 A 
ATOM     25  N   UNL     1      52.305   5.132  17.969  0.00  0.00    +0.000 NA
ATOM     26  C   UNL     1      53.259   5.841  17.464  0.00  0.00    +0.000 A 
ATOM     27  N   UNL     1      53.098   6.783  16.482  0.00  0.00    +0.000 N 
ATOM     28  C   UNL     1      51.883   7.048  15.893  0.00  0.00    +0.000 A 
ATOM     29  O   UNL     1      51.785   7.832  14.956  0.00  0.00    +0.000 OA
ATOM     30  C   UNL     1      50.770   6.301  16.453  0.00  0.00    +0.000 A 
ATOM     31  H   UNL     1      53.892   7.286  16.115  0.00  0.00    +0.000 HD
ENDBRANCH  18  21
ENDBRANCH   2  17
TORSDOF 6
ENDMDL
MODEL 3
REMARK VINA RESULT:    -8.003      2.092      2.404
REMARK INTER + INTRA:         -11.281
REMARK INTER:                 -10.549
REMARK INTRA:                  -0.732
REMARK UNBOUND:                -0.471
REMARK  Name = 
REMARK  7 active torsions:
REMARK  status: ('A' for Active; 'I' for Inactive)
REMARK    1  A    between atoms: C_1  and  C_2
REMARK    2  A    between atoms: C_2  and  N_3
REMARK    3  A    between atoms: C_2  and  C_16
REMARK    4  A    between atoms: C_4  and  C_6
REMARK    5  A    between atoms: C_19  and  O_20
REMARK    6  A    between atoms: O_20  and  C_21
REMARK    7  A    between atoms: C_21  and  C_22
REMARK                            x       y       z     vdW  Elec       q    Type
REMARK                         _______ _______ _______ _____ _____    ______ ____
ROOT
ATOM      1  C   UNL     1      49.147   7.201  12.881  0.00  0.00    +0.000 C 
ATOM      2  C   UNL     1      47.774   7.015  13.537  0.00  0.00    +0.000 C 
ENDROOT
BRANCH   2   3
ATOM      3  C   UNL     1      46.814   6.179  12.713  0.00  0.00    +0.000 A 
ATOM      4  C   UNL     1      46.327   6.664  11.487  0.00  0.00    +0.000 A 
ATOM      5  C   UNL     1      45.474   5.885  10.698  0.00  0.00    +0.000 A 
ATOM      6  C   UNL     1      45.095   4.614  11.126  0.00  0.00    +0.000 A 
ATOM      7  C   UNL     1      45.491   4.167  12.385  0.00  0.00    +0.000 A 
ATOM      8  C   UNL     1      46.346   4.940  13.168  0.00  0.00    +0.000 A 
BRANCH   6   9
ATOM      9  O   UNL     1      44.349   3.872  10.248  0.00  0.00    +0.000 OA
BRANCH   9  10
ATOM     10  C   UNL     1      44.573   4.207   8.874  0.00  0.00    +0.000 C 
BRANCH  10  11
ATOM     11  C   UNL     1      45.550   3.241   8.264  0.00  0.00    +0.000 A 
ATOM     12  C   UNL     1      46.529   3.691   7.373  0.00  0.00    +0.000 A 
ATOM     13  C   UNL     1      47.427   2.771   6.856  0.00  0.00    +0.000 A 
ATOM     14  N   UNL     1      47.417   1.459   7.165  0.00  0.00    +0.000 NA
ATOM     15  C   UNL     1      46.458   1.045   8.023  0.00  0.00    +0.000 A 
ATOM     16  C   UNL     1      45.515   1.885   8.592  0.00  0.00    +0.000 A 
ENDBRANCH  10  11
ENDBRANCH   9  10
ENDBRANCH   6   9
ENDBRANCH   2   3
BRANCH   2  17
ATOM     17  N   UNL     1      47.916   6.403  14.839  0.00  0.00    +0.000 N 
ATOM     18  C   UNL     1      48.668   6.963  15.836  0.00  0.00    +0.000 C 
ATOM     19  O   UNL     1      49.206   8.059  15.719  0.00  0.00    +0.000 OA
ATOM     20  H   UNL     1      47.632   5.432  14.913  0.00  0.00    +0.000 HD
BRANCH  18  21
ATOM     21  C   UNL     1      48.745   6.201  17.085  0.00  0.00    +0.000 A 
ATOM     22  C   UNL     1      49.266   4.915  17.074  0.00  0.00    +0.000 A 
ATOM     23  S   UNL     1      49.297   4.181  18.613  0.00  0.00    +0.000 S 
ATOM     24  C   UNL     1      48.567   5.536  19.335  0.00  0.00    +0.000 A 
ATOM     25  N   UNL     1      48.273   5.548  20.663  0.00  0.00    +0.000 NA
ATOM     26  C   UNL     1      47.688   6.623  21.072  0.00  0.00    +0.000 A 
ATOM     27  N   UNL     1      47.379   7.696  20.277  0.00  0.00    +0.000 N 
ATOM     28  C   UNL     1      47.704   7.754  18.942  0.00  0.00    +0.000 A 
ATOM     29  O   UNL     1      47.495   8.762  18.276  0.00  0.00    +0.000 OA
ATOM     30  C   UNL     1      48.332   6.550  18.424  0.00  0.00    +0.000 A 
ATOM     31  H   UNL     1      46.942   8.517  20.666  0.00  0.00    +0.000 HD
ENDBRANCH  18  21
ENDBRANCH   2  17
TORSDOF 6
ENDMDL
MODEL 4
REMARK VINA RESULT:    -7.817      2.750      3.538
REMARK INTER + INTRA:         -11.030
REMARK INTER:                  -9.666
REMARK INTRA:                  -1.364
REMARK UNBOUND:                -0.471
REMARK  Name = 
REMARK  7 active torsions:
REMARK  status: ('A' for Active; 'I' for Inactive)
REMARK    1  A    between atoms: C_1  and  C_2
REMARK    2  A    between atoms: C_2  and  N_3
REMARK    3  A    between atoms: C_2  and  C_16
REMARK    4  A    between atoms: C_4  and  C_6
REMARK    5  A    between atoms: C_19  and  O_20
REMARK    6  A    between atoms: O_20  and  C_21
REMARK    7  A    between atoms: C_21  and  C_22
REMARK                            x       y       z     vdW  Elec       q    Type
REMARK                         _______ _______ _______ _____ _____    ______ ____
ROOT
ATOM      1  C   UNL     1      47.467   4.081  16.044  0.00  0.00    +0.000 C 
ATOM      2  C   UNL     1      47.860   5.058  14.930  0.00  0.00    +0.000 C 
ENDROOT
BRANCH   2   3
ATOM      3  C   UNL     1      46.939   5.009  13.726  0.00  0.00    +0.000 A 
ATOM      4  C   UNL     1      46.809   6.130  12.889  0.00  0.00    +0.000 A 
ATOM      5  C   UNL     1      45.995   6.085  11.752  0.00  0.00    +0.000 A 
ATOM      6  C   UNL     1      45.299   4.918  11.439  0.00  0.00    +0.000 A 
ATOM      7  C   UNL     1      45.342   3.837  12.318  0.00  0.00    +0.000 A 
ATOM      8  C   UNL     1      46.158   3.880  13.446  0.00  0.00    +0.000 A 
BRANCH   6   9
ATOM      9  O   UNL     1      44.613   4.917  10.254  0.00  0.00    +0.000 OA
BRANCH   9  10
ATOM     10  C   UNL     1      44.257   3.608   9.795  0.00  0.00    +0.000 C 
BRANCH  10  11
ATOM     11  C   UNL     1      45.278   3.114   8.810  0.00  0.00    +0.000 A 
ATOM     12  C   UNL     1      45.941   4.009   7.966  0.00  0.00    +0.000 A 
ATOM     13  C   UNL     1      46.898   3.515   7.094  0.00  0.00    +0.000 A 
ATOM     14  N   UNL     1      47.233   2.211   7.011  0.00  0.00    +0.000 NA
ATOM     15  C   UNL     1      46.575   1.362   7.831  0.00  0.00    +0.000 A 
ATOM     16  C   UNL     1      45.604   1.758   8.736  0.00  0.00    +0.000 A 
ENDBRANCH  10  11
ENDBRANCH   9  10
ENDBRANCH   6   9
ENDBRANCH   2   3
BRANCH   2  17
ATOM     17  N   UNL     1      47.886   6.413  15.435  0.00  0.00    +0.000 N 
ATOM     18  C   UNL     1      49.052   7.090  15.662  0.00  0.00    +0.000 C 
ATOM     19  O   UNL     1      50.151   6.623  15.378  0.00  0.00    +0.000 OA
ATOM     20  H   UNL     1      47.020   6.761  15.833  0.00  0.00    +0.000 HD
BRANCH  18  21
ATOM     21  C   UNL     1      48.912   8.441  16.211  0.00  0.00    +0.000 A 
ATOM     22  C   UNL     1      49.367   9.530  15.480  0.00  0.00    +0.000 A 
ATOM     23  S   UNL     1      49.110  11.026  16.257  0.00  0.00    +0.000 S 
ATOM     24  C   UNL     1      48.431  10.265  17.618  0.00  0.00    +0.000 A 
ATOM     25  N   UNL     1      48.023  10.990  18.694  0.00  0.00    +0.000 NA
ATOM     26  C   UNL     1      47.561  10.284  19.670  0.00  0.00    +0.000 A 
ATOM     27  N   UNL     1      47.458   8.918  19.667  0.00  0.00    +0.000 N 
ATOM     28  C   UNL     1      47.807   8.145  18.584  0.00  0.00    +0.000 A 
ATOM     29  O   UNL     1      47.622   6.933  18.577  0.00  0.00    +0.000 OA
ATOM     30  C   UNL     1      48.369   8.891  17.471  0.00  0.00    +0.000 A 
ATOM     31  H   UNL     1      47.065   8.428  20.457  0.00  0.00    +0.000 HD
ENDBRANCH  18  21
ENDBRANCH   2  17
TORSDOF 6
ENDMDL
MODEL 5
REMARK VINA RESULT:    -7.290      3.733      8.118
REMARK INTER + INTRA:         -10.318
REMARK INTER:                  -9.017
REMARK INTRA:                  -1.301
REMARK UNBOUND:                -0.471
REMARK  Name = 
REMARK  7 active torsions:
REMARK  status: ('A' for Active; 'I' for Inactive)
REMARK    1  A    between atoms: C_1  and  C_2
REMARK    2  A    between atoms: C_2  and  N_3
REMARK    3  A    between atoms: C_2  and  C_16
REMARK    4  A    between atoms: C_4  and  C_6
REMARK    5  A    between atoms: C_19  and  O_20
REMARK    6  A    between atoms: O_20  and  C_21
REMARK    7  A    between atoms: C_21  and  C_22
REMARK                            x       y       z     vdW  Elec       q    Type
REMARK                         _______ _______ _______ _____ _____    ______ ____
ROOT
ATOM      1  C   UNL     1      48.175   8.944  15.280  0.00  0.00    +0.000 C 
ATOM      2  C   UNL     1      48.456   7.576  14.647  0.00  0.00    +0.000 C 
ENDROOT
BRANCH   2   3
ATOM      3  C   UNL     1      48.987   6.550  15.629  0.00  0.00    +0.000 A 
ATOM      4  C   UNL     1      48.159   5.507  16.079  0.00  0.00    +0.000 A 
ATOM      5  C   UNL     1      48.648   4.530  16.953  0.00  0.00    +0.000 A 
ATOM      6  C   UNL     1      49.972   4.585  17.389  0.00  0.00    +0.000 A 
ATOM      7  C   UNL     1      50.769   5.670  17.029  0.00  0.00    +0.000 A 
ATOM      8  C   UNL     1      50.283   6.639  16.154  0.00  0.00    +0.000 A 
BRANCH   6   9
ATOM      9  O   UNL     1      50.405   3.534  18.152  0.00  0.00    +0.000 OA
BRANCH   9  10
ATOM     10  C   UNL     1      50.826   2.400  17.386  0.00  0.00    +0.000 C 
BRANCH  10  11
ATOM     11  C   UNL     1      52.182   1.943  17.848  0.00  0.00    +0.000 A 
ATOM     12  C   UNL     1      53.016   2.808  18.561  0.00  0.00    +0.000 A 
ATOM     13  C   UNL     1      54.245   2.336  18.994  0.00  0.00    +0.000 A 
ATOM     14  N   UNL     1      54.688   1.082  18.769  0.00  0.00    +0.000 NA
ATOM     15  C   UNL     1      53.868   0.265  18.071  0.00  0.00    +0.000 A 
ATOM     16  C   UNL     1      52.623   0.642  17.597  0.00  0.00    +0.000 A 
ENDBRANCH  10  11
ENDBRANCH   9  10
ENDBRANCH   6   9
ENDBRANCH   2   3
BRANCH   2  17
ATOM     17  N   UNL     1      47.257   7.050  14.034  0.00  0.00    +0.000 N 
ATOM     18  C   UNL     1      47.101   6.967  12.678  0.00  0.00    +0.000 C 
ATOM     19  O   UNL     1      47.997   7.260  11.893  0.00  0.00    +0.000 OA
ATOM     20  H   UNL     1      46.446   6.960  14.637  0.00  0.00    +0.000 HD
BRANCH  18  21
ATOM     21  C   UNL     1      45.813   6.446  12.211  0.00  0.00    +0.000 A 
ATOM     22  C   UNL     1      44.901   7.305  11.615  0.00  0.00    +0.000 A 
ATOM     23  S   UNL     1      43.465   6.533  11.117  0.00  0.00    +0.000 S 
ATOM     24  C   UNL     1      43.993   5.036  11.728  0.00  0.00    +0.000 A 
ATOM     25  N   UNL     1      43.201   3.932  11.656  0.00  0.00    +0.000 NA
ATOM     26  C   UNL     1      43.711   2.873  12.190  0.00  0.00    +0.000 A 
ATOM     27  N   UNL     1      44.945   2.812  12.781  0.00  0.00    +0.000 N 
ATOM     28  C   UNL     1      45.803   3.886  12.831  0.00  0.00    +0.000 A 
ATOM     29  O   UNL     1      46.936   3.778  13.288  0.00  0.00    +0.000 OA
ATOM     30  C   UNL     1      45.261   5.114  12.276  0.00  0.00    +0.000 A 
ATOM     31  H   UNL     1      45.293   1.944  13.160  0.00  0.00    +0.000 HD
ENDBRANCH  18  21
ENDBRANCH   2  17
TORSDOF 6
ENDMDL
MODEL 6
REMARK VINA RESULT:    -7.078      3.270      5.374
REMARK INTER + INTRA:         -10.031
REMARK INTER:                  -9.042
REMARK INTRA:                  -0.990
REMARK UNBOUND:                -0.471
REMARK  Name = 
REMARK  7 active torsions:
REMARK  status: ('A' for Active; 'I' for Inactive)
REMARK    1  A    between atoms: C_1  and  C_2
REMARK    2  A    between atoms: C_2  and  N_3
REMARK    3  A    between atoms: C_2  and  C_16
REMARK    4  A    between atoms: C_4  and  C_6
REMARK    5  A    between atoms: C_19  and  O_20
REMARK    6  A    between atoms: O_20  and  C_21
REMARK    7  A    between atoms: C_21  and  C_22
REMARK                            x       y       z     vdW  Elec       q    Type
REMARK                         _______ _______ _______ _____ _____    ______ ____
ROOT
ATOM      1  C   UNL     1      47.247   4.815  18.462  0.00  0.00    +0.000 C 
ATOM      2  C   UNL     1      47.804   3.965  17.313  0.00  0.00    +0.000 C 
ENDROOT
BRANCH   2   3
ATOM      3  C   UNL     1      47.684   4.627  15.954  0.00  0.00    +0.000 A 
ATOM      4  C   UNL     1      48.267   5.886  15.727  0.00  0.00    +0.000 A 
ATOM      5  C   UNL     1      48.199   6.489  14.466  0.00  0.00    +0.000 A 
ATOM      6  C   UNL     1      47.546   5.842  13.418  0.00  0.00    +0.000 A 
ATOM      7  C   UNL     1      46.879   4.642  13.661  0.00  0.00    +0.000 A 
ATOM      8  C   UNL     1      46.952   4.039  14.914  0.00  0.00    +0.000 A 
BRANCH   6   9
ATOM      9  O   UNL     1      47.618   6.444  12.190  0.00  0.00    +0.000 OA
BRANCH   9  10
ATOM     10  C   UNL     1      46.428   7.150  11.823  0.00  0.00    +0.000 C 
BRANCH  10  11
ATOM     11  C   UNL     1      45.474   6.220  11.127  0.00  0.00    +0.000 A 
ATOM     12  C   UNL     1      45.876   5.512   9.991  0.00  0.00    +0.000 A 
ATOM     13  C   UNL     1      44.975   4.642   9.398  0.00  0.00    +0.000 A 
ATOM     14  N   UNL     1      43.723   4.433   9.857  0.00  0.00    +0.000 NA
ATOM     15  C   UNL     1      43.353   5.133  10.952  0.00  0.00    +0.000 A 
ATOM     16  C   UNL     1      44.180   6.025  11.614  0.00  0.00    +0.000 A 
ENDBRANCH  10  11
ENDBRANCH   9  10
ENDBRANCH   6   9
ENDBRANCH   2   3
BRANCH   2  17
ATOM     17  N   UNL     1      49.195   3.648  17.550  0.00  0.00    +0.000 N 
ATOM     18  C   UNL     1      49.804   2.557  16.994  0.00  0.00    +0.000 C 
ATOM     19  O   UNL     1      49.235   1.820  16.196  0.00  0.00    +0.000 OA
ATOM     20  H   UNL     1      49.640   4.129  18.324  0.00  0.00    +0.000 HD
BRANCH  18  21
ATOM     21  C   UNL     1      51.208   2.351  17.362  0.00  0.00    +0.000 A 
ATOM     22  C   UNL     1      51.679   1.063  17.577  0.00  0.00    +0.000 A 
ATOM     23  S   UNL     1      53.335   1.003  17.979  0.00  0.00    +0.000 S 
ATOM     24  C   UNL     1      53.465   2.699  17.929  0.00  0.00    +0.000 A 
ATOM     25  N   UNL     1      54.640   3.319  18.218  0.00  0.00    +0.000 NA
ATOM     26  C   UNL     1      54.588   4.608  18.179  0.00  0.00    +0.000 A 
ATOM     27  N   UNL     1      53.471   5.336  17.864  0.00  0.00    +0.000 N 
ATOM     28  C   UNL     1      52.275   4.755  17.513  0.00  0.00    +0.000 A 
ATOM     29  O   UNL     1      51.318   5.430  17.151  0.00  0.00    +0.000 OA
ATOM     30  C   UNL     1      52.271   3.303  17.579  0.00  0.00    +0.000 A 
ATOM     31  H   UNL     1      53.505   6.343  17.828  0.00  0.00    +0.000 HD
ENDBRANCH  18  21
ENDBRANCH   2  17
TORSDOF 6
ENDMDL
MODEL 7
REMARK VINA RESULT:    -6.903      2.061      2.964
REMARK INTER + INTRA:          -9.795
REMARK INTER:                  -8.472
REMARK INTRA:                  -1.323
REMARK UNBOUND:                -0.471
REMARK  Name = 
REMARK  7 active torsions:
REMARK  status: ('A' for Active; 'I' for Inactive)
REMARK    1  A    between atoms: C_1  and  C_2
REMARK    2  A    between atoms: C_2  and  N_3
REMARK    3  A    between atoms: C_2  and  C_16
REMARK    4  A    between atoms: C_4  and  C_6
REMARK    5  A    between atoms: C_19  and  O_20
REMARK    6  A    between atoms: O_20  and  C_21
REMARK    7  A    between atoms: C_21  and  C_22
REMARK                            x       y       z     vdW  Elec       q    Type
REMARK                         _______ _______ _______ _____ _____    ______ ____
ROOT
ATOM      1  C   UNL     1      50.268   9.167  13.542  0.00  0.00    +0.000 C 
ATOM      2  C   UNL     1      48.915   8.931  14.224  0.00  0.00    +0.000 C 
ENDROOT
BRANCH   2   3
ATOM      3  C   UNL     1      47.893   8.254  13.332  0.00  0.00    +0.000 A 
ATOM      4  C   UNL     1      46.530   8.573  13.450  0.00  0.00    +0.000 A 
ATOM      5  C   UNL     1      45.582   7.986  12.605  0.00  0.00    +0.000 A 
ATOM      6  C   UNL     1      45.985   7.071  11.633  0.00  0.00    +0.000 A 
ATOM      7  C   UNL     1      47.320   6.673  11.577  0.00  0.00    +0.000 A 
ATOM      8  C   UNL     1      48.265   7.262  12.414  0.00  0.00    +0.000 A 
BRANCH   6   9
ATOM      9  O   UNL     1      45.015   6.625  10.776  0.00  0.00    +0.000 OA
BRANCH   9  10
ATOM     10  C   UNL     1      44.467   5.353  11.136  0.00  0.00    +0.000 C 
BRANCH  10  11
ATOM     11  C   UNL     1      44.824   4.327  10.097  0.00  0.00    +0.000 A 
ATOM     12  C   UNL     1      44.420   2.997  10.245  0.00  0.00    +0.000 A 
ATOM     13  C   UNL     1      44.745   2.090   9.249  0.00  0.00    +0.000 A 
ATOM     14  N   UNL     1      45.431   2.416   8.135  0.00  0.00    +0.000 NA
ATOM     15  C   UNL     1      45.819   3.705   8.016  0.00  0.00    +0.000 A 
ATOM     16  C   UNL     1      45.543   4.685   8.955  0.00  0.00    +0.000 A 
ENDBRANCH  10  11
ENDBRANCH   9  10
ENDBRANCH   6   9
ENDBRANCH   2   3
BRANCH   2  17
ATOM     17  N   UNL     1      49.086   8.132  15.418  0.00  0.00    +0.000 N 
ATOM     18  C   UNL     1      48.545   8.486  16.623  0.00  0.00    +0.000 C 
ATOM     19  O   UNL     1      47.813   9.462  16.755  0.00  0.00    +0.000 OA
ATOM     20  H   UNL     1      49.812   7.425  15.384  0.00  0.00    +0.000 HD
BRANCH  18  21
ATOM     21  C   UNL     1      48.840   7.592  17.745  0.00  0.00    +0.000 A 
ATOM     22  C   UNL     1      49.218   8.128  18.968  0.00  0.00    +0.000 A 
ATOM     23  S   UNL     1      49.507   6.950  20.167  0.00  0.00    +0.000 S 
ATOM     24  C   UNL     1      49.187   5.683  19.077  0.00  0.00    +0.000 A 
ATOM     25  N   UNL     1      49.293   4.384  19.464  0.00  0.00    +0.000 NA
ATOM     26  C   UNL     1      49.059   3.527  18.528  0.00  0.00    +0.000 A 
ATOM     27  N   UNL     1      48.715   3.848  17.241  0.00  0.00    +0.000 N 
ATOM     28  C   UNL     1      48.542   5.145  16.816  0.00  0.00    +0.000 A 
ATOM     29  O   UNL     1      48.148   5.399  15.683  0.00  0.00    +0.000 OA
ATOM     30  C   UNL     1      48.832   6.151  17.824  0.00  0.00    +0.000 A 
ATOM     31  H   UNL     1      48.521   3.127  16.563  0.00  0.00    +0.000 HD
ENDBRANCH  18  21
ENDBRANCH   2  17
TORSDOF 6
ENDMDL
MODEL 8
REMARK VINA RESULT:    -6.648      2.516      3.563
REMARK INTER + INTRA:          -9.450
REMARK INTER:                  -8.126
REMARK INTRA:                  -1.324
REMARK UNBOUND:                -0.471
REMARK  Name = 
REMARK  7 active torsions:
REMARK  status: ('A' for Active; 'I' for Inactive)
REMARK    1  A    between atoms: C_1  and  C_2
REMARK    2  A    between atoms: C_2  and  N_3
REMARK    3  A    between atoms: C_2  and  C_16
REMARK    4  A    between atoms: C_4  and  C_6
REMARK    5  A    between atoms: C_19  and  O_20
REMARK    6  A    between atoms: O_20  and  C_21
REMARK    7  A    between atoms: C_21  and  C_22
REMARK                            x       y       z     vdW  Elec       q    Type
REMARK                         _______ _______ _______ _____ _____    ______ ____
ROOT
ATOM      1  C   UNL     1      50.463   8.138  11.366  0.00  0.00    +0.000 C 
ATOM      2  C   UNL     1      49.831   8.200  12.762  0.00  0.00    +0.000 C 
ENDROOT
BRANCH   2   3
ATOM      3  C   UNL     1      48.423   7.641  12.817  0.00  0.00    +0.000 A 
ATOM      4  C   UNL     1      47.316   8.505  12.741  0.00  0.00    +0.000 A 
ATOM      5  C   UNL     1      46.012   7.998  12.749  0.00  0.00    +0.000 A 
ATOM      6  C   UNL     1      45.798   6.623  12.837  0.00  0.00    +0.000 A 
ATOM      7  C   UNL     1      46.885   5.770  13.016  0.00  0.00    +0.000 A 
ATOM      8  C   UNL     1      48.184   6.273  13.001  0.00  0.00    +0.000 A 
BRANCH   6   9
ATOM      9  O   UNL     1      44.500   6.201  12.728  0.00  0.00    +0.000 OA
BRANCH   9  10
ATOM     10  C   UNL     1      43.974   6.287  11.399  0.00  0.00    +0.000 C 
BRANCH  10  11
ATOM     11  C   UNL     1      44.317   5.042  10.630  0.00  0.00    +0.000 A 
ATOM     12  C   UNL     1      43.792   3.805  11.012  0.00  0.00    +0.000 A 
ATOM     13  C   UNL     1      44.109   2.687  10.257  0.00  0.00    +0.000 A 
ATOM     14  N   UNL     1      44.899   2.722   9.164  0.00  0.00    +0.000 NA
ATOM     15  C   UNL     1      45.402   3.927   8.817  0.00  0.00    +0.000 A 
ATOM     16  C   UNL     1      45.144   5.100   9.506  0.00  0.00    +0.000 A 
ENDBRANCH  10  11
ENDBRANCH   9  10
ENDBRANCH   6   9
ENDBRANCH   2   3
BRANCH   2  17
ATOM     17  N   UNL     1      50.648   7.485  13.717  0.00  0.00    +0.000 N 
ATOM     18  C   UNL     1      50.748   7.862  15.027  0.00  0.00    +0.000 C 
ATOM     19  O   UNL     1      50.090   8.784  15.499  0.00  0.00    +0.000 OA
ATOM     20  H   UNL     1      51.325   6.835  13.331  0.00  0.00    +0.000 HD
BRANCH  18  21
ATOM     21  C   UNL     1      51.647   7.058  15.859  0.00  0.00    +0.000 A 
ATOM     22  C   UNL     1      53.017   7.261  15.785  0.00  0.00    +0.000 A 
ATOM     23  S   UNL     1      53.912   6.255  16.830  0.00  0.00    +0.000 S 
ATOM     24  C   UNL     1      52.502   5.478  17.379  0.00  0.00    +0.000 A 
ATOM     25  N   UNL     1      52.568   4.464  18.283  0.00  0.00    +0.000 NA
ATOM     26  C   UNL     1      51.428   3.940  18.583  0.00  0.00    +0.000 A 
ATOM     27  N   UNL     1      50.222   4.345  18.073  0.00  0.00    +0.000 N 
ATOM     28  C   UNL     1      50.098   5.400  17.199  0.00  0.00    +0.000 A 
ATOM     29  O   UNL     1      48.999   5.796  16.827  0.00  0.00    +0.000 OA
ATOM     30  C   UNL     1      51.360   6.000  16.799  0.00  0.00    +0.000 A 
ATOM     31  H   UNL     1      49.364   3.907  18.369  0.00  0.00    +0.000 HD
ENDBRANCH  18  21
ENDBRANCH   2  17
TORSDOF 6
ENDMDL
MODEL 9
REMARK VINA RESULT:    -6.636      3.938      8.289
REMARK INTER + INTRA:          -9.434
REMARK INTER:                  -8.201
REMARK INTRA:                  -1.233
REMARK UNBOUND:                -0.471
REMARK  Name = 
REMARK  7 active torsions:
REMARK  status: ('A' for Active; 'I' for Inactive)
REMARK    1  A    between atoms: C_1  and  C_2
REMARK    2  A    between atoms: C_2  and  N_3
REMARK    3  A    between atoms: C_2  and  C_16
REMARK    4  A    between atoms: C_4  and  C_6
REMARK    5  A    between atoms: C_19  and  O_20
REMARK    6  A    between atoms: O_20  and  C_21
REMARK    7  A    between atoms: C_21  and  C_22
REMARK                            x       y       z     vdW  Elec       q    Type
REMARK                         _______ _______ _______ _____ _____    ______ ____
ROOT
ATOM      1  C   UNL     1      48.135   9.249  15.251  0.00  0.00    +0.000 C 
ATOM      2  C   UNL     1      48.667   7.923  14.693  0.00  0.00    +0.000 C 
ENDROOT
BRANCH   2   3
ATOM      3  C   UNL     1      49.516   7.145  15.679  0.00  0.00    +0.000 A 
ATOM      4  C   UNL     1      48.906   6.373  16.683  0.00  0.00    +0.000 A 
ATOM      5  C   UNL     1      49.677   5.619  17.573  0.00  0.00    +0.000 A 
ATOM      6  C   UNL     1      51.068   5.628  17.473  0.00  0.00    +0.000 A 
ATOM      7  C   UNL     1      51.683   6.469  16.547  0.00  0.00    +0.000 A 
ATOM      8  C   UNL     1      50.915   7.216  15.656  0.00  0.00    +0.000 A 
BRANCH   6   9
ATOM      9  O   UNL     1      51.745   4.779  18.308  0.00  0.00    +0.000 OA
BRANCH   9  10
ATOM     10  C   UNL     1      51.349   3.409  18.181  0.00  0.00    +0.000 C 
BRANCH  10  11
ATOM     11  C   UNL     1      52.546   2.555  17.869  0.00  0.00    +0.000 A 
ATOM     12  C   UNL     1      52.395   1.191  17.606  0.00  0.00    +0.000 A 
ATOM     13  C   UNL     1      53.521   0.447  17.292  0.00  0.00    +0.000 A 
ATOM     14  N   UNL     1      54.764   0.965  17.222  0.00  0.00    +0.000 NA
ATOM     15  C   UNL     1      54.889   2.284  17.488  0.00  0.00    +0.000 A 
ATOM     16  C   UNL     1      53.825   3.111  17.810  0.00  0.00    +0.000 A 
ENDBRANCH  10  11
ENDBRANCH   9  10
ENDBRANCH   6   9
ENDBRANCH   2   3
BRANCH   2  17
ATOM     17  N   UNL     1      47.572   7.082  14.264  0.00  0.00    +0.000 N 
ATOM     18  C   UNL     1      47.702   6.159  13.263  0.00  0.00    +0.000 C 
ATOM     19  O   UNL     1      48.776   5.929  12.716  0.00  0.00    +0.000 OA
ATOM     20  H   UNL     1      46.645   7.359  14.571  0.00  0.00    +0.000 HD
BRANCH  18  21
ATOM     21  C   UNL     1      46.490   5.412  12.919  0.00  0.00    +0.000 A 
ATOM     22  C   UNL     1      46.458   4.036  13.099  0.00  0.00    +0.000 A 
ATOM     23  S   UNL     1      44.968   3.328  12.665  0.00  0.00    +0.000 S 
ATOM     24  C   UNL     1      44.335   4.829  12.173  0.00  0.00    +0.000 A 
ATOM     25  N   UNL     1      43.082   4.923  11.653  0.00  0.00    +0.000 NA
ATOM     26  C   UNL     1      42.743   6.113  11.288  0.00  0.00    +0.000 A 
ATOM     27  N   UNL     1      43.538   7.224  11.405  0.00  0.00    +0.000 N 
ATOM     28  C   UNL     1      44.790   7.189  11.973  0.00  0.00    +0.000 A 
ATOM     29  O   UNL     1      45.442   8.212  12.145  0.00  0.00    +0.000 OA
ATOM     30  C   UNL     1      45.234   5.862  12.367  0.00  0.00    +0.000 A 
ATOM     31  H   UNL     1      43.201   8.131  11.121  0.00  0.00    +0.000 HD
ENDBRANCH  18  21
ENDBRANCH   2  17
TORSDOF 6
ENDMDL
