MODEL 1
REMARK VINA RESULT:    -8.487      0.000      0.000
REMARK INTER + INTRA:         -13.865
REMARK INTER:                 -12.704
REMARK INTRA:                  -1.161
REMARK UNBOUND:                -1.161
REMARK  Name = 
REMARK  9 active torsions:
REMARK  status: ('A' for Active; 'I' for Inactive)
REMARK    1  A    between atoms: N_1  and  C_2
REMARK    2  A    between atoms: C_2  and  C_3
REMARK    3  A    between atoms: C_3  and  C_4
REMARK    4  A    between atoms: C_4  and  N_5
REMARK    5  A    between atoms: C_4  and  C_18
REMARK    6  A    between atoms: C_6  and  C_8
REMARK    7  A    between atoms: C_21  and  O_22
REMARK    8  A    between atoms: O_22  and  C_23
REMARK    9  A    between atoms: C_23  and  C_24
REMARK                            x       y       z     vdW  Elec       q    Type
REMARK                         _______ _______ _______ _____ _____    ______ ____
ROOT
ATOM      1  C   UNL     1      46.615   7.818  12.854  0.00  0.00    +0.000 C 
ENDROOT
BRANCH   1   2
ATOM      2  C   UNL     1      45.919   6.732  12.037  0.00  0.00    +0.000 A 
ATOM      3  C   UNL     1      46.358   6.426  10.739  0.00  0.00    +0.000 A 
ATOM      4  C   UNL     1      45.691   5.468   9.969  0.00  0.00    +0.000 A 
ATOM      5  C   UNL     1      44.607   4.773  10.501  0.00  0.00    +0.000 A 
ATOM      6  C   UNL     1      44.136   5.097  11.773  0.00  0.00    +0.000 A 
ATOM      7  C   UNL     1      44.784   6.071  12.531  0.00  0.00    +0.000 A 
BRANCH   5   8
ATOM      8  O   UNL     1      44.074   3.795   9.703  0.00  0.00    +0.000 OA
BRANCH   8   9
ATOM      9  C   UNL     1      44.787   2.552   9.737  0.00  0.00    +0.000 C 
BRANCH   9  10
ATOM     10  C   UNL     1      45.630   2.361   8.500  0.00  0.00    +0.000 A 
ATOM     11  C   UNL     1      45.702   3.338   7.513  0.00  0.00    +0.000 A 
ATOM     12  C   UNL     1      46.480   3.099   6.384  0.00  0.00    +0.000 A 
ATOM     13  C   UNL     1      47.151   1.888   6.263  0.00  0.00    +0.000 A 
ATOM     14  C   UNL     1      47.014   0.959   7.278  0.00  0.00    +0.000 A 
ATOM     15  N   UNL     1      46.268   1.164   8.386  0.00  0.00    +0.000 NA
ENDBRANCH   9  10
ENDBRANCH   8   9
ENDBRANCH   5   8
ENDBRANCH   1   2
BRANCH   1  16
ATOM     16  N   UNL     1      47.136   7.243  14.092  0.00  0.00    +0.000 N 
ATOM     17  C   UNL     1      48.421   6.793  14.248  0.00  0.00    +0.000 C 
ATOM     18  O   UNL     1      49.267   6.880  13.361  0.00  0.00    +0.000 OA
ATOM     19  H   UNL     1      46.439   6.886  14.740  0.00  0.00    +0.000 HD
BRANCH  17  20
ATOM     20  C   UNL     1      48.762   6.229  15.559  0.00  0.00    +0.000 A 
ATOM     21  C   UNL     1      49.775   6.804  16.315  0.00  0.00    +0.000 A 
ATOM     22  S   UNL     1      50.084   5.987  17.779  0.00  0.00    +0.000 S 
ATOM     23  C   UNL     1      48.892   4.819  17.441  0.00  0.00    +0.000 A 
ATOM     24  N   UNL     1      48.686   3.767  18.276  0.00  0.00    +0.000 NA
ATOM     25  C   UNL     1      47.775   2.940  17.878  0.00  0.00    +0.000 A 
ATOM     26  N   UNL     1      47.032   3.090  16.736  0.00  0.00    +0.000 N 
ATOM     27  C   UNL     1      47.163   4.170  15.899  0.00  0.00    +0.000 A 
ATOM     28  O   UNL     1      46.404   4.342  14.952  0.00  0.00    +0.000 OA
ATOM     29  C   UNL     1      48.226   5.088  16.260  0.00  0.00    +0.000 A 
ATOM     30  H   UNL     1      46.299   2.432  16.507  0.00  0.00    +0.000 HD
ENDBRANCH  17  20
ENDBRANCH   1  16
BRANCH   1  31
ATOM     31  C   UNL     1      45.651   8.998  13.111  0.00  0.00    +0.000 C 
BRANCH  31  32
ATOM     32  C   UNL     1      45.273   9.748  11.830  0.00  0.00    +0.000 C 
BRANCH  32  33
ATOM     33  N   UNL     1      43.873   9.520  11.485  0.00  0.00    +0.000 NA
ATOM     34  H   UNL     1      43.791   9.422  10.475  0.00  0.00    +0.000 HD
ATOM     35  H   UNL     1      43.322  10.338  11.743  0.00  0.00    +0.000 HD
ENDBRANCH  32  33
ENDBRANCH  31  32
ENDBRANCH   1  31
TORSDOF 9
ENDMDL
MODEL 2
REMARK VINA RESULT:    -8.292      1.942      2.526
REMARK INTER + INTRA:         -13.573
REMARK INTER:                 -11.880
REMARK INTRA:                  -1.693
REMARK UNBOUND:                -1.161
REMARK  Name = 
REMARK  9 active torsions:
REMARK  status: ('A' for Active; 'I' for Inactive)
REMARK    1  A    between atoms: N_1  and  C_2
REMARK    2  A    between atoms: C_2  and  C_3
REMARK    3  A    between atoms: C_3  and  C_4
REMARK    4  A    between atoms: C_4  and  N_5
REMARK    5  A    between atoms: C_4  and  C_18
REMARK    6  A    between atoms: C_6  and  C_8
REMARK    7  A    between atoms: C_21  and  O_22
REMARK    8  A    between atoms: O_22  and  C_23
REMARK    9  A    between atoms: C_23  and  C_24
REMARK                            x       y       z     vdW  Elec       q    Type
REMARK                         _______ _______ _______ _____ _____    ______ ____
ROOT
ATOM      1  C   UNL     1      47.408   6.802  13.392  0.00  0.00    +0.000 C 
ENDROOT
BRANCH   1   2
ATOM      2  C   UNL     1      46.529   5.924  12.506  0.00  0.00    +0.000 A 
ATOM      3  C   UNL     1      46.141   6.361  11.230  0.00  0.00    +0.000 A 
ATOM      4  C   UNL     1      45.293   5.582  10.437  0.00  0.00    +0.000 A 
ATOM      5  C   UNL     1      44.860   4.337  10.888  0.00  0.00    +0.000 A 
ATOM      6  C   UNL     1      45.204   3.910  12.170  0.00  0.00    +0.000 A 
ATOM      7  C   UNL     1      46.027   4.698  12.973  0.00  0.00    +0.000 A 
BRANCH   5   8
ATOM      8  O   UNL     1      44.104   3.611  10.006  0.00  0.00    +0.000 OA
BRANCH   8   9
ATOM      9  C   UNL     1      44.617   2.301   9.728  0.00  0.00    +0.000 C 
BRANCH   9  10
ATOM     10  C   UNL     1      45.532   2.305   8.528  0.00  0.00    +0.000 A 
ATOM     11  C   UNL     1      45.562   3.377   7.643  0.00  0.00    +0.000 A 
ATOM     12  C   UNL     1      46.412   3.318   6.541  0.00  0.00    +0.000 A 
ATOM     13  C   UNL     1      47.194   2.186   6.345  0.00  0.00    +0.000 A 
ATOM     14  C   UNL     1      47.093   1.154   7.260  0.00  0.00    +0.000 A 
ATOM     15  N   UNL     1      46.281   1.184   8.338  0.00  0.00    +0.000 NA
ENDBRANCH   9  10
ENDBRANCH   8   9
ENDBRANCH   5   8
ENDBRANCH   1   2
BRANCH   1  16
ATOM     16  N   UNL     1      47.487   6.224  14.732  0.00  0.00    +0.000 N 
ATOM     17  C   UNL     1      48.635   6.176  15.479  0.00  0.00    +0.000 C 
ATOM     18  O   UNL     1      49.696   6.663  15.098  0.00  0.00    +0.000 OA
ATOM     19  H   UNL     1      46.749   5.569  14.974  0.00  0.00    +0.000 HD
BRANCH  17  20
ATOM     20  C   UNL     1      48.530   5.541  16.798  0.00  0.00    +0.000 A 
ATOM     21  C   UNL     1      48.621   4.159  16.907  0.00  0.00    +0.000 A 
ATOM     22  S   UNL     1      48.414   3.584  18.499  0.00  0.00    +0.000 S 
ATOM     23  C   UNL     1      48.168   5.159  19.094  0.00  0.00    +0.000 A 
ATOM     24  N   UNL     1      47.863   5.375  20.401  0.00  0.00    +0.000 NA
ATOM     25  C   UNL     1      47.669   6.616  20.707  0.00  0.00    +0.000 A 
ATOM     26  N   UNL     1      47.784   7.661  19.828  0.00  0.00    +0.000 N 
ATOM     27  C   UNL     1      48.153   7.495  18.516  0.00  0.00    +0.000 A 
ATOM     28  O   UNL     1      48.367   8.454  17.784  0.00  0.00    +0.000 OA
ATOM     29  C   UNL     1      48.306   6.113  18.103  0.00  0.00    +0.000 A 
ATOM     30  H   UNL     1      47.667   8.615  20.142  0.00  0.00    +0.000 HD
ENDBRANCH  17  20
ENDBRANCH   1  16
BRANCH   1  31
ATOM     31  C   UNL     1      46.877   8.253  13.407  0.00  0.00    +0.000 C 
BRANCH  31  32
ATOM     32  C   UNL     1      47.983   9.290  13.622  0.00  0.00    +0.000 C 
BRANCH  32  33
ATOM     33  N   UNL     1      48.193   9.543  15.044  0.00  0.00    +0.000 NA
ATOM     34  H   UNL     1      47.520   8.998  15.581  0.00  0.00    +0.000 HD
ATOM     35  H   UNL     1      48.000  10.523  15.247  0.00  0.00    +0.000 HD
ENDBRANCH  32  33
ENDBRANCH  31  32
ENDBRANCH   1  31
TORSDOF 9
ENDMDL
MODEL 3
REMARK VINA RESULT:    -8.074      2.164      2.703
REMARK INTER + INTRA:         -13.246
REMARK INTER:                 -11.704
REMARK INTRA:                  -1.542
REMARK UNBOUND:                -1.161
REMARK  Name = 
REMARK  9 active torsions:
REMARK  status: ('A' for Active; 'I' for Inactive)
REMARK    1  A    between atoms: N_1  and  C_2
REMARK    2  A    between atoms: C_2  and  C_3
REMARK    3  A    between atoms: C_3  and  C_4
REMARK    4  A    between atoms: C_4  and  N_5
REMARK    5  A    between atoms: C_4  and  C_18
REMARK    6  A    between atoms: C_6  and  C_8
REMARK    7  A    between atoms: C_21  and  O_22
REMARK    8  A    between atoms: O_22  and  C_23
REMARK    9  A    between atoms: C_23  and  C_24
REMARK                            x       y       z     vdW  Elec       q    Type
REMARK                         _______ _______ _______ _____ _____    ______ ____
ROOT
ATOM      1  C   UNL     1      48.336   6.976  13.387  0.00  0.00    +0.000 C 
ENDROOT
BRANCH   1   2
ATOM      2  C   UNL     1      47.229   6.143  12.746  0.00  0.00    +0.000 A 
ATOM      3  C   UNL     1      46.628   6.558  11.547  0.00  0.00    +0.000 A 
ATOM      4  C   UNL     1      45.580   5.825  10.984  0.00  0.00    +0.000 A 
ATOM      5  C   UNL     1      45.149   4.644  11.585  0.00  0.00    +0.000 A 
ATOM      6  C   UNL     1      45.709   4.243  12.797  0.00  0.00    +0.000 A 
ATOM      7  C   UNL     1      46.736   4.988  13.374  0.00  0.00    +0.000 A 
BRANCH   5   8
ATOM      8  O   UNL     1      44.176   3.952  10.914  0.00  0.00    +0.000 OA
BRANCH   8   9
ATOM      9  C   UNL     1      44.096   4.254   9.514  0.00  0.00    +0.000 C 
BRANCH   9  10
ATOM     10  C   UNL     1      45.078   3.434   8.712  0.00  0.00    +0.000 A 
ATOM     11  C   UNL     1      45.264   2.079   8.961  0.00  0.00    +0.000 A 
ATOM     12  C   UNL     1      46.198   1.377   8.203  0.00  0.00    +0.000 A 
ATOM     13  C   UNL     1      46.930   2.050   7.232  0.00  0.00    +0.000 A 
ATOM     14  C   UNL     1      46.701   3.402   7.058  0.00  0.00    +0.000 A 
ATOM     15  N   UNL     1      45.800   4.108   7.776  0.00  0.00    +0.000 NA
ENDBRANCH   9  10
ENDBRANCH   8   9
ENDBRANCH   5   8
ENDBRANCH   1   2
BRANCH   1  16
ATOM     16  N   UNL     1      48.145   7.012  14.836  0.00  0.00    +0.000 N 
ATOM     17  C   UNL     1      49.153   6.835  15.746  0.00  0.00    +0.000 C 
ATOM     18  O   UNL     1      50.326   6.674  15.416  0.00  0.00    +0.000 OA
ATOM     19  H   UNL     1      47.195   6.853  15.160  0.00  0.00    +0.000 HD
BRANCH  17  20
ATOM     20  C   UNL     1      48.772   6.887  17.163  0.00  0.00    +0.000 A 
ATOM     21  C   UNL     1      48.366   8.091  17.724  0.00  0.00    +0.000 A 
ATOM     22  S   UNL     1      48.021   7.986  19.391  0.00  0.00    +0.000 S 
ATOM     23  C   UNL     1      48.429   6.334  19.426  0.00  0.00    +0.000 A 
ATOM     24  N   UNL     1      48.419   5.634  20.592  0.00  0.00    +0.000 NA
ATOM     25  C   UNL     1      48.783   4.400  20.477  0.00  0.00    +0.000 A 
ATOM     26  N   UNL     1      49.127   3.795  19.296  0.00  0.00    +0.000 N 
ATOM     27  C   UNL     1      49.089   4.446  18.087  0.00  0.00    +0.000 A 
ATOM     28  O   UNL     1      49.282   3.852  17.033  0.00  0.00    +0.000 OA
ATOM     29  C   UNL     1      48.761   5.856  18.172  0.00  0.00    +0.000 A 
ATOM     30  H   UNL     1      49.356   2.811  19.267  0.00  0.00    +0.000 HD
ENDBRANCH  17  20
ENDBRANCH   1  16
BRANCH   1  31
ATOM     31  C   UNL     1      48.376   8.388  12.762  0.00  0.00    +0.000 C 
BRANCH  31  32
ATOM     32  C   UNL     1      49.800   8.861  12.453  0.00  0.00    +0.000 C 
BRANCH  32  33
ATOM     33  N   UNL     1      50.769   7.798  12.701  0.00  0.00    +0.000 NA
ATOM     34  H   UNL     1      51.451   7.787  11.945  0.00  0.00    +0.000 HD
ATOM     35  H   UNL     1      50.296   6.895  12.679  0.00  0.00    +0.000 HD
ENDBRANCH  32  33
ENDBRANCH  31  32
ENDBRANCH   1  31
TORSDOF 9
ENDMDL
MODEL 4
REMARK VINA RESULT:    -7.823      2.518      4.723
REMARK INTER + INTRA:         -12.872
REMARK INTER:                 -11.477
REMARK INTRA:                  -1.395
REMARK UNBOUND:                -1.161
REMARK  Name = 
REMARK  9 active torsions:
REMARK  status: ('A' for Active; 'I' for Inactive)
REMARK    1  A    between atoms: N_1  and  C_2
REMARK    2  A    between atoms: C_2  and  C_3
REMARK    3  A    between atoms: C_3  and  C_4
REMARK    4  A    between atoms: C_4  and  N_5
REMARK    5  A    between atoms: C_4  and  C_18
REMARK    6  A    between atoms: C_6  and  C_8
REMARK    7  A    between atoms: C_21  and  O_22
REMARK    8  A    between atoms: O_22  and  C_23
REMARK    9  A    between atoms: C_23  and  C_24
REMARK                            x       y       z     vdW  Elec       q    Type
REMARK                         _______ _______ _______ _____ _____    ______ ____
ROOT
ATOM      1  C   UNL     1      47.128   5.432  14.452  0.00  0.00    +0.000 C 
ENDROOT
BRANCH   1   2
ATOM      2  C   UNL     1      46.343   5.030  13.206  0.00  0.00    +0.000 A 
ATOM      3  C   UNL     1      45.864   3.719  13.058  0.00  0.00    +0.000 A 
ATOM      4  C   UNL     1      45.190   3.334  11.895  0.00  0.00    +0.000 A 
ATOM      5  C   UNL     1      44.945   4.265  10.887  0.00  0.00    +0.000 A 
ATOM      6  C   UNL     1      45.451   5.558  11.004  0.00  0.00    +0.000 A 
ATOM      7  C   UNL     1      46.147   5.935  12.151  0.00  0.00    +0.000 A 
BRANCH   5   8
ATOM      8  O   UNL     1      44.203   3.816   9.826  0.00  0.00    +0.000 OA
BRANCH   8   9
ATOM      9  C   UNL     1      44.459   2.452   9.462  0.00  0.00    +0.000 C 
BRANCH   9  10
ATOM     10  C   UNL     1      45.522   2.352   8.395  0.00  0.00    +0.000 A 
ATOM     11  C   UNL     1      45.793   3.414   7.539  0.00  0.00    +0.000 A 
ATOM     12  C   UNL     1      46.770   3.258   6.560  0.00  0.00    +0.000 A 
ATOM     13  C   UNL     1      47.437   2.044   6.452  0.00  0.00    +0.000 A 
ATOM     14  C   UNL     1      47.097   1.029   7.328  0.00  0.00    +0.000 A 
ATOM     15  N   UNL     1      46.155   1.152   8.288  0.00  0.00    +0.000 NA
ENDBRANCH   9  10
ENDBRANCH   8   9
ENDBRANCH   5   8
ENDBRANCH   1   2
BRANCH   1  16
ATOM     16  N   UNL     1      48.325   6.173  14.060  0.00  0.00    +0.000 N 
ATOM     17  C   UNL     1      48.887   7.172  14.811  0.00  0.00    +0.000 C 
ATOM     18  O   UNL     1      48.452   7.501  15.912  0.00  0.00    +0.000 OA
ATOM     19  H   UNL     1      48.550   6.154  13.070  0.00  0.00    +0.000 HD
BRANCH  17  20
ATOM     20  C   UNL     1      50.079   7.819  14.249  0.00  0.00    +0.000 A 
ATOM     21  C   UNL     1      51.302   7.693  14.897  0.00  0.00    +0.000 A 
ATOM     22  S   UNL     1      52.565   8.558  14.147  0.00  0.00    +0.000 S 
ATOM     23  C   UNL     1      51.517   9.153  12.945  0.00  0.00    +0.000 A 
ATOM     24  N   UNL     1      51.956  10.030  12.004  0.00  0.00    +0.000 NA
ATOM     25  C   UNL     1      51.045  10.425  11.176  0.00  0.00    +0.000 A 
ATOM     26  N   UNL     1      49.743   9.997  11.187  0.00  0.00    +0.000 N 
ATOM     27  C   UNL     1      49.273   9.063  12.078  0.00  0.00    +0.000 A 
ATOM     28  O   UNL     1      48.140   8.607  11.990  0.00  0.00    +0.000 OA
ATOM     29  C   UNL     1      50.237   8.646  13.079  0.00  0.00    +0.000 A 
ATOM     30  H   UNL     1      49.091  10.307  10.480  0.00  0.00    +0.000 HD
ENDBRANCH  17  20
ENDBRANCH   1  16
BRANCH   1  31
ATOM     31  C   UNL     1      47.458   4.185  15.304  0.00  0.00    +0.000 C 
BRANCH  31  32
ATOM     32  C   UNL     1      47.191   4.397  16.797  0.00  0.00    +0.000 C 
BRANCH  32  33
ATOM     33  N   UNL     1      46.651   3.187  17.408  0.00  0.00    +0.000 NA
ATOM     34  H   UNL     1      46.682   2.429  16.728  0.00  0.00    +0.000 HD
ATOM     35  H   UNL     1      45.669   3.330  17.638  0.00  0.00    +0.000 HD
ENDBRANCH  32  33
ENDBRANCH  31  32
ENDBRANCH   1  31
TORSDOF 9
ENDMDL
MODEL 5
REMARK VINA RESULT:    -7.630      2.796      4.446
REMARK INTER + INTRA:         -12.583
REMARK INTER:                 -10.754
REMARK INTRA:                  -1.829
REMARK UNBOUND:                -1.161
REMARK  Name = 
REMARK  9 active torsions:
REMARK  status: ('A' for Active; 'I' for Inactive)
REMARK    1  A    between atoms: N_1  and  C_2
REMARK    2  A    between atoms: C_2  and  C_3
REMARK    3  A    between atoms: C_3  and  C_4
REMARK    4  A    between atoms: C_4  and  N_5
REMARK    5  A    between atoms: C_4  and  C_18
REMARK    6  A    between atoms: C_6  and  C_8
REMARK    7  A    between atoms: C_21  and  O_22
REMARK    8  A    between atoms: O_22  and  C_23
REMARK    9  A    between atoms: C_23  and  C_24
REMARK                            x       y       z     vdW  Elec       q    Type
REMARK                         _______ _______ _______ _____ _____    ______ ____
ROOT
ATOM      1  C   UNL     1      46.982   5.604  14.052  0.00  0.00    +0.000 C 
ENDROOT
BRANCH   1   2
ATOM      2  C   UNL     1      46.219   5.023  12.865  0.00  0.00    +0.000 A 
ATOM      3  C   UNL     1      45.991   5.798  11.716  0.00  0.00    +0.000 A 
ATOM      4  C   UNL     1      45.247   5.287  10.649  0.00  0.00    +0.000 A 
ATOM      5  C   UNL     1      44.761   3.982  10.694  0.00  0.00    +0.000 A 
ATOM      6  C   UNL     1      44.944   3.218  11.845  0.00  0.00    +0.000 A 
ATOM      7  C   UNL     1      45.662   3.736  12.922  0.00  0.00    +0.000 A 
BRANCH   5   8
ATOM      8  O   UNL     1      44.119   3.543   9.566  0.00  0.00    +0.000 OA
BRANCH   8   9
ATOM      9  C   UNL     1      44.489   2.221   9.154  0.00  0.00    +0.000 C 
BRANCH   9  10
ATOM     10  C   UNL     1      45.626   2.246   8.162  0.00  0.00    +0.000 A 
ATOM     11  C   UNL     1      45.819   3.326   7.307  0.00  0.00    +0.000 A 
ATOM     12  C   UNL     1      46.874   3.286   6.398  0.00  0.00    +0.000 A 
ATOM     13  C   UNL     1      47.694   2.165   6.358  0.00  0.00    +0.000 A 
ATOM     14  C   UNL     1      47.426   1.124   7.227  0.00  0.00    +0.000 A 
ATOM     15  N   UNL     1      46.413   1.136   8.120  0.00  0.00    +0.000 NA
ENDBRANCH   9  10
ENDBRANCH   8   9
ENDBRANCH   5   8
ENDBRANCH   1   2
BRANCH   1  16
ATOM     16  N   UNL     1      48.089   6.427  13.568  0.00  0.00    +0.000 N 
ATOM     17  C   UNL     1      48.066   7.796  13.531  0.00  0.00    +0.000 C 
ATOM     18  O   UNL     1      47.118   8.457  13.949  0.00  0.00    +0.000 OA
ATOM     19  H   UNL     1      48.754   5.958  12.961  0.00  0.00    +0.000 HD
BRANCH  17  20
ATOM     20  C   UNL     1      49.263   8.456  12.995  0.00  0.00    +0.000 A 
ATOM     21  C   UNL     1      49.163   9.252  11.862  0.00  0.00    +0.000 A 
ATOM     22  S   UNL     1      50.656   9.888  11.339  0.00  0.00    +0.000 S 
ATOM     23  C   UNL     1      51.493   9.098  12.593  0.00  0.00    +0.000 A 
ATOM     24  N   UNL     1      52.847   9.168  12.685  0.00  0.00    +0.000 NA
ATOM     25  C   UNL     1      53.352   8.493  13.665  0.00  0.00    +0.000 A 
ATOM     26  N   UNL     1      52.620   7.780  14.578  0.00  0.00    +0.000 N 
ATOM     27  C   UNL     1      51.248   7.735  14.562  0.00  0.00    +0.000 A 
ATOM     28  O   UNL     1      50.614   7.193  15.459  0.00  0.00    +0.000 OA
ATOM     29  C   UNL     1      50.636   8.413  13.435  0.00  0.00    +0.000 A 
ATOM     30  H   UNL     1      53.074   7.313  15.352  0.00  0.00    +0.000 HD
ENDBRANCH  17  20
ENDBRANCH   1  16
BRANCH   1  31
ATOM     31  C   UNL     1      47.456   4.472  14.992  0.00  0.00    +0.000 C 
BRANCH  31  32
ATOM     32  C   UNL     1      47.400   4.865  16.471  0.00  0.00    +0.000 C 
BRANCH  32  33
ATOM     33  N   UNL     1      48.210   6.052  16.728  0.00  0.00    +0.000 NA
ATOM     34  H   UNL     1      47.630   6.882  16.612  0.00  0.00    +0.000 HD
ATOM     35  H   UNL     1      48.950   6.116  16.030  0.00  0.00    +0.000 HD
ENDBRANCH  32  33
ENDBRANCH  31  32
ENDBRANCH   1  31
TORSDOF 9
ENDMDL
MODEL 6
REMARK VINA RESULT:    -7.071      4.573      8.553
REMARK INTER + INTRA:         -11.746
REMARK INTER:                 -10.758
REMARK INTRA:                  -0.988
REMARK UNBOUND:                -1.161
REMARK  Name = 
REMARK  9 active torsions:
REMARK  status: ('A' for Active; 'I' for Inactive)
REMARK    1  A    between atoms: N_1  and  C_2
REMARK    2  A    between atoms: C_2  and  C_3
REMARK    3  A    between atoms: C_3  and  C_4
REMARK    4  A    between atoms: C_4  and  N_5
REMARK    5  A    between atoms: C_4  and  C_18
REMARK    6  A    between atoms: C_6  and  C_8
REMARK    7  A    between atoms: C_21  and  O_22
REMARK    8  A    between atoms: O_22  and  C_23
REMARK    9  A    between atoms: C_23  and  C_24
REMARK                            x       y       z     vdW  Elec       q    Type
REMARK                         _______ _______ _______ _____ _____    ______ ____
ROOT
ATOM      1  C   UNL     1      48.547   5.724  17.272  0.00  0.00    +0.000 C 
ENDROOT
BRANCH   1   2
ATOM      2  C   UNL     1      49.439   4.486  17.279  0.00  0.00    +0.000 A 
ATOM      3  C   UNL     1      48.898   3.217  17.019  0.00  0.00    +0.000 A 
ATOM      4  C   UNL     1      49.702   2.074  17.076  0.00  0.00    +0.000 A 
ATOM      5  C   UNL     1      51.065   2.189  17.346  0.00  0.00    +0.000 A 
ATOM      6  C   UNL     1      51.605   3.438  17.646  0.00  0.00    +0.000 A 
ATOM      7  C   UNL     1      50.799   4.575  17.617  0.00  0.00    +0.000 A 
BRANCH   5   8
ATOM      8  O   UNL     1      51.784   1.025  17.295  0.00  0.00    +0.000 OA
BRANCH   8   9
ATOM      9  C   UNL     1      53.159   1.163  17.682  0.00  0.00    +0.000 C 
BRANCH   9  10
ATOM     10  C   UNL     1      53.876  -0.165  17.669  0.00  0.00    +0.000 A 
ATOM     11  C   UNL     1      54.602  -0.586  16.560  0.00  0.00    +0.000 A 
ATOM     12  C   UNL     1      55.227  -1.830  16.596  0.00  0.00    +0.000 A 
ATOM     13  C   UNL     1      55.095  -2.625  17.729  0.00  0.00    +0.000 A 
ATOM     14  C   UNL     1      54.340  -2.144  18.783  0.00  0.00    +0.000 A 
ATOM     15  N   UNL     1      53.725  -0.941  18.777  0.00  0.00    +0.000 NA
ENDBRANCH   9  10
ENDBRANCH   8   9
ENDBRANCH   5   8
ENDBRANCH   1   2
BRANCH   1  16
ATOM     16  N   UNL     1      47.752   5.750  16.046  0.00  0.00    +0.000 N 
ATOM     17  C   UNL     1      48.230   6.169  14.831  0.00  0.00    +0.000 C 
ATOM     18  O   UNL     1      49.395   6.519  14.661  0.00  0.00    +0.000 OA
ATOM     19  H   UNL     1      46.744   5.754  16.174  0.00  0.00    +0.000 HD
BRANCH  17  20
ATOM     20  C   UNL     1      47.281   6.142  13.712  0.00  0.00    +0.000 A 
ATOM     21  C   UNL     1      46.935   7.326  13.073  0.00  0.00    +0.000 A 
ATOM     22  S   UNL     1      45.776   7.124  11.839  0.00  0.00    +0.000 S 
ATOM     23  C   UNL     1      45.674   5.451  12.135  0.00  0.00    +0.000 A 
ATOM     24  N   UNL     1      44.792   4.671  11.455  0.00  0.00    +0.000 NA
ATOM     25  C   UNL     1      44.798   3.427  11.805  0.00  0.00    +0.000 A 
ATOM     26  N   UNL     1      45.629   2.889  12.753  0.00  0.00    +0.000 N 
ATOM     27  C   UNL     1      46.578   3.626  13.418  0.00  0.00    +0.000 A 
ATOM     28  O   UNL     1      47.389   3.098  14.169  0.00  0.00    +0.000 OA
ATOM     29  C   UNL     1      46.559   5.045  13.116  0.00  0.00    +0.000 A 
ATOM     30  H   UNL     1      45.618   1.897  12.946  0.00  0.00    +0.000 HD
ENDBRANCH  17  20
ENDBRANCH   1  16
BRANCH   1  31
ATOM     31  C   UNL     1      49.399   7.002  17.449  0.00  0.00    +0.000 C 
BRANCH  31  32
ATOM     32  C   UNL     1      48.633   8.137  18.134  0.00  0.00    +0.000 C 
BRANCH  32  33
ATOM     33  N   UNL     1      47.266   7.732  18.444  0.00  0.00    +0.000 NA
ATOM     34  H   UNL     1      46.636   8.124  17.746  0.00  0.00    +0.000 HD
ATOM     35  H   UNL     1      46.988   8.130  19.340  0.00  0.00    +0.000 HD
ENDBRANCH  32  33
ENDBRANCH  31  32
ENDBRANCH   1  31
TORSDOF 9
ENDMDL
MODEL 7
REMARK VINA RESULT:    -6.967      3.373      7.784
REMARK INTER + INTRA:         -11.589
REMARK INTER:                  -9.939
REMARK INTRA:                  -1.651
REMARK UNBOUND:                -1.161
REMARK  Name = 
REMARK  9 active torsions:
REMARK  status: ('A' for Active; 'I' for Inactive)
REMARK    1  A    between atoms: N_1  and  C_2
REMARK    2  A    between atoms: C_2  and  C_3
REMARK    3  A    between atoms: C_3  and  C_4
REMARK    4  A    between atoms: C_4  and  N_5
REMARK    5  A    between atoms: C_4  and  C_18
REMARK    6  A    between atoms: C_6  and  C_8
REMARK    7  A    between atoms: C_21  and  O_22
REMARK    8  A    between atoms: O_22  and  C_23
REMARK    9  A    between atoms: C_23  and  C_24
REMARK                            x       y       z     vdW  Elec       q    Type
REMARK                         _______ _______ _______ _____ _____    ______ ____
ROOT
ATOM      1  C   UNL     1      48.178   7.525  12.936  0.00  0.00    +0.000 C 
ENDROOT
BRANCH   1   2
ATOM      2  C   UNL     1      48.620   6.944  14.276  0.00  0.00    +0.000 A 
ATOM      3  C   UNL     1      49.807   7.382  14.885  0.00  0.00    +0.000 A 
ATOM      4  C   UNL     1      50.242   6.815  16.087  0.00  0.00    +0.000 A 
ATOM      5  C   UNL     1      49.476   5.838  16.719  0.00  0.00    +0.000 A 
ATOM      6  C   UNL     1      48.318   5.365  16.103  0.00  0.00    +0.000 A 
ATOM      7  C   UNL     1      47.897   5.910  14.891  0.00  0.00    +0.000 A 
BRANCH   5   8
ATOM      8  O   UNL     1      49.940   5.405  17.933  0.00  0.00    +0.000 OA
BRANCH   8   9
ATOM      9  C   UNL     1      51.353   5.158  17.970  0.00  0.00    +0.000 C 
BRANCH   9  10
ATOM     10  C   UNL     1      51.662   3.687  17.839  0.00  0.00    +0.000 A 
ATOM     11  C   UNL     1      50.696   2.776  17.426  0.00  0.00    +0.000 A 
ATOM     12  C   UNL     1      51.033   1.427  17.344  0.00  0.00    +0.000 A 
ATOM     13  C   UNL     1      52.317   1.024  17.691  0.00  0.00    +0.000 A 
ATOM     14  C   UNL     1      53.216   1.988  18.110  0.00  0.00    +0.000 A 
ATOM     15  N   UNL     1      52.918   3.302  18.198  0.00  0.00    +0.000 NA
ENDBRANCH   9  10
ENDBRANCH   8   9
ENDBRANCH   5   8
ENDBRANCH   1   2
BRANCH   1  16
ATOM     16  N   UNL     1      47.451   6.509  12.177  0.00  0.00    +0.000 N 
ATOM     17  C   UNL     1      46.231   6.719  11.589  0.00  0.00    +0.000 C 
ATOM     18  O   UNL     1      45.661   7.807  11.612  0.00  0.00    +0.000 OA
ATOM     19  H   UNL     1      47.716   5.546  12.363  0.00  0.00    +0.000 HD
BRANCH  17  20
ATOM     20  C   UNL     1      45.641   5.576  10.882  0.00  0.00    +0.000 A 
ATOM     21  C   UNL     1      45.700   5.518   9.495  0.00  0.00    +0.000 A 
ATOM     22  S   UNL     1      44.912   4.159   8.833  0.00  0.00    +0.000 S 
ATOM     23  C   UNL     1      44.441   3.614  10.375  0.00  0.00    +0.000 A 
ATOM     24  N   UNL     1      43.660   2.511  10.521  0.00  0.00    +0.000 NA
ATOM     25  C   UNL     1      43.351   2.233  11.744  0.00  0.00    +0.000 A 
ATOM     26  N   UNL     1      43.777   2.942  12.836  0.00  0.00    +0.000 N 
ATOM     27  C   UNL     1      44.619   4.023  12.740  0.00  0.00    +0.000 A 
ATOM     28  O   UNL     1      45.083   4.564  13.737  0.00  0.00    +0.000 OA
ATOM     29  C   UNL     1      44.933   4.423  11.382  0.00  0.00    +0.000 A 
ATOM     30  H   UNL     1      43.539   2.643  13.772  0.00  0.00    +0.000 HD
ENDBRANCH  17  20
ENDBRANCH   1  16
BRANCH   1  31
ATOM     31  C   UNL     1      49.395   8.081  12.162  0.00  0.00    +0.000 C 
BRANCH  31  32
ATOM     32  C   UNL     1      49.205   9.535  11.721  0.00  0.00    +0.000 C 
BRANCH  32  33
ATOM     33  N   UNL     1      47.802   9.928  11.805  0.00  0.00    +0.000 NA
ATOM     34  H   UNL     1      47.264   9.155  12.193  0.00  0.00    +0.000 HD
ATOM     35  H   UNL     1      47.438  10.092  10.867  0.00  0.00    +0.000 HD
ENDBRANCH  32  33
ENDBRANCH  31  32
ENDBRANCH   1  31
TORSDOF 9
ENDMDL
MODEL 8
REMARK VINA RESULT:    -6.965      3.182      5.302
REMARK INTER + INTRA:         -11.587
REMARK INTER:                 -10.018
REMARK INTRA:                  -1.569
REMARK UNBOUND:                -1.161
REMARK  Name = 
REMARK  9 active torsions:
REMARK  status: ('A' for Active; 'I' for Inactive)
REMARK    1  A    between atoms: N_1  and  C_2
REMARK    2  A    between atoms: C_2  and  C_3
REMARK    3  A    between atoms: C_3  and  C_4
REMARK    4  A    between atoms: C_4  and  N_5
REMARK    5  A    between atoms: C_4  and  C_18
REMARK    6  A    between atoms: C_6  and  C_8
REMARK    7  A    between atoms: C_21  and  O_22
REMARK    8  A    between atoms: O_22  and  C_23
REMARK    9  A    between atoms: C_23  and  C_24
REMARK                            x       y       z     vdW  Elec       q    Type
REMARK                         _______ _______ _______ _____ _____    ______ ____
ROOT
ATOM      1  C   UNL     1      49.298   6.488  17.289  0.00  0.00    +0.000 C 
ENDROOT
BRANCH   1   2
ATOM      2  C   UNL     1      48.433   5.783  16.248  0.00  0.00    +0.000 A 
ATOM      3  C   UNL     1      47.870   4.526  16.523  0.00  0.00    +0.000 A 
ATOM      4  C   UNL     1      47.121   3.854  15.552  0.00  0.00    +0.000 A 
ATOM      5  C   UNL     1      46.885   4.447  14.314  0.00  0.00    +0.000 A 
ATOM      6  C   UNL     1      47.473   5.675  14.015  0.00  0.00    +0.000 A 
ATOM      7  C   UNL     1      48.243   6.334  14.971  0.00  0.00    +0.000 A 
BRANCH   5   8
ATOM      8  O   UNL     1      46.069   3.750  13.462  0.00  0.00    +0.000 OA
BRANCH   8   9
ATOM      9  C   UNL     1      45.054   4.546  12.834  0.00  0.00    +0.000 C 
BRANCH   9  10
ATOM     10  C   UNL     1      45.045   4.353  11.337  0.00  0.00    +0.000 A 
ATOM     11  C   UNL     1      44.569   3.181  10.759  0.00  0.00    +0.000 A 
ATOM     12  C   UNL     1      44.603   3.051   9.374  0.00  0.00    +0.000 A 
ATOM     13  C   UNL     1      45.126   4.085   8.606  0.00  0.00    +0.000 A 
ATOM     14  C   UNL     1      45.598   5.210   9.256  0.00  0.00    +0.000 A 
ATOM     15  N   UNL     1      45.575   5.365  10.597  0.00  0.00    +0.000 NA
ENDBRANCH   9  10
ENDBRANCH   8   9
ENDBRANCH   5   8
ENDBRANCH   1   2
BRANCH   1  16
ATOM     16  N   UNL     1      50.290   5.554  17.818  0.00  0.00    +0.000 N 
ATOM     17  C   UNL     1      51.558   5.419  17.317  0.00  0.00    +0.000 C 
ATOM     18  O   UNL     1      51.987   6.114  16.399  0.00  0.00    +0.000 OA
ATOM     19  H   UNL     1      49.920   4.777  18.358  0.00  0.00    +0.000 HD
BRANCH  17  20
ATOM     20  C   UNL     1      52.413   4.416  17.963  0.00  0.00    +0.000 A 
ATOM     21  C   UNL     1      53.505   4.823  18.718  0.00  0.00    +0.000 A 
ATOM     22  S   UNL     1      54.425   3.531  19.343  0.00  0.00    +0.000 S 
ATOM     23  C   UNL     1      53.411   2.381  18.602  0.00  0.00    +0.000 A 
ATOM     24  N   UNL     1      53.684   1.052  18.683  0.00  0.00    +0.000 NA
ATOM     25  C   UNL     1      52.851   0.296  18.046  0.00  0.00    +0.000 A 
ATOM     26  N   UNL     1      51.754   0.750  17.361  0.00  0.00    +0.000 N 
ATOM     27  C   UNL     1      51.405   2.077  17.309  0.00  0.00    +0.000 A 
ATOM     28  O   UNL     1      50.355   2.443  16.795  0.00  0.00    +0.000 OA
ATOM     29  C   UNL     1      52.351   2.975  17.943  0.00  0.00    +0.000 A 
ATOM     30  H   UNL     1      51.113   0.102  16.924  0.00  0.00    +0.000 HD
ENDBRANCH  17  20
ENDBRANCH   1  16
BRANCH   1  31
ATOM     31  C   UNL     1      48.413   7.099  18.399  0.00  0.00    +0.000 C 
BRANCH  31  32
ATOM     32  C   UNL     1      48.601   6.412  19.755  0.00  0.00    +0.000 C 
BRANCH  32  33
ATOM     33  N   UNL     1      47.685   5.285  19.901  0.00  0.00    +0.000 NA
ATOM     34  H   UNL     1      48.058   4.641  20.597  0.00  0.00    +0.000 HD
ATOM     35  H   UNL     1      47.637   4.769  19.024  0.00  0.00    +0.000 HD
ENDBRANCH  32  33
ENDBRANCH  31  32
ENDBRANCH   1  31
TORSDOF 9
ENDMDL
MODEL 9
REMARK VINA RESULT:    -6.886      2.501      4.513
REMARK INTER + INTRA:         -11.470
REMARK INTER:                  -9.802
REMARK INTRA:                  -1.668
REMARK UNBOUND:                -1.161
REMARK  Name = 
REMARK  9 active torsions:
REMARK  status: ('A' for Active; 'I' for Inactive)
REMARK    1  A    between atoms: N_1  and  C_2
REMARK    2  A    between atoms: C_2  and  C_3
REMARK    3  A    between atoms: C_3  and  C_4
REMARK    4  A    between atoms: C_4  and  N_5
REMARK    5  A    between atoms: C_4  and  C_18
REMARK    6  A    between atoms: C_6  and  C_8
REMARK    7  A    between atoms: C_21  and  O_22
REMARK    8  A    between atoms: O_22  and  C_23
REMARK    9  A    between atoms: C_23  and  C_24
REMARK                            x       y       z     vdW  Elec       q    Type
REMARK                         _______ _______ _______ _____ _____    ______ ____
ROOT
ATOM      1  C   UNL     1      47.502   5.077  15.448  0.00  0.00    +0.000 C 
ENDROOT
BRANCH   1   2
ATOM      2  C   UNL     1      46.832   5.147  14.078  0.00  0.00    +0.000 A 
ATOM      3  C   UNL     1      46.916   6.315  13.303  0.00  0.00    +0.000 A 
ATOM      4  C   UNL     1      46.260   6.401  12.072  0.00  0.00    +0.000 A 
ATOM      5  C   UNL     1      45.551   5.308  11.577  0.00  0.00    +0.000 A 
ATOM      6  C   UNL     1      45.426   4.158  12.355  0.00  0.00    +0.000 A 
ATOM      7  C   UNL     1      46.057   4.081  13.596  0.00  0.00    +0.000 A 
BRANCH   5   8
ATOM      8  O   UNL     1      45.016   5.459  10.325  0.00  0.00    +0.000 OA
BRANCH   8   9
ATOM      9  C   UNL     1      44.380   4.281   9.809  0.00  0.00    +0.000 C 
BRANCH   9  10
ATOM     10  C   UNL     1      45.292   3.522   8.877  0.00  0.00    +0.000 A 
ATOM     11  C   UNL     1      45.965   4.160   7.841  0.00  0.00    +0.000 A 
ATOM     12  C   UNL     1      46.777   3.405   6.999  0.00  0.00    +0.000 A 
ATOM     13  C   UNL     1      46.882   2.034   7.203  0.00  0.00    +0.000 A 
ATOM     14  C   UNL     1      46.165   1.470   8.243  0.00  0.00    +0.000 A 
ATOM     15  N   UNL     1      45.372   2.178   9.077  0.00  0.00    +0.000 NA
ENDBRANCH   9  10
ENDBRANCH   8   9
ENDBRANCH   5   8
ENDBRANCH   1   2
BRANCH   1  16
ATOM     16  N   UNL     1      48.843   5.654  15.369  0.00  0.00    +0.000 N 
ATOM     17  C   UNL     1      49.308   6.627  16.213  0.00  0.00    +0.000 C 
ATOM     18  O   UNL     1      48.645   7.069  17.149  0.00  0.00    +0.000 OA
ATOM     19  H   UNL     1      49.315   5.551  14.475  0.00  0.00    +0.000 HD
BRANCH  17  20
ATOM     20  C   UNL     1      50.676   7.101  15.972  0.00  0.00    +0.000 A 
ATOM     21  C   UNL     1      51.664   6.869  16.922  0.00  0.00    +0.000 A 
ATOM     22  S   UNL     1      53.176   7.541  16.513  0.00  0.00    +0.000 S 
ATOM     23  C   UNL     1      52.558   8.189  15.065  0.00  0.00    +0.000 A 
ATOM     24  N   UNL     1      53.332   8.959  14.255  0.00  0.00    +0.000 NA
ATOM     25  C   UNL     1      52.724   9.412  13.209  0.00  0.00    +0.000 A 
ATOM     26  N   UNL     1      51.420   9.139  12.886  0.00  0.00    +0.000 N 
ATOM     27  C   UNL     1      50.623   8.314  13.641  0.00  0.00    +0.000 A 
ATOM     28  O   UNL     1      49.502   7.988  13.267  0.00  0.00    +0.000 OA
ATOM     29  C   UNL     1      51.235   7.842  14.868  0.00  0.00    +0.000 A 
ATOM     30  H   UNL     1      51.018   9.485  12.025  0.00  0.00    +0.000 HD
ENDBRANCH  17  20
ENDBRANCH   1  16
BRANCH   1  31
ATOM     31  C   UNL     1      47.516   3.620  15.965  0.00  0.00    +0.000 C 
BRANCH  31  32
ATOM     32  C   UNL     1      47.193   3.516  17.458  0.00  0.00    +0.000 C 
BRANCH  32  33
ATOM     33  N   UNL     1      46.794   4.812  17.998  0.00  0.00    +0.000 NA
ATOM     34  H   UNL     1      47.295   5.547  17.501  0.00  0.00    +0.000 HD
ATOM     35  H   UNL     1      47.080   4.876  18.974  0.00  0.00    +0.000 HD
ENDBRANCH  32  33
ENDBRANCH  31  32
ENDBRANCH   1  31
TORSDOF 9
ENDMDL
