MODEL 1
REMARK VINA RESULT:    -7.330      0.000      0.000
REMARK INTER + INTRA:         -11.279
REMARK INTER:                 -10.330
REMARK INTRA:                  -0.950
REMARK UNBOUND:                -0.950
REMARK  Name = 
REMARK  9 active torsions:
REMARK  status: ('A' for Active; 'I' for Inactive)
REMARK    1  A    between atoms: C_1  and  N_2
REMARK    2  A    between atoms: N_2  and  C_3
REMARK    3  A    between atoms: N_2  and  C_4
REMARK    4  A    between atoms: C_4  and  C_5
REMARK    5  A    between atoms: C_8  and  C_9
REMARK    6  A    between atoms: C_9  and  C_10
REMARK    7  A    between atoms: C_13  and  C_14
REMARK    8  A    between atoms: C_14  and  N_15
REMARK    9  A    between atoms: C_16  and  C_18
REMARK                            x       y       z     vdW  Elec       q    Type
REMARK                         _______ _______ _______ _____ _____    ______ ____
ROOT
ATOM      1  C   UNL     1      45.920   6.005  12.732  0.00  0.00    +0.000 A 
ATOM      2  C   UNL     1      46.697   5.145  13.506  0.00  0.00    +0.000 A 
ATOM      3  C   UNL     1      47.683   5.687  14.328  0.00  0.00    +0.000 A 
ATOM      4  C   UNL     1      47.894   7.068  14.346  0.00  0.00    +0.000 A 
ATOM      5  C   UNL     1      47.091   7.842  13.518  0.00  0.00    +0.000 A 
ATOM      6  N   UNL     1      46.121   7.346  12.717  0.00  0.00    +0.000 NA
ENDROOT
BRANCH   1   7
ATOM      7  C   UNL     1      44.684   5.488  12.026  0.00  0.00    +0.000 C 
BRANCH   7  11
ATOM      8  C   UNL     1      45.575   3.689   8.245  0.00  0.00    +0.000 A 
ATOM      9  C   UNL     1      44.817   2.954   9.150  0.00  0.00    +0.000 A 
ATOM     10  C   UNL     1      44.498   3.525  10.377  0.00  0.00    +0.000 A 
ATOM     11  C   UNL     1      44.948   4.810  10.698  0.00  0.00    +0.000 A 
ATOM     12  C   UNL     1      45.683   5.473   9.720  0.00  0.00    +0.000 A 
ATOM     13  N   UNL     1      46.009   4.947   8.515  0.00  0.00    +0.000 NA
BRANCH   8  14
ATOM     14  C   UNL     1      45.939   3.090   6.897  0.00  0.00    +0.000 C 
BRANCH  14  16
ATOM     15  C   UNL     1      47.141   1.026   7.305  0.00  0.00    +0.000 C 
ATOM     16  N   UNL     1      47.259   2.418   6.859  0.00  0.00    +0.000 NA
ATOM     17  C   UNL     1      47.791   2.456   5.495  0.00  0.00    +0.000 C 
ENDBRANCH  14  16
ENDBRANCH   8  14
ENDBRANCH   7  11
ENDBRANCH   1   7
BRANCH   4  18
ATOM     18  C   UNL     1      48.900   7.703  15.260  0.00  0.00    +0.000 C 
BRANCH  18  19
ATOM     19  N   UNL     1      49.879   6.747  15.715  0.00  0.00    +0.000 N 
ATOM     20  C   UNL     1      49.993   6.420  17.044  0.00  0.00    +0.000 C 
ATOM     21  O   UNL     1      49.250   6.898  17.897  0.00  0.00    +0.000 OA
ATOM     22  H   UNL     1      50.654   6.541  15.091  0.00  0.00    +0.000 HD
BRANCH  20  23
ATOM     23  C   UNL     1      51.008   5.414  17.385  0.00  0.00    +0.000 A 
ATOM     24  C   UNL     1      52.272   5.817  17.797  0.00  0.00    +0.000 A 
ATOM     25  S   UNL     1      53.304   4.521  18.202  0.00  0.00    +0.000 S 
ATOM     26  C   UNL     1      52.112   3.375  17.792  0.00  0.00    +0.000 A 
ATOM     27  N   UNL     1      52.364   2.043  17.888  0.00  0.00    +0.000 NA
ATOM     28  C   UNL     1      51.381   1.288  17.517  0.00  0.00    +0.000 A 
ATOM     29  N   UNL     1      50.169   1.744  17.063  0.00  0.00    +0.000 N 
ATOM     30  C   UNL     1      49.865   3.083  16.978  0.00  0.00    +0.000 A 
ATOM     31  O   UNL     1      48.755   3.460  16.614  0.00  0.00    +0.000 OA
ATOM     32  C   UNL     1      50.936   3.974  17.371  0.00  0.00    +0.000 A 
ATOM     33  H   UNL     1      49.442   1.101  16.795  0.00  0.00    +0.000 HD
ENDBRANCH  20  23
ENDBRANCH  18  19
ENDBRANCH   4  18
TORSDOF 7
ENDMDL
MODEL 2
REMARK VINA RESULT:    -7.083      2.032      2.332
REMARK INTER + INTRA:         -10.930
REMARK INTER:                  -9.952
REMARK INTRA:                  -0.979
REMARK UNBOUND:                -0.950
REMARK  Name = 
REMARK  9 active torsions:
REMARK  status: ('A' for Active; 'I' for Inactive)
REMARK    1  A    between atoms: C_1  and  N_2
REMARK    2  A    between atoms: N_2  and  C_3
REMARK    3  A    between atoms: N_2  and  C_4
REMARK    4  A    between atoms: C_4  and  C_5
REMARK    5  A    between atoms: C_8  and  C_9
REMARK    6  A    between atoms: C_9  and  C_10
REMARK    7  A    between atoms: C_13  and  C_14
REMARK    8  A    between atoms: C_14  and  N_15
REMARK    9  A    between atoms: C_16  and  C_18
REMARK                            x       y       z     vdW  Elec       q    Type
REMARK                         _______ _______ _______ _____ _____    ______ ____
ROOT
ATOM      1  C   UNL     1      45.262   5.801  12.597  0.00  0.00    +0.000 A 
ATOM      2  C   UNL     1      45.413   7.186  12.582  0.00  0.00    +0.000 A 
ATOM      3  C   UNL     1      46.582   7.741  13.100  0.00  0.00    +0.000 A 
ATOM      4  C   UNL     1      47.566   6.911  13.643  0.00  0.00    +0.000 A 
ATOM      5  C   UNL     1      47.313   5.544  13.642  0.00  0.00    +0.000 A 
ATOM      6  N   UNL     1      46.193   4.978  13.138  0.00  0.00    +0.000 NA
ENDROOT
BRANCH   1   7
ATOM      7  C   UNL     1      44.134   5.149  11.824  0.00  0.00    +0.000 C 
BRANCH   7  11
ATOM      8  C   UNL     1      45.431   3.546   8.072  0.00  0.00    +0.000 A 
ATOM      9  C   UNL     1      44.584   2.766   8.853  0.00  0.00    +0.000 A 
ATOM     10  C   UNL     1      44.134   3.274  10.067  0.00  0.00    +0.000 A 
ATOM     11  C   UNL     1      44.542   4.540  10.499  0.00  0.00    +0.000 A 
ATOM     12  C   UNL     1      45.374   5.251   9.640  0.00  0.00    +0.000 A 
ATOM     13  N   UNL     1      45.828   4.788   8.451  0.00  0.00    +0.000 NA
BRANCH   8  14
ATOM     14  C   UNL     1      45.939   3.016   6.742  0.00  0.00    +0.000 C 
BRANCH  14  16
ATOM     15  C   UNL     1      47.195   1.010   7.264  0.00  0.00    +0.000 C 
ATOM     16  N   UNL     1      47.285   2.399   6.800  0.00  0.00    +0.000 NA
ATOM     17  C   UNL     1      47.901   2.436   5.471  0.00  0.00    +0.000 C 
ENDBRANCH  14  16
ENDBRANCH   8  14
ENDBRANCH   7  11
ENDBRANCH   1   7
BRANCH   4  18
ATOM     18  C   UNL     1      48.866   7.455  14.155  0.00  0.00    +0.000 C 
BRANCH  18  19
ATOM     19  N   UNL     1      48.989   7.279  15.580  0.00  0.00    +0.000 N 
ATOM     20  C   UNL     1      50.208   7.043  16.168  0.00  0.00    +0.000 C 
ATOM     21  O   UNL     1      51.247   7.005  15.515  0.00  0.00    +0.000 OA
ATOM     22  H   UNL     1      48.144   7.050  16.096  0.00  0.00    +0.000 HD
BRANCH  20  23
ATOM     23  C   UNL     1      50.214   6.907  17.630  0.00  0.00    +0.000 A 
ATOM     24  C   UNL     1      50.920   7.816  18.408  0.00  0.00    +0.000 A 
ATOM     25  S   UNL     1      50.774   7.540  20.085  0.00  0.00    +0.000 S 
ATOM     26  C   UNL     1      49.803   6.164  19.826  0.00  0.00    +0.000 A 
ATOM     27  N   UNL     1      49.345   5.427  20.873  0.00  0.00    +0.000 NA
ATOM     28  C   UNL     1      48.646   4.394  20.530  0.00  0.00    +0.000 A 
ATOM     29  N   UNL     1      48.358   4.035  19.238  0.00  0.00    +0.000 N 
ATOM     30  C   UNL     1      48.778   4.769  18.152  0.00  0.00    +0.000 A 
ATOM     31  O   UNL     1      48.465   4.449  17.010  0.00  0.00    +0.000 OA
ATOM     32  C   UNL     1      49.577   5.931  18.480  0.00  0.00    +0.000 A 
ATOM     33  H   UNL     1      47.801   3.220  19.039  0.00  0.00    +0.000 HD
ENDBRANCH  20  23
ENDBRANCH  18  19
ENDBRANCH   4  18
TORSDOF 7
ENDMDL
MODEL 3
REMARK VINA RESULT:    -6.686      3.524      9.204
REMARK INTER + INTRA:         -10.371
REMARK INTER:                  -9.212
REMARK INTRA:                  -1.159
REMARK UNBOUND:                -0.950
REMARK  Name = 
REMARK  9 active torsions:
REMARK  status: ('A' for Active; 'I' for Inactive)
REMARK    1  A    between atoms: C_1  and  N_2
REMARK    2  A    between atoms: N_2  and  C_3
REMARK    3  A    between atoms: N_2  and  C_4
REMARK    4  A    between atoms: C_4  and  C_5
REMARK    5  A    between atoms: C_8  and  C_9
REMARK    6  A    between atoms: C_9  and  C_10
REMARK    7  A    between atoms: C_13  and  C_14
REMARK    8  A    between atoms: C_14  and  N_15
REMARK    9  A    between atoms: C_16  and  C_18
REMARK                            x       y       z     vdW  Elec       q    Type
REMARK                         _______ _______ _______ _____ _____    ______ ____
ROOT
ATOM      1  C   UNL     1      48.926   5.256  17.275  0.00  0.00    +0.000 A 
ATOM      2  C   UNL     1      47.935   4.661  16.497  0.00  0.00    +0.000 A 
ATOM      3  C   UNL     1      47.646   5.204  15.247  0.00  0.00    +0.000 A 
ATOM      4  C   UNL     1      48.329   6.339  14.805  0.00  0.00    +0.000 A 
ATOM      5  C   UNL     1      49.279   6.881  15.663  0.00  0.00    +0.000 A 
ATOM      6  N   UNL     1      49.587   6.371  16.877  0.00  0.00    +0.000 NA
ENDROOT
BRANCH   1   7
ATOM      7  C   UNL     1      49.443   4.557  18.516  0.00  0.00    +0.000 C 
BRANCH   7  11
ATOM      8  C   UNL     1      52.964   2.170  18.033  0.00  0.00    +0.000 A 
ATOM      9  C   UNL     1      51.794   1.732  17.422  0.00  0.00    +0.000 A 
ATOM     10  C   UNL     1      50.642   2.501  17.548  0.00  0.00    +0.000 A 
ATOM     11  C   UNL     1      50.660   3.685  18.292  0.00  0.00    +0.000 A 
ATOM     12  C   UNL     1      51.882   4.050  18.849  0.00  0.00    +0.000 A 
ATOM     13  N   UNL     1      53.022   3.326  18.743  0.00  0.00    +0.000 NA
BRANCH   8  14
ATOM     14  C   UNL     1      54.237   1.350  17.912  0.00  0.00    +0.000 C 
BRANCH  14  16
ATOM     15  C   UNL     1      54.606  -0.538  16.438  0.00  0.00    +0.000 C 
ATOM     16  N   UNL     1      54.016  -0.101  17.708  0.00  0.00    +0.000 NA
ATOM     17  C   UNL     1      54.617  -0.850  18.814  0.00  0.00    +0.000 C 
ENDBRANCH  14  16
ENDBRANCH   8  14
ENDBRANCH   7  11
ENDBRANCH   1   7
BRANCH   4  18
ATOM     18  C   UNL     1      48.098   6.923  13.443  0.00  0.00    +0.000 C 
BRANCH  18  19
ATOM     19  N   UNL     1      47.376   6.009  12.592  0.00  0.00    +0.000 N 
ATOM     20  C   UNL     1      46.342   6.441  11.797  0.00  0.00    +0.000 C 
ATOM     21  O   UNL     1      46.010   7.622  11.748  0.00  0.00    +0.000 OA
ATOM     22  H   UNL     1      47.452   5.018  12.802  0.00  0.00    +0.000 HD
BRANCH  20  23
ATOM     23  C   UNL     1      45.699   5.425  10.953  0.00  0.00    +0.000 A 
ATOM     24  C   UNL     1      45.782   5.520   9.570  0.00  0.00    +0.000 A 
ATOM     25  S   UNL     1      45.024   4.230   8.750  0.00  0.00    +0.000 S 
ATOM     26  C   UNL     1      44.514   3.529  10.217  0.00  0.00    +0.000 A 
ATOM     27  N   UNL     1      43.778   2.386  10.224  0.00  0.00    +0.000 NA
ATOM     28  C   UNL     1      43.435   1.982  11.404  0.00  0.00    +0.000 A 
ATOM     29  N   UNL     1      43.766   2.613  12.576  0.00  0.00    +0.000 N 
ATOM     30  C   UNL     1      44.534   3.755  12.614  0.00  0.00    +0.000 A 
ATOM     31  O   UNL     1      44.854   4.270  13.681  0.00  0.00    +0.000 OA
ATOM     32  C   UNL     1      44.934   4.258  11.317  0.00  0.00    +0.000 A 
ATOM     33  H   UNL     1      43.473   2.241  13.465  0.00  0.00    +0.000 HD
ENDBRANCH  20  23
ENDBRANCH  18  19
ENDBRANCH   4  18
TORSDOF 7
ENDMDL
MODEL 4
REMARK VINA RESULT:    -6.657      3.818     10.188
REMARK INTER + INTRA:         -10.331
REMARK INTER:                  -9.615
REMARK INTRA:                  -0.716
REMARK UNBOUND:                -0.950
REMARK  Name = 
REMARK  9 active torsions:
REMARK  status: ('A' for Active; 'I' for Inactive)
REMARK    1  A    between atoms: C_1  and  N_2
REMARK    2  A    between atoms: N_2  and  C_3
REMARK    3  A    between atoms: N_2  and  C_4
REMARK    4  A    between atoms: C_4  and  C_5
REMARK    5  A    between atoms: C_8  and  C_9
REMARK    6  A    between atoms: C_9  and  C_10
REMARK    7  A    between atoms: C_13  and  C_14
REMARK    8  A    between atoms: C_14  and  N_15
REMARK    9  A    between atoms: C_16  and  C_18
REMARK                            x       y       z     vdW  Elec       q    Type
REMARK                         _______ _______ _______ _____ _____    ______ ____
ROOT
ATOM      1  C   UNL     1      51.620   3.188  17.769  0.00  0.00    +0.000 A 
ATOM      2  C   UNL     1      50.975   2.110  17.165  0.00  0.00    +0.000 A 
ATOM      3  C   UNL     1      49.597   2.175  16.971  0.00  0.00    +0.000 A 
ATOM      4  C   UNL     1      48.884   3.297  17.402  0.00  0.00    +0.000 A 
ATOM      5  C   UNL     1      49.609   4.308  18.021  0.00  0.00    +0.000 A 
ATOM      6  N   UNL     1      50.947   4.277  18.214  0.00  0.00    +0.000 NA
ENDROOT
BRANCH   1   7
ATOM      7  C   UNL     1      53.133   3.267  17.769  0.00  0.00    +0.000 C 
BRANCH   7  11
ATOM      8  C   UNL     1      55.080  -0.438  18.665  0.00  0.00    +0.000 A 
ATOM      9  C   UNL     1      54.717  -0.199  17.344  0.00  0.00    +0.000 A 
ATOM     10  C   UNL     1      54.100   1.006  17.025  0.00  0.00    +0.000 A 
ATOM     11  C   UNL     1      53.837   1.952  18.022  0.00  0.00    +0.000 A 
ATOM     12  C   UNL     1      54.256   1.629  19.309  0.00  0.00    +0.000 A 
ATOM     13  N   UNL     1      54.860   0.467  19.652  0.00  0.00    +0.000 NA
BRANCH   8  14
ATOM     14  C   UNL     1      55.754  -1.746  19.041  0.00  0.00    +0.000 C 
BRANCH  14  16
ATOM     15  C   UNL     1      55.603  -4.143  19.368  0.00  0.00    +0.000 C 
ATOM     16  N   UNL     1      54.872  -2.935  18.970  0.00  0.00    +0.000 NA
ATOM     17  C   UNL     1      53.718  -2.744  19.852  0.00  0.00    +0.000 C 
ENDBRANCH  14  16
ENDBRANCH   8  14
ENDBRANCH   7  11
ENDBRANCH   1   7
BRANCH   4  18
ATOM     18  C   UNL     1      47.411   3.440  17.159  0.00  0.00    +0.000 C 
BRANCH  18  19
ATOM     19  N   UNL     1      47.133   4.463  16.182  0.00  0.00    +0.000 N 
ATOM     20  C   UNL     1      47.166   4.193  14.836  0.00  0.00    +0.000 C 
ATOM     21  O   UNL     1      47.399   3.066  14.406  0.00  0.00    +0.000 OA
ATOM     22  H   UNL     1      47.195   5.430  16.489  0.00  0.00    +0.000 HD
BRANCH  20  23
ATOM     23  C   UNL     1      46.839   5.307  13.937  0.00  0.00    +0.000 A 
ATOM     24  C   UNL     1      47.716   6.378  13.813  0.00  0.00    +0.000 A 
ATOM     25  S   UNL     1      47.204   7.554  12.689  0.00  0.00    +0.000 S 
ATOM     26  C   UNL     1      45.767   6.697  12.367  0.00  0.00    +0.000 A 
ATOM     27  N   UNL     1      44.848   7.181  11.490  0.00  0.00    +0.000 NA
ATOM     28  C   UNL     1      43.793   6.443  11.365  0.00  0.00    +0.000 A 
ATOM     29  N   UNL     1      43.576   5.264  12.032  0.00  0.00    +0.000 N 
ATOM     30  C   UNL     1      44.493   4.726  12.906  0.00  0.00    +0.000 A 
ATOM     31  O   UNL     1      44.291   3.645  13.452  0.00  0.00    +0.000 OA
ATOM     32  C   UNL     1      45.689   5.520  13.093  0.00  0.00    +0.000 A 
ATOM     33  H   UNL     1      42.733   4.733  11.884  0.00  0.00    +0.000 HD
ENDBRANCH  20  23
ENDBRANCH  18  19
ENDBRANCH   4  18
TORSDOF 7
ENDMDL
MODEL 5
REMARK VINA RESULT:    -6.628      4.083      8.917
REMARK INTER + INTRA:         -10.291
REMARK INTER:                  -9.217
REMARK INTRA:                  -1.074
REMARK UNBOUND:                -0.950
REMARK  Name = 
REMARK  9 active torsions:
REMARK  status: ('A' for Active; 'I' for Inactive)
REMARK    1  A    between atoms: C_1  and  N_2
REMARK    2  A    between atoms: N_2  and  C_3
REMARK    3  A    between atoms: N_2  and  C_4
REMARK    4  A    between atoms: C_4  and  C_5
REMARK    5  A    between atoms: C_8  and  C_9
REMARK    6  A    between atoms: C_9  and  C_10
REMARK    7  A    between atoms: C_13  and  C_14
REMARK    8  A    between atoms: C_14  and  N_15
REMARK    9  A    between atoms: C_16  and  C_18
REMARK                            x       y       z     vdW  Elec       q    Type
REMARK                         _______ _______ _______ _____ _____    ______ ____
ROOT
ATOM      1  C   UNL     1      50.971   5.028  18.167  0.00  0.00    +0.000 A 
ATOM      2  C   UNL     1      50.922   3.679  17.819  0.00  0.00    +0.000 A 
ATOM      3  C   UNL     1      49.733   3.159  17.313  0.00  0.00    +0.000 A 
ATOM      4  C   UNL     1      48.611   3.982  17.185  0.00  0.00    +0.000 A 
ATOM      5  C   UNL     1      48.746   5.305  17.587  0.00  0.00    +0.000 A 
ATOM      6  N   UNL     1      49.890   5.839  18.073  0.00  0.00    +0.000 NA
ENDROOT
BRANCH   1   7
ATOM      7  C   UNL     1      52.300   5.686  18.479  0.00  0.00    +0.000 C 
BRANCH   7  11
ATOM      8  C   UNL     1      54.873   6.227  15.101  0.00  0.00    +0.000 A 
ATOM      9  C   UNL     1      55.238   5.277  16.050  0.00  0.00    +0.000 A 
ATOM     10  C   UNL     1      54.408   5.070  17.146  0.00  0.00    +0.000 A 
ATOM     11  C   UNL     1      53.235   5.818  17.297  0.00  0.00    +0.000 A 
ATOM     12  C   UNL     1      52.946   6.729  16.286  0.00  0.00    +0.000 A 
ATOM     13  N   UNL     1      53.731   6.953  15.205  0.00  0.00    +0.000 NA
BRANCH   8  14
ATOM     14  C   UNL     1      55.762   6.475  13.894  0.00  0.00    +0.000 C 
BRANCH  14  16
ATOM     15  C   UNL     1      55.448   7.328  11.648  0.00  0.00    +0.000 C 
ATOM     16  N   UNL     1      55.097   6.258  12.588  0.00  0.00    +0.000 NA
ATOM     17  C   UNL     1      55.507   4.964  12.037  0.00  0.00    +0.000 C 
ENDBRANCH  14  16
ENDBRANCH   8  14
ENDBRANCH   7  11
ENDBRANCH   1   7
BRANCH   4  18
ATOM     18  C   UNL     1      47.328   3.484  16.587  0.00  0.00    +0.000 C 
BRANCH  18  19
ATOM     19  N   UNL     1      46.762   4.446  15.675  0.00  0.00    +0.000 N 
ATOM     20  C   UNL     1      46.804   4.251  14.316  0.00  0.00    +0.000 C 
ATOM     21  O   UNL     1      47.292   3.238  13.820  0.00  0.00    +0.000 OA
ATOM     22  H   UNL     1      46.594   5.383  16.030  0.00  0.00    +0.000 HD
BRANCH  20  23
ATOM     23  C   UNL     1      46.171   5.285  13.487  0.00  0.00    +0.000 A 
ATOM     24  C   UNL     1      46.832   6.484  13.250  0.00  0.00    +0.000 A 
ATOM     25  S   UNL     1      45.976   7.546  12.226  0.00  0.00    +0.000 S 
ATOM     26  C   UNL     1      44.669   6.460  12.106  0.00  0.00    +0.000 A 
ATOM     27  N   UNL     1      43.565   6.775  11.377  0.00  0.00    +0.000 NA
ATOM     28  C   UNL     1      42.639   5.872  11.397  0.00  0.00    +0.000 A 
ATOM     29  N   UNL     1      42.719   4.682  12.074  0.00  0.00    +0.000 N 
ATOM     30  C   UNL     1      43.829   4.312  12.799  0.00  0.00    +0.000 A 
ATOM     31  O   UNL     1      43.889   3.220  13.356  0.00  0.00    +0.000 OA
ATOM     32  C   UNL     1      44.892   5.295  12.821  0.00  0.00    +0.000 A 
ATOM     33  H   UNL     1      41.963   4.017  12.043  0.00  0.00    +0.000 HD
ENDBRANCH  20  23
ENDBRANCH  18  19
ENDBRANCH   4  18
TORSDOF 7
ENDMDL
MODEL 6
REMARK VINA RESULT:    -6.611      2.377      2.802
REMARK INTER + INTRA:         -10.265
REMARK INTER:                  -9.213
REMARK INTRA:                  -1.052
REMARK UNBOUND:                -0.950
REMARK  Name = 
REMARK  9 active torsions:
REMARK  status: ('A' for Active; 'I' for Inactive)
REMARK    1  A    between atoms: C_1  and  N_2
REMARK    2  A    between atoms: N_2  and  C_3
REMARK    3  A    between atoms: N_2  and  C_4
REMARK    4  A    between atoms: C_4  and  C_5
REMARK    5  A    between atoms: C_8  and  C_9
REMARK    6  A    between atoms: C_9  and  C_10
REMARK    7  A    between atoms: C_13  and  C_14
REMARK    8  A    between atoms: C_14  and  N_15
REMARK    9  A    between atoms: C_16  and  C_18
REMARK                            x       y       z     vdW  Elec       q    Type
REMARK                         _______ _______ _______ _____ _____    ______ ____
ROOT
ATOM      1  C   UNL     1      45.681   6.411  12.421  0.00  0.00    +0.000 A 
ATOM      2  C   UNL     1      46.628   5.596  13.038  0.00  0.00    +0.000 A 
ATOM      3  C   UNL     1      47.591   6.185  13.854  0.00  0.00    +0.000 A 
ATOM      4  C   UNL     1      47.611   7.572  14.020  0.00  0.00    +0.000 A 
ATOM      5  C   UNL     1      46.646   8.305  13.340  0.00  0.00    +0.000 A 
ATOM      6  N   UNL     1      45.693   7.760  12.550  0.00  0.00    +0.000 NA
ENDROOT
BRANCH   1   7
ATOM      7  C   UNL     1      44.476   5.796  11.738  0.00  0.00    +0.000 C 
BRANCH   7  11
ATOM      8  C   UNL     1      45.524   3.654   8.183  0.00  0.00    +0.000 A 
ATOM      9  C   UNL     1      44.597   3.073   9.041  0.00  0.00    +0.000 A 
ATOM     10  C   UNL     1      44.226   3.759  10.193  0.00  0.00    +0.000 A 
ATOM     11  C   UNL     1      44.791   5.004  10.487  0.00  0.00    +0.000 A 
ATOM     12  C   UNL     1      45.694   5.511   9.558  0.00  0.00    +0.000 A 
ATOM     13  N   UNL     1      46.074   4.871   8.427  0.00  0.00    +0.000 NA
BRANCH   8  14
ATOM     14  C   UNL     1      45.948   2.927   6.918  0.00  0.00    +0.000 C 
BRANCH  14  16
ATOM     15  C   UNL     1      47.052   0.838   7.457  0.00  0.00    +0.000 C 
ATOM     16  N   UNL     1      47.249   2.225   7.021  0.00  0.00    +0.000 NA
ATOM     17  C   UNL     1      47.920   2.241   5.718  0.00  0.00    +0.000 C 
ENDBRANCH  14  16
ENDBRANCH   8  14
ENDBRANCH   7  11
ENDBRANCH   1   7
BRANCH   4  18
ATOM     18  C   UNL     1      48.588   8.246  14.936  0.00  0.00    +0.000 C 
BRANCH  18  19
ATOM     19  N   UNL     1      48.666   7.577  16.211  0.00  0.00    +0.000 N 
ATOM     20  C   UNL     1      48.356   8.229  17.379  0.00  0.00    +0.000 C 
ATOM     21  O   UNL     1      47.967   9.394  17.389  0.00  0.00    +0.000 OA
ATOM     22  H   UNL     1      49.218   6.726  16.257  0.00  0.00    +0.000 HD
BRANCH  20  23
ATOM     23  C   UNL     1      48.446   7.438  18.614  0.00  0.00    +0.000 A 
ATOM     24  C   UNL     1      47.370   7.397  19.491  0.00  0.00    +0.000 A 
ATOM     25  S   UNL     1      47.628   6.390  20.843  0.00  0.00    +0.000 S 
ATOM     26  C   UNL     1      49.208   6.015  20.328  0.00  0.00    +0.000 A 
ATOM     27  N   UNL     1      50.007   5.199  21.065  0.00  0.00    +0.000 NA
ATOM     28  C   UNL     1      51.189   5.024  20.571  0.00  0.00    +0.000 A 
ATOM     29  N   UNL     1      51.644   5.587  19.405  0.00  0.00    +0.000 N 
ATOM     30  C   UNL     1      50.858   6.395  18.615  0.00  0.00    +0.000 A 
ATOM     31  O   UNL     1      51.277   6.845  17.553  0.00  0.00    +0.000 OA
ATOM     32  C   UNL     1      49.526   6.634  19.130  0.00  0.00    +0.000 A 
ATOM     33  H   UNL     1      52.576   5.404  19.071  0.00  0.00    +0.000 HD
ENDBRANCH  20  23
ENDBRANCH  18  19
ENDBRANCH   4  18
TORSDOF 7
ENDMDL
MODEL 7
REMARK VINA RESULT:    -6.462      3.573      5.280
REMARK INTER + INTRA:         -10.057
REMARK INTER:                  -9.035
REMARK INTRA:                  -1.021
REMARK UNBOUND:                -0.950
REMARK  Name = 
REMARK  9 active torsions:
REMARK  status: ('A' for Active; 'I' for Inactive)
REMARK    1  A    between atoms: C_1  and  N_2
REMARK    2  A    between atoms: N_2  and  C_3
REMARK    3  A    between atoms: N_2  and  C_4
REMARK    4  A    between atoms: C_4  and  C_5
REMARK    5  A    between atoms: C_8  and  C_9
REMARK    6  A    between atoms: C_9  and  C_10
REMARK    7  A    between atoms: C_13  and  C_14
REMARK    8  A    between atoms: C_14  and  N_15
REMARK    9  A    between atoms: C_16  and  C_18
REMARK                            x       y       z     vdW  Elec       q    Type
REMARK                         _______ _______ _______ _____ _____    ______ ____
ROOT
ATOM      1  C   UNL     1      47.559   5.870  13.710  0.00  0.00    +0.000 A 
ATOM      2  C   UNL     1      48.214   6.386  14.827  0.00  0.00    +0.000 A 
ATOM      3  C   UNL     1      48.259   5.623  15.992  0.00  0.00    +0.000 A 
ATOM      4  C   UNL     1      47.632   4.375  16.032  0.00  0.00    +0.000 A 
ATOM      5  C   UNL     1      46.978   3.957  14.879  0.00  0.00    +0.000 A 
ATOM      6  N   UNL     1      46.926   4.672  13.733  0.00  0.00    +0.000 NA
ENDROOT
BRANCH   1   7
ATOM      7  C   UNL     1      47.703   6.547  12.363  0.00  0.00    +0.000 C 
BRANCH   7  11
ATOM      8  C   UNL     1      44.700   9.500  11.595  0.00  0.00    +0.000 A 
ATOM      9  C   UNL     1      45.930   9.935  12.075  0.00  0.00    +0.000 A 
ATOM     10  C   UNL     1      46.928   8.996  12.314  0.00  0.00    +0.000 A 
ATOM     11  C   UNL     1      46.688   7.637  12.089  0.00  0.00    +0.000 A 
ATOM     12  C   UNL     1      45.434   7.302  11.589  0.00  0.00    +0.000 A 
ATOM     13  N   UNL     1      44.442   8.190  11.344  0.00  0.00    +0.000 NA
BRANCH   8  14
ATOM     14  C   UNL     1      43.591  10.503  11.327  0.00  0.00    +0.000 C 
BRANCH  14  16
ATOM     15  C   UNL     1      41.245  10.324  10.747  0.00  0.00    +0.000 C 
ATOM     16  N   UNL     1      42.618  10.081  10.292  0.00  0.00    +0.000 NA
ATOM     17  C   UNL     1      42.865  10.824   9.053  0.00  0.00    +0.000 C 
ENDBRANCH  14  16
ENDBRANCH   8  14
ENDBRANCH   7  11
ENDBRANCH   1   7
BRANCH   4  18
ATOM     18  C   UNL     1      47.707   3.490  17.241  0.00  0.00    +0.000 C 
BRANCH  18  19
ATOM     19  N   UNL     1      49.072   3.239  17.629  0.00  0.00    +0.000 N 
ATOM     20  C   UNL     1      49.850   2.328  16.956  0.00  0.00    +0.000 C 
ATOM     21  O   UNL     1      49.431   1.715  15.978  0.00  0.00    +0.000 OA
ATOM     22  H   UNL     1      49.351   3.526  18.563  0.00  0.00    +0.000 HD
BRANCH  20  23
ATOM     23  C   UNL     1      51.233   2.176  17.425  0.00  0.00    +0.000 A 
ATOM     24  C   UNL     1      51.758   0.908  17.636  0.00  0.00    +0.000 A 
ATOM     25  S   UNL     1      53.391   0.916  18.128  0.00  0.00    +0.000 S 
ATOM     26  C   UNL     1      53.437   2.620  18.126  0.00  0.00    +0.000 A 
ATOM     27  N   UNL     1      54.566   3.287  18.484  0.00  0.00    +0.000 NA
ATOM     28  C   UNL     1      54.450   4.575  18.466  0.00  0.00    +0.000 A 
ATOM     29  N   UNL     1      53.311   5.256  18.117  0.00  0.00    +0.000 N 
ATOM     30  C   UNL     1      52.157   4.619  17.721  0.00  0.00    +0.000 A 
ATOM     31  O   UNL     1      51.169   5.256  17.369  0.00  0.00    +0.000 OA
ATOM     32  C   UNL     1      52.228   3.173  17.736  0.00  0.00    +0.000 A 
ATOM     33  H   UNL     1      53.289   6.263  18.117  0.00  0.00    +0.000 HD
ENDBRANCH  20  23
ENDBRANCH  18  19
ENDBRANCH   4  18
TORSDOF 7
ENDMDL
MODEL 8
REMARK VINA RESULT:    -6.417      3.262      9.284
REMARK INTER + INTRA:          -9.993
REMARK INTER:                  -8.973
REMARK INTRA:                  -1.020
REMARK UNBOUND:                -0.950
REMARK  Name = 
REMARK  9 active torsions:
REMARK  status: ('A' for Active; 'I' for Inactive)
REMARK    1  A    between atoms: C_1  and  N_2
REMARK    2  A    between atoms: N_2  and  C_3
REMARK    3  A    between atoms: N_2  and  C_4
REMARK    4  A    between atoms: C_4  and  C_5
REMARK    5  A    between atoms: C_8  and  C_9
REMARK    6  A    between atoms: C_9  and  C_10
REMARK    7  A    between atoms: C_13  and  C_14
REMARK    8  A    between atoms: C_14  and  N_15
REMARK    9  A    between atoms: C_16  and  C_18
REMARK                            x       y       z     vdW  Elec       q    Type
REMARK                         _______ _______ _______ _____ _____    ______ ____
ROOT
ATOM      1  C   UNL     1      49.132   7.708  15.838  0.00  0.00    +0.000 A 
ATOM      2  C   UNL     1      48.757   8.943  15.311  0.00  0.00    +0.000 A 
ATOM      3  C   UNL     1      48.194   8.986  14.037  0.00  0.00    +0.000 A 
ATOM      4  C   UNL     1      48.038   7.808  13.303  0.00  0.00    +0.000 A 
ATOM      5  C   UNL     1      48.469   6.629  13.899  0.00  0.00    +0.000 A 
ATOM      6  N   UNL     1      49.010   6.555  15.137  0.00  0.00    +0.000 NA
ENDROOT
BRANCH   1   7
ATOM      7  C   UNL     1      49.508   7.586  17.301  0.00  0.00    +0.000 C 
BRANCH   7  11
ATOM      8  C   UNL     1      52.008   4.249  18.267  0.00  0.00    +0.000 A 
ATOM      9  C   UNL     1      52.504   5.194  17.375  0.00  0.00    +0.000 A 
ATOM     10  C   UNL     1      51.718   6.297  17.061  0.00  0.00    +0.000 A 
ATOM     11  C   UNL     1      50.444   6.441  17.622  0.00  0.00    +0.000 A 
ATOM     12  C   UNL     1      50.045   5.454  18.518  0.00  0.00    +0.000 A 
ATOM     13  N   UNL     1      50.787   4.370  18.847  0.00  0.00    +0.000 NA
BRANCH   8  14
ATOM     14  C   UNL     1      52.845   3.033  18.628  0.00  0.00    +0.000 C 
BRANCH  14  16
ATOM     15  C   UNL     1      54.299   1.382  17.612  0.00  0.00    +0.000 C 
ATOM     16  N   UNL     1      52.991   2.042  17.537  0.00  0.00    +0.000 NA
ATOM     17  C   UNL     1      51.927   1.040  17.638  0.00  0.00    +0.000 C 
ENDBRANCH  14  16
ENDBRANCH   8  14
ENDBRANCH   7  11
ENDBRANCH   1   7
BRANCH   4  18
ATOM     18  C   UNL     1      47.381   7.796  11.955  0.00  0.00    +0.000 C 
BRANCH  18  19
ATOM     19  N   UNL     1      46.728   6.537  11.696  0.00  0.00    +0.000 N 
ATOM     20  C   UNL     1      45.360   6.421  11.738  0.00  0.00    +0.000 C 
ATOM     21  O   UNL     1      44.633   7.385  11.963  0.00  0.00    +0.000 OA
ATOM     22  H   UNL     1      47.293   5.696  11.766  0.00  0.00    +0.000 HD
BRANCH  20  23
ATOM     23  C   UNL     1      44.806   5.096  11.430  0.00  0.00    +0.000 A 
ATOM     24  C   UNL     1      44.059   4.418  12.385  0.00  0.00    +0.000 A 
ATOM     25  S   UNL     1      43.451   2.920  11.842  0.00  0.00    +0.000 S 
ATOM     26  C   UNL     1      44.211   3.103  10.327  0.00  0.00    +0.000 A 
ATOM     27  N   UNL     1      44.109   2.137   9.375  0.00  0.00    +0.000 NA
ATOM     28  C   UNL     1      44.758   2.394   8.287  0.00  0.00    +0.000 A 
ATOM     29  N   UNL     1      45.496   3.529   8.062  0.00  0.00    +0.000 N 
ATOM     30  C   UNL     1      45.601   4.542   8.987  0.00  0.00    +0.000 A 
ATOM     31  O   UNL     1      46.229   5.567   8.739  0.00  0.00    +0.000 OA
ATOM     32  C   UNL     1      44.901   4.299  10.232  0.00  0.00    +0.000 A 
ATOM     33  H   UNL     1      45.974   3.670   7.187  0.00  0.00    +0.000 HD
ENDBRANCH  20  23
ENDBRANCH  18  19
ENDBRANCH   4  18
TORSDOF 7
ENDMDL
MODEL 9
REMARK VINA RESULT:    -6.254      5.385      8.258
REMARK INTER + INTRA:          -9.763
REMARK INTER:                  -8.659
REMARK INTRA:                  -1.105
REMARK UNBOUND:                -0.950
REMARK  Name = 
REMARK  9 active torsions:
REMARK  status: ('A' for Active; 'I' for Inactive)
REMARK    1  A    between atoms: C_1  and  N_2
REMARK    2  A    between atoms: N_2  and  C_3
REMARK    3  A    between atoms: N_2  and  C_4
REMARK    4  A    between atoms: C_4  and  C_5
REMARK    5  A    between atoms: C_8  and  C_9
REMARK    6  A    between atoms: C_9  and  C_10
REMARK    7  A    between atoms: C_13  and  C_14
REMARK    8  A    between atoms: C_14  and  N_15
REMARK    9  A    between atoms: C_16  and  C_18
REMARK                            x       y       z     vdW  Elec       q    Type
REMARK                         _______ _______ _______ _____ _____    ______ ____
ROOT
ATOM      1  C   UNL     1      50.705   8.685  12.197  0.00  0.00    +0.000 A 
ATOM      2  C   UNL     1      50.164   7.401  12.235  0.00  0.00    +0.000 A 
ATOM      3  C   UNL     1      48.781   7.252  12.163  0.00  0.00    +0.000 A 
ATOM      4  C   UNL     1      47.961   8.381  12.080  0.00  0.00    +0.000 A 
ATOM      5  C   UNL     1      48.589   9.621  12.079  0.00  0.00    +0.000 A 
ATOM      6  N   UNL     1      49.929   9.795  12.139  0.00  0.00    +0.000 NA
ENDROOT
BRANCH   1   7
ATOM      7  C   UNL     1      52.197   8.879  12.019  0.00  0.00    +0.000 C 
BRANCH   7  11
ATOM      8  C   UNL     1      54.036   6.409   9.046  0.00  0.00    +0.000 A 
ATOM      9  C   UNL     1      52.930   7.163   8.669  0.00  0.00    +0.000 A 
ATOM     10  C   UNL     1      52.327   7.988   9.612  0.00  0.00    +0.000 A 
ATOM     11  C   UNL     1      52.818   8.042  10.921  0.00  0.00    +0.000 A 
ATOM     12  C   UNL     1      53.940   7.267  11.196  0.00  0.00    +0.000 A 
ATOM     13  N   UNL     1      54.552   6.456  10.301  0.00  0.00    +0.000 NA
BRANCH   8  14
ATOM     14  C   UNL     1      54.714   5.498   8.036  0.00  0.00    +0.000 C 
BRANCH  14  16
ATOM     15  C   UNL     1      54.675   5.788   5.630  0.00  0.00    +0.000 C 
ATOM     16  N   UNL     1      53.940   5.277   6.792  0.00  0.00    +0.000 NA
ATOM     17  C   UNL     1      53.683   3.845   6.621  0.00  0.00    +0.000 C 
ENDBRANCH  14  16
ENDBRANCH   8  14
ENDBRANCH   7  11
ENDBRANCH   1   7
BRANCH   4  18
ATOM     18  C   UNL     1      46.473   8.269  11.937  0.00  0.00    +0.000 C 
BRANCH  18  19
ATOM     19  N   UNL     1      46.062   6.902  11.732  0.00  0.00    +0.000 N 
ATOM     20  C   UNL     1      44.754   6.584  11.458  0.00  0.00    +0.000 C 
ATOM     21  O   UNL     1      43.886   7.445  11.344  0.00  0.00    +0.000 OA
ATOM     22  H   UNL     1      46.683   6.173  12.069  0.00  0.00    +0.000 HD
BRANCH  20  23
ATOM     23  C   UNL     1      44.459   5.161  11.241  0.00  0.00    +0.000 A 
ATOM     24  C   UNL     1      43.708   4.459  12.175  0.00  0.00    +0.000 A 
ATOM     25  S   UNL     1      43.418   2.836  11.738  0.00  0.00    +0.000 S 
ATOM     26  C   UNL     1      44.331   3.003  10.309  0.00  0.00    +0.000 A 
ATOM     27  N   UNL     1      44.505   1.951   9.466  0.00  0.00    +0.000 NA
ATOM     28  C   UNL     1      45.244   2.211   8.436  0.00  0.00    +0.000 A 
ATOM     29  N   UNL     1      45.817   3.429   8.170  0.00  0.00    +0.000 N 
ATOM     30  C   UNL     1      45.641   4.526   8.982  0.00  0.00    +0.000 A 
ATOM     31  O   UNL     1      46.129   5.615   8.693  0.00  0.00    +0.000 OA
ATOM     32  C   UNL     1      44.832   4.285  10.158  0.00  0.00    +0.000 A 
ATOM     33  H   UNL     1      46.377   3.568   7.345  0.00  0.00    +0.000 HD
ENDBRANCH  20  23
ENDBRANCH  18  19
ENDBRANCH   4  18
TORSDOF 7
ENDMDL
