MODEL 1
REMARK VINA RESULT:    -8.219      0.000      0.000
REMARK INTER + INTRA:         -12.467
REMARK INTER:                 -11.582
REMARK INTRA:                  -0.885
REMARK UNBOUND:                -0.885
REMARK  Name = 
REMARK  8 active torsions:
REMARK  status: ('A' for Active; 'I' for Inactive)
REMARK    1  A    between atoms: C_1  and  C_2
REMARK    2  A    between atoms: C_2  and  C_3
REMARK    3  A    between atoms: C_2  and  C_23
REMARK    4  A    between atoms: C_3  and  N_4
REMARK    5  A    between atoms: C_9  and  C_10
REMARK    6  A    between atoms: C_14  and  O_15
REMARK    7  A    between atoms: O_15  and  C_16
REMARK    8  A    between atoms: C_16  and  C_17
REMARK                            x       y       z     vdW  Elec       q    Type
REMARK                         _______ _______ _______ _____ _____    ______ ____
ROOT
ATOM      1  N   UNL     1      45.306   5.026  11.843  0.00  0.00    +0.000 N 
ATOM      2  C   UNL     1      45.861   6.202  12.345  0.00  0.00    +0.000 A 
ATOM      3  C   UNL     1      45.339   7.471  12.068  0.00  0.00    +0.000 A 
ATOM      4  N   UNL     1      45.885   8.622  12.508  0.00  0.00    +0.000 NA
ATOM      5  C   UNL     1      46.974   8.461  13.290  0.00  0.00    +0.000 A 
ATOM      6  C   UNL     1      47.505   7.215  13.632  0.00  0.00    +0.000 A 
ATOM      7  N   UNL     1      46.942   6.065  13.149  0.00  0.00    +0.000 NA
ATOM      8  H   UNL     1      45.975   4.275  11.990  0.00  0.00    +0.000 HD
ENDROOT
BRANCH   6   9
ATOM      9  C   UNL     1      48.707   7.104  14.479  0.00  0.00    +0.000 A 
ATOM     10  C   UNL     1      49.761   7.999  14.426  0.00  0.00    +0.000 A 
ATOM     11  C   UNL     1      50.783   7.798  15.328  0.00  0.00    +0.000 A 
ATOM     12  N   UNL     1      50.796   6.803  16.234  0.00  0.00    +0.000 NA
ATOM     13  C   UNL     1      49.744   5.979  16.195  0.00  0.00    +0.000 A 
ATOM     14  N   UNL     1      48.709   6.073  15.358  0.00  0.00    +0.000 NA
BRANCH  13  15
ATOM     15  O   UNL     1      49.657   4.938  17.088  0.00  0.00    +0.000 OA
BRANCH  15  16
ATOM     16  C   UNL     1      48.322   4.443  17.224  0.00  0.00    +0.000 C 
BRANCH  16  17
ATOM     17  C   UNL     1      48.173   2.967  16.875  0.00  0.00    +0.000 C 
ATOM     18  F   UNL     1      49.322   2.269  16.995  0.00  0.00    +0.000 F 
ATOM     19  F   UNL     1      47.237   2.368  17.648  0.00  0.00    +0.000 F 
ATOM     20  F   UNL     1      47.762   2.833  15.588  0.00  0.00    +0.000 F 
ENDBRANCH  16  17
ENDBRANCH  15  16
ENDBRANCH  13  15
ENDBRANCH   6   9
BRANCH   1  21
ATOM     21  C   UNL     1      44.688   5.098  10.528  0.00  0.00    +0.000 C 
BRANCH  21  23
ATOM     22  C   UNL     1      43.719   2.741  10.910  0.00  0.00    +0.000 C 
ATOM     23  C   UNL     1      44.445   3.707  10.031  0.00  0.00    +0.000 C 
BRANCH  23  24
ATOM     24  C   UNL     1      45.269   3.226   8.911  0.00  0.00    +0.000 A 
ATOM     25  C   UNL     1      45.866   4.124   8.016  0.00  0.00    +0.000 A 
ATOM     26  C   UNL     1      46.725   3.663   7.015  0.00  0.00    +0.000 A 
ATOM     27  C   UNL     1      46.995   2.299   6.909  0.00  0.00    +0.000 A 
ATOM     28  C   UNL     1      46.390   1.404   7.782  0.00  0.00    +0.000 A 
ATOM     29 CL   UNL     1      46.737  -0.278   7.673  0.00  0.00    +0.000 Cl
ATOM     30  C   UNL     1      45.519   1.860   8.774  0.00  0.00    +0.000 A 
ENDBRANCH  23  24
ENDBRANCH  21  23
ENDBRANCH   1  21
TORSDOF 7
ENDMDL
MODEL 2
REMARK VINA RESULT:    -7.892      4.257      8.123
REMARK INTER + INTRA:         -12.006
REMARK INTER:                 -11.054
REMARK INTRA:                  -0.952
REMARK UNBOUND:                -0.885
REMARK  Name = 
REMARK  8 active torsions:
REMARK  status: ('A' for Active; 'I' for Inactive)
REMARK    1  A    between atoms: C_1  and  C_2
REMARK    2  A    between atoms: C_2  and  C_3
REMARK    3  A    between atoms: C_2  and  C_23
REMARK    4  A    between atoms: C_3  and  N_4
REMARK    5  A    between atoms: C_9  and  C_10
REMARK    6  A    between atoms: C_14  and  O_15
REMARK    7  A    between atoms: O_15  and  C_16
REMARK    8  A    between atoms: C_16  and  C_17
REMARK                            x       y       z     vdW  Elec       q    Type
REMARK                         _______ _______ _______ _____ _____    ______ ____
ROOT
ATOM      1  N   UNL     1      48.846   6.591  14.417  0.00  0.00    +0.000 N 
ATOM      2  C   UNL     1      47.672   6.946  13.755  0.00  0.00    +0.000 A 
ATOM      3  C   UNL     1      47.237   8.270  13.631  0.00  0.00    +0.000 A 
ATOM      4  N   UNL     1      46.084   8.632  13.032  0.00  0.00    +0.000 NA
ATOM      5  C   UNL     1      45.380   7.605  12.509  0.00  0.00    +0.000 A 
ATOM      6  C   UNL     1      45.795   6.272  12.568  0.00  0.00    +0.000 A 
ATOM      7  N   UNL     1      46.958   5.935  13.204  0.00  0.00    +0.000 NA
ATOM      8  H   UNL     1      48.829   5.586  14.568  0.00  0.00    +0.000 HD
ENDROOT
BRANCH   6   9
ATOM      9  C   UNL     1      44.973   5.191  11.991  0.00  0.00    +0.000 A 
ATOM     10  C   UNL     1      44.087   4.431  12.733  0.00  0.00    +0.000 A 
ATOM     11  C   UNL     1      43.343   3.503  12.037  0.00  0.00    +0.000 A 
ATOM     12  N   UNL     1      43.436   3.315  10.707  0.00  0.00    +0.000 NA
ATOM     13  C   UNL     1      44.333   4.083  10.082  0.00  0.00    +0.000 A 
ATOM     14  N   UNL     1      45.112   5.001  10.657  0.00  0.00    +0.000 NA
BRANCH  13  15
ATOM     15  O   UNL     1      44.494   3.978   8.720  0.00  0.00    +0.000 OA
BRANCH  15  16
ATOM     16  C   UNL     1      45.315   2.867   8.350  0.00  0.00    +0.000 C 
BRANCH  16  17
ATOM     17  C   UNL     1      46.450   3.228   7.399  0.00  0.00    +0.000 C 
ATOM     18  F   UNL     1      46.936   4.473   7.592  0.00  0.00    +0.000 F 
ATOM     19  F   UNL     1      47.479   2.355   7.504  0.00  0.00    +0.000 F 
ATOM     20  F   UNL     1      46.016   3.168   6.115  0.00  0.00    +0.000 F 
ENDBRANCH  16  17
ENDBRANCH  15  16
ENDBRANCH  13  15
ENDBRANCH   6   9
BRANCH   1  21
ATOM     21  C   UNL     1      49.237   7.413  15.551  0.00  0.00    +0.000 C 
BRANCH  21  23
ATOM     22  C   UNL     1      48.397   7.712  17.968  0.00  0.00    +0.000 C 
ATOM     23  C   UNL     1      48.662   6.821  16.799  0.00  0.00    +0.000 C 
BRANCH  23  24
ATOM     24  C   UNL     1      48.770   5.364  16.979  0.00  0.00    +0.000 A 
ATOM     25  C   UNL     1      47.670   4.526  16.752  0.00  0.00    +0.000 A 
ATOM     26  C   UNL     1      47.807   3.138  16.830  0.00  0.00    +0.000 A 
ATOM     27  C   UNL     1      49.050   2.580  17.129  0.00  0.00    +0.000 A 
ATOM     28  C   UNL     1      50.138   3.409  17.372  0.00  0.00    +0.000 A 
ATOM     29 CL   UNL     1      51.681   2.728  17.718  0.00  0.00    +0.000 Cl
ATOM     30  C   UNL     1      50.001   4.797  17.311  0.00  0.00    +0.000 A 
ENDBRANCH  23  24
ENDBRANCH  21  23
ENDBRANCH   1  21
TORSDOF 7
ENDMDL
MODEL 3
REMARK VINA RESULT:    -7.799      4.223      8.414
REMARK INTER + INTRA:         -11.875
REMARK INTER:                 -10.956
REMARK INTRA:                  -0.919
REMARK UNBOUND:                -0.885
REMARK  Name = 
REMARK  8 active torsions:
REMARK  status: ('A' for Active; 'I' for Inactive)
REMARK    1  A    between atoms: C_1  and  C_2
REMARK    2  A    between atoms: C_2  and  C_3
REMARK    3  A    between atoms: C_2  and  C_23
REMARK    4  A    between atoms: C_3  and  N_4
REMARK    5  A    between atoms: C_9  and  C_10
REMARK    6  A    between atoms: C_14  and  O_15
REMARK    7  A    between atoms: O_15  and  C_16
REMARK    8  A    between atoms: C_16  and  C_17
REMARK                            x       y       z     vdW  Elec       q    Type
REMARK                         _______ _______ _______ _____ _____    ______ ____
ROOT
ATOM      1  N   UNL     1      48.495   7.010  13.809  0.00  0.00    +0.000 N 
ATOM      2  C   UNL     1      47.277   7.105  13.139  0.00  0.00    +0.000 A 
ATOM      3  C   UNL     1      46.657   8.327  12.854  0.00  0.00    +0.000 A 
ATOM      4  N   UNL     1      45.459   8.440  12.245  0.00  0.00    +0.000 NA
ATOM      5  C   UNL     1      44.904   7.264  11.883  0.00  0.00    +0.000 A 
ATOM      6  C   UNL     1      45.504   6.023  12.105  0.00  0.00    +0.000 A 
ATOM      7  N   UNL     1      46.709   5.940  12.747  0.00  0.00    +0.000 NA
ATOM      8  H   UNL     1      48.623   6.041  14.093  0.00  0.00    +0.000 HD
ENDROOT
BRANCH   6   9
ATOM      9  C   UNL     1      44.839   4.769  11.699  0.00  0.00    +0.000 A 
ATOM     10  C   UNL     1      44.066   4.007  12.555  0.00  0.00    +0.000 A 
ATOM     11  C   UNL     1      43.457   2.898  12.008  0.00  0.00    +0.000 A 
ATOM     12  N   UNL     1      43.575   2.540  10.716  0.00  0.00    +0.000 NA
ATOM     13  C   UNL     1      44.359   3.329   9.974  0.00  0.00    +0.000 A 
ATOM     14  N   UNL     1      45.004   4.416  10.402  0.00  0.00    +0.000 NA
BRANCH  13  15
ATOM     15  O   UNL     1      44.534   3.057   8.637  0.00  0.00    +0.000 OA
BRANCH  15  16
ATOM     16  C   UNL     1      45.771   2.391   8.371  0.00  0.00    +0.000 C 
BRANCH  16  17
ATOM     17  C   UNL     1      46.623   3.076   7.309  0.00  0.00    +0.000 C 
ATOM     18  F   UNL     1      46.101   2.994   6.067  0.00  0.00    +0.000 F 
ATOM     19  F   UNL     1      46.816   4.384   7.597  0.00  0.00    +0.000 F 
ATOM     20  F   UNL     1      47.852   2.501   7.259  0.00  0.00    +0.000 F 
ENDBRANCH  16  17
ENDBRANCH  15  16
ENDBRANCH  13  15
ENDBRANCH   6   9
BRANCH   1  21
ATOM     21  C   UNL     1      48.776   8.024  14.814  0.00  0.00    +0.000 C 
BRANCH  21  23
ATOM     22  C   UNL     1      51.016   7.132  15.724  0.00  0.00    +0.000 C 
ATOM     23  C   UNL     1      49.560   7.399  15.925  0.00  0.00    +0.000 C 
BRANCH  23  24
ATOM     24  C   UNL     1      48.811   6.702  16.984  0.00  0.00    +0.000 A 
ATOM     25  C   UNL     1      48.372   7.385  18.126  0.00  0.00    +0.000 A 
ATOM     26  C   UNL     1      47.579   6.741  19.078  0.00  0.00    +0.000 A 
ATOM     27  C   UNL     1      47.215   5.407  18.888  0.00  0.00    +0.000 A 
ATOM     28  C   UNL     1      47.663   4.722  17.766  0.00  0.00    +0.000 A 
ATOM     29 CL   UNL     1      47.198   3.085  17.512  0.00  0.00    +0.000 Cl
ATOM     30  C   UNL     1      48.469   5.359  16.821  0.00  0.00    +0.000 A 
ENDBRANCH  23  24
ENDBRANCH  21  23
ENDBRANCH   1  21
TORSDOF 7
ENDMDL
MODEL 4
REMARK VINA RESULT:    -7.291      4.813      9.092
REMARK INTER + INTRA:         -11.160
REMARK INTER:                 -10.451
REMARK INTRA:                  -0.709
REMARK UNBOUND:                -0.885
REMARK  Name = 
REMARK  8 active torsions:
REMARK  status: ('A' for Active; 'I' for Inactive)
REMARK    1  A    between atoms: C_1  and  C_2
REMARK    2  A    between atoms: C_2  and  C_3
REMARK    3  A    between atoms: C_2  and  C_23
REMARK    4  A    between atoms: C_3  and  N_4
REMARK    5  A    between atoms: C_9  and  C_10
REMARK    6  A    between atoms: C_14  and  O_15
REMARK    7  A    between atoms: O_15  and  C_16
REMARK    8  A    between atoms: C_16  and  C_17
REMARK                            x       y       z     vdW  Elec       q    Type
REMARK                         _______ _______ _______ _____ _____    ______ ____
ROOT
ATOM      1  N   UNL     1      47.267   3.383  16.255  0.00  0.00    +0.000 N 
ATOM      2  C   UNL     1      47.143   4.311  15.223  0.00  0.00    +0.000 A 
ATOM      3  C   UNL     1      48.071   5.335  15.004  0.00  0.00    +0.000 A 
ATOM      4  N   UNL     1      47.949   6.269  14.039  0.00  0.00    +0.000 NA
ATOM      5  C   UNL     1      46.863   6.119  13.251  0.00  0.00    +0.000 A 
ATOM      6  C   UNL     1      45.933   5.087  13.402  0.00  0.00    +0.000 A 
ATOM      7  N   UNL     1      46.073   4.169  14.407  0.00  0.00    +0.000 NA
ATOM      8  H   UNL     1      46.378   2.896  16.347  0.00  0.00    +0.000 HD
ENDROOT
BRANCH   6   9
ATOM      9  C   UNL     1      44.756   4.985  12.518  0.00  0.00    +0.000 A 
ATOM     10  C   UNL     1      43.511   5.489  12.848  0.00  0.00    +0.000 A 
ATOM     11  C   UNL     1      42.529   5.374  11.888  0.00  0.00    +0.000 A 
ATOM     12  N   UNL     1      42.725   4.815  10.680  0.00  0.00    +0.000 NA
ATOM     13  C   UNL     1      43.956   4.340  10.462  0.00  0.00    +0.000 A 
ATOM     14  N   UNL     1      44.975   4.387  11.322  0.00  0.00    +0.000 NA
BRANCH  13  15
ATOM     15  O   UNL     1      44.262   3.762   9.253  0.00  0.00    +0.000 OA
BRANCH  15  16
ATOM     16  C   UNL     1      45.439   4.319   8.662  0.00  0.00    +0.000 C 
BRANCH  16  17
ATOM     17  C   UNL     1      46.147   3.379   7.693  0.00  0.00    +0.000 C 
ATOM     18  F   UNL     1      45.457   3.167   6.552  0.00  0.00    +0.000 F 
ATOM     19  F   UNL     1      47.374   3.844   7.360  0.00  0.00    +0.000 F 
ATOM     20  F   UNL     1      46.332   2.166   8.274  0.00  0.00    +0.000 F 
ENDBRANCH  16  17
ENDBRANCH  15  16
ENDBRANCH  13  15
ENDBRANCH   6   9
BRANCH   1  21
ATOM     21  C   UNL     1      47.886   3.845  17.487  0.00  0.00    +0.000 C 
BRANCH  21  23
ATOM     22  C   UNL     1      49.729   2.106  17.020  0.00  0.00    +0.000 C 
ATOM     23  C   UNL     1      49.336   3.476  17.468  0.00  0.00    +0.000 C 
BRANCH  23  24
ATOM     24  C   UNL     1      50.263   4.297  18.265  0.00  0.00    +0.000 A 
ATOM     25  C   UNL     1      51.628   3.988  18.327  0.00  0.00    +0.000 A 
ATOM     26  C   UNL     1      52.515   4.828  19.005  0.00  0.00    +0.000 A 
ATOM     27  C   UNL     1      52.039   5.987  19.619  0.00  0.00    +0.000 A 
ATOM     28  C   UNL     1      50.684   6.286  19.574  0.00  0.00    +0.000 A 
ATOM     29 CL   UNL     1      50.093   7.726  20.309  0.00  0.00    +0.000 Cl
ATOM     30  C   UNL     1      49.793   5.440  18.911  0.00  0.00    +0.000 A 
ENDBRANCH  23  24
ENDBRANCH  21  23
ENDBRANCH   1  21
TORSDOF 7
ENDMDL
MODEL 5
REMARK VINA RESULT:    -7.247      4.893      9.005
REMARK INTER + INTRA:         -11.098
REMARK INTER:                 -10.284
REMARK INTRA:                  -0.813
REMARK UNBOUND:                -0.885
REMARK  Name = 
REMARK  8 active torsions:
REMARK  status: ('A' for Active; 'I' for Inactive)
REMARK    1  A    between atoms: C_1  and  C_2
REMARK    2  A    between atoms: C_2  and  C_3
REMARK    3  A    between atoms: C_2  and  C_23
REMARK    4  A    between atoms: C_3  and  N_4
REMARK    5  A    between atoms: C_9  and  C_10
REMARK    6  A    between atoms: C_14  and  O_15
REMARK    7  A    between atoms: O_15  and  C_16
REMARK    8  A    between atoms: C_16  and  C_17
REMARK                            x       y       z     vdW  Elec       q    Type
REMARK                         _______ _______ _______ _____ _____    ______ ____
ROOT
ATOM      1  N   UNL     1      48.321   7.293  13.881  0.00  0.00    +0.000 N 
ATOM      2  C   UNL     1      47.182   7.384  13.085  0.00  0.00    +0.000 A 
ATOM      3  C   UNL     1      46.440   8.563  12.947  0.00  0.00    +0.000 A 
ATOM      4  N   UNL     1      45.311   8.661  12.215  0.00  0.00    +0.000 NA
ATOM      5  C   UNL     1      44.960   7.525  11.575  0.00  0.00    +0.000 A 
ATOM      6  C   UNL     1      45.692   6.338  11.645  0.00  0.00    +0.000 A 
ATOM      7  N   UNL     1      46.820   6.264  12.416  0.00  0.00    +0.000 NA
ATOM      8  H   UNL     1      48.545   6.308  13.998  0.00  0.00    +0.000 HD
ENDROOT
BRANCH   6   9
ATOM      9  C   UNL     1      45.248   5.124  10.933  0.00  0.00    +0.000 A 
ATOM     10  C   UNL     1      44.551   4.098  11.543  0.00  0.00    +0.000 A 
ATOM     11  C   UNL     1      44.148   3.061  10.729  0.00  0.00    +0.000 A 
ATOM     12  N   UNL     1      44.393   3.010   9.407  0.00  0.00    +0.000 NA
ATOM     13  C   UNL     1      45.090   4.039   8.914  0.00  0.00    +0.000 A 
ATOM     14  N   UNL     1      45.538   5.085   9.611  0.00  0.00    +0.000 NA
BRANCH  13  15
ATOM     15  O   UNL     1      45.380   4.088   7.571  0.00  0.00    +0.000 OA
BRANCH  15  16
ATOM     16  C   UNL     1      46.767   3.868   7.301  0.00  0.00    +0.000 C 
BRANCH  16  17
ATOM     17  C   UNL     1      47.054   2.570   6.557  0.00  0.00    +0.000 C 
ATOM     18  F   UNL     1      48.369   2.357   6.336  0.00  0.00    +0.000 F 
ATOM     19  F   UNL     1      46.563   1.499   7.224  0.00  0.00    +0.000 F 
ATOM     20  F   UNL     1      46.447   2.587   5.343  0.00  0.00    +0.000 F 
ENDBRANCH  16  17
ENDBRANCH  15  16
ENDBRANCH  13  15
ENDBRANCH   6   9
BRANCH   1  21
ATOM     21  C   UNL     1      48.354   8.114  15.081  0.00  0.00    +0.000 C 
BRANCH  21  23
ATOM     22  C   UNL     1      50.592   6.992  15.692  0.00  0.00    +0.000 C 
ATOM     23  C   UNL     1      49.229   7.450  16.098  0.00  0.00    +0.000 C 
BRANCH  23  24
ATOM     24  C   UNL     1      48.585   6.906  17.305  0.00  0.00    +0.000 A 
ATOM     25  C   UNL     1      48.371   5.529  17.450  0.00  0.00    +0.000 A 
ATOM     26  C   UNL     1      47.849   5.012  18.638  0.00  0.00    +0.000 A 
ATOM     27  C   UNL     1      47.546   5.874  19.693  0.00  0.00    +0.000 A 
ATOM     28  C   UNL     1      47.740   7.241  19.546  0.00  0.00    +0.000 A 
ATOM     29 CL   UNL     1      47.391   8.308  20.851  0.00  0.00    +0.000 Cl
ATOM     30  C   UNL     1      48.246   7.762  18.354  0.00  0.00    +0.000 A 
ENDBRANCH  23  24
ENDBRANCH  21  23
ENDBRANCH   1  21
TORSDOF 7
ENDMDL
MODEL 6
REMARK VINA RESULT:    -6.947      4.282      8.568
REMARK INTER + INTRA:         -10.675
REMARK INTER:                  -9.931
REMARK INTRA:                  -0.744
REMARK UNBOUND:                -0.885
REMARK  Name = 
REMARK  8 active torsions:
REMARK  status: ('A' for Active; 'I' for Inactive)
REMARK    1  A    between atoms: C_1  and  C_2
REMARK    2  A    between atoms: C_2  and  C_3
REMARK    3  A    between atoms: C_2  and  C_23
REMARK    4  A    between atoms: C_3  and  N_4
REMARK    5  A    between atoms: C_9  and  C_10
REMARK    6  A    between atoms: C_14  and  O_15
REMARK    7  A    between atoms: O_15  and  C_16
REMARK    8  A    between atoms: C_16  and  C_17
REMARK                            x       y       z     vdW  Elec       q    Type
REMARK                         _______ _______ _______ _____ _____    ______ ____
ROOT
ATOM      1  N   UNL     1      48.218   5.646  15.612  0.00  0.00    +0.000 N 
ATOM      2  C   UNL     1      47.815   5.951  14.313  0.00  0.00    +0.000 A 
ATOM      3  C   UNL     1      48.582   6.731  13.440  0.00  0.00    +0.000 A 
ATOM      4  N   UNL     1      48.192   7.073  12.195  0.00  0.00    +0.000 NA
ATOM      5  C   UNL     1      46.998   6.563  11.824  0.00  0.00    +0.000 A 
ATOM      6  C   UNL     1      46.217   5.744  12.643  0.00  0.00    +0.000 A 
ATOM      7  N   UNL     1      46.630   5.435  13.910  0.00  0.00    +0.000 NA
ATOM      8  H   UNL     1      47.413   5.273  16.110  0.00  0.00    +0.000 HD
ENDROOT
BRANCH   6   9
ATOM      9  C   UNL     1      44.912   5.229  12.185  0.00  0.00    +0.000 A 
ATOM     10  C   UNL     1      43.701   5.737  12.618  0.00  0.00    +0.000 A 
ATOM     11  C   UNL     1      42.569   5.195  12.048  0.00  0.00    +0.000 A 
ATOM     12  N   UNL     1      42.593   4.226  11.114  0.00  0.00    +0.000 NA
ATOM     13  C   UNL     1      43.809   3.787  10.776  0.00  0.00    +0.000 A 
ATOM     14  N   UNL     1      44.966   4.231  11.271  0.00  0.00    +0.000 NA
BRANCH  13  15
ATOM     15  O   UNL     1      43.943   2.808   9.820  0.00  0.00    +0.000 OA
BRANCH  15  16
ATOM     16  C   UNL     1      45.302   2.607   9.426  0.00  0.00    +0.000 C 
BRANCH  16  17
ATOM     17  C   UNL     1      45.621   3.120   8.027  0.00  0.00    +0.000 C 
ATOM     18  F   UNL     1      46.389   2.274   7.308  0.00  0.00    +0.000 F 
ATOM     19  F   UNL     1      44.493   3.365   7.320  0.00  0.00    +0.000 F 
ATOM     20  F   UNL     1      46.296   4.295   8.106  0.00  0.00    +0.000 F 
ENDBRANCH  16  17
ENDBRANCH  15  16
ENDBRANCH  13  15
ENDBRANCH   6   9
BRANCH   1  21
ATOM     21  C   UNL     1      49.007   6.649  16.310  0.00  0.00    +0.000 C 
BRANCH  21  23
ATOM     22  C   UNL     1      48.813   6.794  18.875  0.00  0.00    +0.000 C 
ATOM     23  C   UNL     1      49.371   6.122  17.663  0.00  0.00    +0.000 C 
BRANCH  23  24
ATOM     24  C   UNL     1      50.558   5.258  17.766  0.00  0.00    +0.000 A 
ATOM     25  C   UNL     1      51.793   5.776  18.177  0.00  0.00    +0.000 A 
ATOM     26  C   UNL     1      52.890   4.931  18.366  0.00  0.00    +0.000 A 
ATOM     27  C   UNL     1      52.752   3.560  18.149  0.00  0.00    +0.000 A 
ATOM     28  C   UNL     1      51.534   3.046  17.723  0.00  0.00    +0.000 A 
ATOM     29 CL   UNL     1      51.351   1.352  17.477  0.00  0.00    +0.000 Cl
ATOM     30  C   UNL     1      50.441   3.890  17.519  0.00  0.00    +0.000 A 
ENDBRANCH  23  24
ENDBRANCH  21  23
ENDBRANCH   1  21
TORSDOF 7
ENDMDL
MODEL 7
REMARK VINA RESULT:    -6.698      4.434      8.435
REMARK INTER + INTRA:         -10.323
REMARK INTER:                  -9.332
REMARK INTRA:                  -0.991
REMARK UNBOUND:                -0.885
REMARK  Name = 
REMARK  8 active torsions:
REMARK  status: ('A' for Active; 'I' for Inactive)
REMARK    1  A    between atoms: C_1  and  C_2
REMARK    2  A    between atoms: C_2  and  C_3
REMARK    3  A    between atoms: C_2  and  C_23
REMARK    4  A    between atoms: C_3  and  N_4
REMARK    5  A    between atoms: C_9  and  C_10
REMARK    6  A    between atoms: C_14  and  O_15
REMARK    7  A    between atoms: O_15  and  C_16
REMARK    8  A    between atoms: C_16  and  C_17
REMARK                            x       y       z     vdW  Elec       q    Type
REMARK                         _______ _______ _______ _____ _____    ______ ____
ROOT
ATOM      1  N   UNL     1      49.559   5.906  17.959  0.00  0.00    +0.000 N 
ATOM      2  C   UNL     1      48.671   5.226  17.127  0.00  0.00    +0.000 A 
ATOM      3  C   UNL     1      48.078   4.008  17.477  0.00  0.00    +0.000 A 
ATOM      4  N   UNL     1      47.251   3.313  16.669  0.00  0.00    +0.000 NA
ATOM      5  C   UNL     1      46.994   3.910  15.486  0.00  0.00    +0.000 A 
ATOM      6  C   UNL     1      47.526   5.146  15.110  0.00  0.00    +0.000 A 
ATOM      7  N   UNL     1      48.382   5.814  15.942  0.00  0.00    +0.000 NA
ATOM      8  H   UNL     1      50.018   6.626  17.407  0.00  0.00    +0.000 HD
ENDROOT
BRANCH   6   9
ATOM      9  C   UNL     1      47.220   5.740  13.795  0.00  0.00    +0.000 A 
ATOM     10  C   UNL     1      47.781   6.922  13.345  0.00  0.00    +0.000 A 
ATOM     11  C   UNL     1      47.446   7.313  12.067  0.00  0.00    +0.000 A 
ATOM     12  N   UNL     1      46.627   6.613  11.261  0.00  0.00    +0.000 NA
ATOM     13  C   UNL     1      46.120   5.496  11.792  0.00  0.00    +0.000 A 
ATOM     14  N   UNL     1      46.366   5.031  13.018  0.00  0.00    +0.000 NA
BRANCH  13  15
ATOM     15  O   UNL     1      45.282   4.702  11.045  0.00  0.00    +0.000 OA
BRANCH  15  16
ATOM     16  C   UNL     1      44.921   3.495  11.722  0.00  0.00    +0.000 C 
BRANCH  16  17
ATOM     17  C   UNL     1      43.430   3.370  12.007  0.00  0.00    +0.000 C 
ATOM     18  F   UNL     1      42.670   4.205  11.267  0.00  0.00    +0.000 F 
ATOM     19  F   UNL     1      42.990   2.107  11.797  0.00  0.00    +0.000 F 
ATOM     20  F   UNL     1      43.180   3.659  13.310  0.00  0.00    +0.000 F 
ENDBRANCH  16  17
ENDBRANCH  15  16
ENDBRANCH  13  15
ENDBRANCH   6   9
BRANCH   1  21
ATOM     21  C   UNL     1      50.414   5.096  18.812  0.00  0.00    +0.000 C 
BRANCH  21  23
ATOM     22  C   UNL     1      52.186   5.724  17.051  0.00  0.00    +0.000 C 
ATOM     23  C   UNL     1      51.664   4.756  18.062  0.00  0.00    +0.000 C 
BRANCH  23  24
ATOM     24  C   UNL     1      52.087   3.347  18.036  0.00  0.00    +0.000 A 
ATOM     25  C   UNL     1      51.249   2.351  17.516  0.00  0.00    +0.000 A 
ATOM     26  C   UNL     1      51.697   1.033  17.406  0.00  0.00    +0.000 A 
ATOM     27  C   UNL     1      52.991   0.705  17.812  0.00  0.00    +0.000 A 
ATOM     28  C   UNL     1      53.817   1.686  18.345  0.00  0.00    +0.000 A 
ATOM     29 CL   UNL     1      55.423   1.294  18.825  0.00  0.00    +0.000 Cl
ATOM     30  C   UNL     1      53.367   3.001  18.470  0.00  0.00    +0.000 A 
ENDBRANCH  23  24
ENDBRANCH  21  23
ENDBRANCH   1  21
TORSDOF 7
ENDMDL
MODEL 8
REMARK VINA RESULT:    -6.539      4.773      8.478
REMARK INTER + INTRA:         -10.100
REMARK INTER:                  -9.002
REMARK INTRA:                  -1.098
REMARK UNBOUND:                -0.885
REMARK  Name = 
REMARK  8 active torsions:
REMARK  status: ('A' for Active; 'I' for Inactive)
REMARK    1  A    between atoms: C_1  and  C_2
REMARK    2  A    between atoms: C_2  and  C_3
REMARK    3  A    between atoms: C_2  and  C_23
REMARK    4  A    between atoms: C_3  and  N_4
REMARK    5  A    between atoms: C_9  and  C_10
REMARK    6  A    between atoms: C_14  and  O_15
REMARK    7  A    between atoms: O_15  and  C_16
REMARK    8  A    between atoms: C_16  and  C_17
REMARK                            x       y       z     vdW  Elec       q    Type
REMARK                         _______ _______ _______ _____ _____    ______ ____
ROOT
ATOM      1  N   UNL     1      49.622   8.651  11.921  0.00  0.00    +0.000 N 
ATOM      2  C   UNL     1      48.240   8.481  11.986  0.00  0.00    +0.000 A 
ATOM      3  C   UNL     1      47.356   9.527  12.273  0.00  0.00    +0.000 A 
ATOM      4  N   UNL     1      46.020   9.376  12.382  0.00  0.00    +0.000 NA
ATOM      5  C   UNL     1      45.579   8.122  12.148  0.00  0.00    +0.000 A 
ATOM      6  C   UNL     1      46.417   7.056  11.814  0.00  0.00    +0.000 A 
ATOM      7  N   UNL     1      47.771   7.236  11.735  0.00  0.00    +0.000 NA
ATOM      8  H   UNL     1      50.052   7.730  11.926  0.00  0.00    +0.000 HD
ENDROOT
BRANCH   6   9
ATOM      9  C   UNL     1      45.876   5.702  11.585  0.00  0.00    +0.000 A 
ATOM     10  C   UNL     1      45.636   4.797  12.602  0.00  0.00    +0.000 A 
ATOM     11  C   UNL     1      45.067   3.597  12.234  0.00  0.00    +0.000 A 
ATOM     12  N   UNL     1      44.740   3.281  10.968  0.00  0.00    +0.000 NA
ATOM     13  C   UNL     1      45.028   4.213  10.053  0.00  0.00    +0.000 A 
ATOM     14  N   UNL     1      45.589   5.399  10.296  0.00  0.00    +0.000 NA
BRANCH  13  15
ATOM     15  O   UNL     1      44.721   3.993   8.731  0.00  0.00    +0.000 OA
BRANCH  15  16
ATOM     16  C   UNL     1      45.421   2.872   8.185  0.00  0.00    +0.000 C 
BRANCH  16  17
ATOM     17  C   UNL     1      46.550   3.253   7.235  0.00  0.00    +0.000 C 
ATOM     18  F   UNL     1      46.208   3.164   5.932  0.00  0.00    +0.000 F 
ATOM     19  F   UNL     1      46.989   4.513   7.468  0.00  0.00    +0.000 F 
ATOM     20  F   UNL     1      47.612   2.429   7.421  0.00  0.00    +0.000 F 
ENDBRANCH  16  17
ENDBRANCH  15  16
ENDBRANCH  13  15
ENDBRANCH   6   9
BRANCH   1  21
ATOM     21  C   UNL     1      50.206   9.646  12.807  0.00  0.00    +0.000 C 
BRANCH  21  23
ATOM     22  C   UNL     1      52.461   8.524  13.353  0.00  0.00    +0.000 C 
ATOM     23  C   UNL     1      51.098   8.954  13.790  0.00  0.00    +0.000 C 
BRANCH  23  24
ATOM     24  C   UNL     1      50.473   8.360  14.983  0.00  0.00    +0.000 A 
ATOM     25  C   UNL     1      50.939   7.150  15.515  0.00  0.00    +0.000 A 
ATOM     26  C   UNL     1      50.404   6.644  16.703  0.00  0.00    +0.000 A 
ATOM     27  C   UNL     1      49.402   7.352  17.368  0.00  0.00    +0.000 A 
ATOM     28  C   UNL     1      48.926   8.542  16.833  0.00  0.00    +0.000 A 
ATOM     29 CL   UNL     1      47.707   9.432  17.660  0.00  0.00    +0.000 Cl
ATOM     30  C   UNL     1      49.447   9.042  15.639  0.00  0.00    +0.000 A 
ENDBRANCH  23  24
ENDBRANCH  21  23
ENDBRANCH   1  21
TORSDOF 7
ENDMDL
MODEL 9
REMARK VINA RESULT:    -6.168      3.364      4.493
REMARK INTER + INTRA:          -9.576
REMARK INTER:                  -8.635
REMARK INTRA:                  -0.942
REMARK UNBOUND:                -0.885
REMARK  Name = 
REMARK  8 active torsions:
REMARK  status: ('A' for Active; 'I' for Inactive)
REMARK    1  A    between atoms: C_1  and  C_2
REMARK    2  A    between atoms: C_2  and  C_3
REMARK    3  A    between atoms: C_2  and  C_23
REMARK    4  A    between atoms: C_3  and  N_4
REMARK    5  A    between atoms: C_9  and  C_10
REMARK    6  A    between atoms: C_14  and  O_15
REMARK    7  A    between atoms: O_15  and  C_16
REMARK    8  A    between atoms: C_16  and  C_17
REMARK                            x       y       z     vdW  Elec       q    Type
REMARK                         _______ _______ _______ _____ _____    ______ ____
ROOT
ATOM      1  N   UNL     1      46.514   6.119  13.602  0.00  0.00    +0.000 N 
ATOM      2  C   UNL     1      47.147   5.192  14.428  0.00  0.00    +0.000 A 
ATOM      3  C   UNL     1      47.010   3.809  14.266  0.00  0.00    +0.000 A 
ATOM      4  N   UNL     1      47.579   2.895  15.079  0.00  0.00    +0.000 NA
ATOM      5  C   UNL     1      48.343   3.421  16.061  0.00  0.00    +0.000 A 
ATOM      6  C   UNL     1      48.545   4.791  16.236  0.00  0.00    +0.000 A 
ATOM      7  N   UNL     1      47.935   5.694  15.408  0.00  0.00    +0.000 NA
ATOM      8  H   UNL     1      46.579   7.032  14.047  0.00  0.00    +0.000 HD
ENDROOT
BRANCH   6   9
ATOM      9  C   UNL     1      49.380   5.305  17.338  0.00  0.00    +0.000 A 
ATOM     10  C   UNL     1      50.761   5.231  17.344  0.00  0.00    +0.000 A 
ATOM     11  C   UNL     1      51.403   5.816  18.415  0.00  0.00    +0.000 A 
ATOM     12  N   UNL     1      50.762   6.441  19.421  0.00  0.00    +0.000 NA
ATOM     13  C   UNL     1      49.428   6.442  19.335  0.00  0.00    +0.000 A 
ATOM     14  N   UNL     1      48.707   5.898  18.353  0.00  0.00    +0.000 NA
BRANCH  13  15
ATOM     15  O   UNL     1      48.680   7.067  20.306  0.00  0.00    +0.000 OA
BRANCH  15  16
ATOM     16  C   UNL     1      47.460   7.609  19.795  0.00  0.00    +0.000 C 
BRANCH  16  17
ATOM     17  C   UNL     1      47.489   9.120  19.603  0.00  0.00    +0.000 C 
ATOM     18  F   UNL     1      46.511   9.764  20.276  0.00  0.00    +0.000 F 
ATOM     19  F   UNL     1      48.676   9.645  19.986  0.00  0.00    +0.000 F 
ATOM     20  F   UNL     1      47.331   9.425  18.290  0.00  0.00    +0.000 F 
ENDBRANCH  16  17
ENDBRANCH  15  16
ENDBRANCH  13  15
ENDBRANCH   6   9
BRANCH   1  21
ATOM     21  C   UNL     1      45.213   5.747  13.069  0.00  0.00    +0.000 C 
BRANCH  21  23
ATOM     22  C   UNL     1      44.946   7.313  11.040  0.00  0.00    +0.000 C 
ATOM     23  C   UNL     1      45.222   5.950  11.586  0.00  0.00    +0.000 C 
BRANCH  23  24
ATOM     24  C   UNL     1      45.085   4.760  10.731  0.00  0.00    +0.000 A 
ATOM     25  C   UNL     1      44.336   3.653  11.149  0.00  0.00    +0.000 A 
ATOM     26  C   UNL     1      44.131   2.569  10.292  0.00  0.00    +0.000 A 
ATOM     27  C   UNL     1      44.672   2.592   9.006  0.00  0.00    +0.000 A 
ATOM     28  C   UNL     1      45.430   3.680   8.594  0.00  0.00    +0.000 A 
ATOM     29 CL   UNL     1      46.080   3.726   7.001  0.00  0.00    +0.000 Cl
ATOM     30  C   UNL     1      45.650   4.757   9.454  0.00  0.00    +0.000 A 
ENDBRANCH  23  24
ENDBRANCH  21  23
ENDBRANCH   1  21
TORSDOF 7
ENDMDL
