MODEL 1
REMARK VINA RESULT:    -7.560      0.000      0.000
REMARK INTER + INTRA:          -9.396
REMARK INTER:                  -9.107
REMARK INTRA:                  -0.288
REMARK UNBOUND:                -0.288
REMARK  Name = 
REMARK  4 active torsions:
REMARK  status: ('A' for Active; 'I' for Inactive)
REMARK    1  A    between atoms: N_1  and  C_2
REMARK    2  A    between atoms: C_2  and  C_3
REMARK    3  A    between atoms: N_5  and  C_6
REMARK    4  A    between atoms: C_6  and  C_7
REMARK                            x       y       z     vdW  Elec       q    Type
REMARK                         _______ _______ _______ _____ _____    ______ ____
ROOT
ATOM      1  C   UNL     1      43.904   4.757  10.219  0.00  0.00    +0.000 C 
ENDROOT
BRANCH   1   2
ATOM      2  C   UNL     1      44.688   3.780   9.393  0.00  0.00    +0.000 A 
ATOM      3  C   UNL     1      44.756   2.441   9.744  0.00  0.00    +0.000 A 
ATOM      4  N   UNL     1      45.458   1.534   9.029  0.00  0.00    +0.000 NA
ATOM      5  C   UNL     1      46.123   1.999   7.955  0.00  0.00    +0.000 A 
ATOM      6  C   UNL     1      46.890   1.127   7.189  0.00  0.00    +0.000 A 
ATOM      7  C   UNL     1      47.598   1.572   6.072  0.00  0.00    +0.000 A 
ATOM      8  C   UNL     1      47.531   2.909   5.706  0.00  0.00    +0.000 A 
ATOM      9  C   UNL     1      46.761   3.793   6.464  0.00  0.00    +0.000 A 
ATOM     10  C   UNL     1      46.059   3.364   7.583  0.00  0.00    +0.000 A 
ATOM     11  N   UNL     1      45.337   4.251   8.299  0.00  0.00    +0.000 NA
ENDBRANCH   1   2
BRANCH   1  14
ATOM     12  C   UNL     1      45.586   4.699  13.398  0.00  0.00    +0.000 A 
ATOM     13  C   UNL     1      45.624   4.964  12.042  0.00  0.00    +0.000 A 
ATOM     14  N   UNL     1      44.342   4.776  11.604  0.00  0.00    +0.000 N 
ATOM     15  C   UNL     1      43.574   4.460  12.689  0.00  0.00    +0.000 A 
ATOM     16  N   UNL     1      44.295   4.411  13.787  0.00  0.00    +0.000 NA
BRANCH  12  17
ATOM     17  C   UNL     1      46.708   4.665  14.381  0.00  0.00    +0.000 C 
BRANCH  17  18
ATOM     18  N   UNL     1      47.323   3.341  14.367  0.00  0.00    +0.000 NA
ATOM     19  H   UNL     1      48.303   3.439  14.625  0.00  0.00    +0.000 HD
ATOM     20  H   UNL     1      47.319   3.020  13.397  0.00  0.00    +0.000 HD
ENDBRANCH  17  18
ENDBRANCH  12  17
ENDBRANCH   1  14
TORSDOF 4
ENDMDL
MODEL 2
REMARK VINA RESULT:    -7.548      0.772      1.697
REMARK INTER + INTRA:          -9.381
REMARK INTER:                  -9.049
REMARK INTRA:                  -0.331
REMARK UNBOUND:                -0.288
REMARK  Name = 
REMARK  4 active torsions:
REMARK  status: ('A' for Active; 'I' for Inactive)
REMARK    1  A    between atoms: N_1  and  C_2
REMARK    2  A    between atoms: C_2  and  C_3
REMARK    3  A    between atoms: N_5  and  C_6
REMARK    4  A    between atoms: C_6  and  C_7
REMARK                            x       y       z     vdW  Elec       q    Type
REMARK                         _______ _______ _______ _____ _____    ______ ____
ROOT
ATOM      1  C   UNL     1      43.850   3.094  10.858  0.00  0.00    +0.000 C 
ENDROOT
BRANCH   1   2
ATOM      2  C   UNL     1      44.663   3.157   9.598  0.00  0.00    +0.000 A 
ATOM      3  C   UNL     1      44.689   4.304   8.821  0.00  0.00    +0.000 A 
ATOM      4  N   UNL     1      45.403   4.395   7.677  0.00  0.00    +0.000 NA
ATOM      5  C   UNL     1      46.083   3.294   7.303  0.00  0.00    +0.000 A 
ATOM      6  C   UNL     1      46.817   3.306   6.122  0.00  0.00    +0.000 A 
ATOM      7  C   UNL     1      47.529   2.183   5.697  0.00  0.00    +0.000 A 
ATOM      8  C   UNL     1      47.517   1.032   6.472  0.00  0.00    +0.000 A 
ATOM      9  C   UNL     1      46.789   1.009   7.662  0.00  0.00    +0.000 A 
ATOM     10  C   UNL     1      46.069   2.117   8.090  0.00  0.00    +0.000 A 
ATOM     11  N   UNL     1      45.364   2.052   9.239  0.00  0.00    +0.000 NA
ENDBRANCH   1   2
BRANCH   1  14
ATOM     12  C   UNL     1      45.732   4.425  13.618  0.00  0.00    +0.000 A 
ATOM     13  C   UNL     1      45.671   3.589  12.519  0.00  0.00    +0.000 A 
ATOM     14  N   UNL     1      44.459   3.847  11.939  0.00  0.00    +0.000 N 
ATOM     15  C   UNL     1      43.858   4.843  12.656  0.00  0.00    +0.000 A 
ATOM     16  N   UNL     1      44.604   5.217  13.673  0.00  0.00    +0.000 NA
BRANCH  12  17
ATOM     17  C   UNL     1      46.786   4.521  14.669  0.00  0.00    +0.000 C 
BRANCH  17  18
ATOM     18  N   UNL     1      47.544   3.273  14.708  0.00  0.00    +0.000 NA
ATOM     19  H   UNL     1      47.051   2.616  15.308  0.00  0.00    +0.000 HD
ATOM     20  H   UNL     1      48.428   3.475  15.180  0.00  0.00    +0.000 HD
ENDBRANCH  17  18
ENDBRANCH  12  17
ENDBRANCH   1  14
TORSDOF 4
ENDMDL
MODEL 3
REMARK VINA RESULT:    -7.025      1.847      6.074
REMARK INTER + INTRA:          -8.751
REMARK INTER:                  -8.410
REMARK INTRA:                  -0.341
REMARK UNBOUND:                -0.288
REMARK  Name = 
REMARK  4 active torsions:
REMARK  status: ('A' for Active; 'I' for Inactive)
REMARK    1  A    between atoms: N_1  and  C_2
REMARK    2  A    between atoms: C_2  and  C_3
REMARK    3  A    between atoms: N_5  and  C_6
REMARK    4  A    between atoms: C_6  and  C_7
REMARK                            x       y       z     vdW  Elec       q    Type
REMARK                         _______ _______ _______ _____ _____    ______ ____
ROOT
ATOM      1  C   UNL     1      44.145   3.451  10.001  0.00  0.00    +0.000 C 
ENDROOT
BRANCH   1   2
ATOM      2  C   UNL     1      44.995   3.999  11.109  0.00  0.00    +0.000 A 
ATOM      3  C   UNL     1      45.188   3.286  12.281  0.00  0.00    +0.000 A 
ATOM      4  N   UNL     1      45.940   3.751  13.304  0.00  0.00    +0.000 NA
ATOM      5  C   UNL     1      46.485   4.972  13.143  0.00  0.00    +0.000 A 
ATOM      6  C   UNL     1      47.247   5.526  14.166  0.00  0.00    +0.000 A 
ATOM      7  C   UNL     1      47.822   6.791  14.040  0.00  0.00    +0.000 A 
ATOM      8  C   UNL     1      47.643   7.511  12.867  0.00  0.00    +0.000 A 
ATOM      9  C   UNL     1      46.884   6.964  11.831  0.00  0.00    +0.000 A 
ATOM     10  C   UNL     1      46.299   5.710  11.949  0.00  0.00    +0.000 A 
ATOM     11  N   UNL     1      45.559   5.220  10.932  0.00  0.00    +0.000 NA
ENDBRANCH   1   2
BRANCH   1  14
ATOM     12  C   UNL     1      46.403   1.979   7.619  0.00  0.00    +0.000 A 
ATOM     13  C   UNL     1      45.660   1.859   8.778  0.00  0.00    +0.000 A 
ATOM     14  N   UNL     1      44.940   3.020   8.865  0.00  0.00    +0.000 N 
ATOM     15  C   UNL     1      45.224   3.768   7.758  0.00  0.00    +0.000 A 
ATOM     16  N   UNL     1      46.100   3.165   6.984  0.00  0.00    +0.000 NA
BRANCH  12  17
ATOM     17  C   UNL     1      47.429   1.052   7.061  0.00  0.00    +0.000 C 
BRANCH  17  18
ATOM     18  N   UNL     1      48.289   1.783   6.134  0.00  0.00    +0.000 NA
ATOM     19  H   UNL     1      47.826   1.822   5.229  0.00  0.00    +0.000 HD
ATOM     20  H   UNL     1      49.129   1.218   5.996  0.00  0.00    +0.000 HD
ENDBRANCH  17  18
ENDBRANCH  12  17
ENDBRANCH   1  14
TORSDOF 4
ENDMDL
MODEL 4
REMARK VINA RESULT:    -6.729      1.858      2.741
REMARK INTER + INTRA:          -8.394
REMARK INTER:                  -8.115
REMARK INTRA:                  -0.279
REMARK UNBOUND:                -0.288
REMARK  Name = 
REMARK  4 active torsions:
REMARK  status: ('A' for Active; 'I' for Inactive)
REMARK    1  A    between atoms: N_1  and  C_2
REMARK    2  A    between atoms: C_2  and  C_3
REMARK    3  A    between atoms: N_5  and  C_6
REMARK    4  A    between atoms: C_6  and  C_7
REMARK                            x       y       z     vdW  Elec       q    Type
REMARK                         _______ _______ _______ _____ _____    ______ ____
ROOT
ATOM      1  C   UNL     1      43.752   4.590  10.551  0.00  0.00    +0.000 C 
ENDROOT
BRANCH   1   2
ATOM      2  C   UNL     1      44.743   4.106   9.534  0.00  0.00    +0.000 A 
ATOM      3  C   UNL     1      45.440   4.999   8.736  0.00  0.00    +0.000 A 
ATOM      4  N   UNL     1      46.334   4.600   7.803  0.00  0.00    +0.000 NA
ATOM      5  C   UNL     1      46.504   3.272   7.662  0.00  0.00    +0.000 A 
ATOM      6  C   UNL     1      47.387   2.789   6.702  0.00  0.00    +0.000 A 
ATOM      7  C   UNL     1      47.586   1.420   6.522  0.00  0.00    +0.000 A 
ATOM      8  C   UNL     1      46.900   0.516   7.322  0.00  0.00    +0.000 A 
ATOM      9  C   UNL     1      46.014   0.989   8.292  0.00  0.00    +0.000 A 
ATOM     10  C   UNL     1      45.802   2.349   8.475  0.00  0.00    +0.000 A 
ATOM     11  N   UNL     1      44.926   2.768   9.413  0.00  0.00    +0.000 NA
ENDBRANCH   1   2
BRANCH   1  14
ATOM     12  C   UNL     1      45.244   7.127  12.619  0.00  0.00    +0.000 A 
ATOM     13  C   UNL     1      44.369   6.788  11.605  0.00  0.00    +0.000 A 
ATOM     14  N   UNL     1      44.374   5.421  11.567  0.00  0.00    +0.000 N 
ATOM     15  C   UNL     1      45.193   4.981  12.568  0.00  0.00    +0.000 A 
ATOM     16  N   UNL     1      45.729   5.986  13.225  0.00  0.00    +0.000 NA
BRANCH  12  17
ATOM     17  C   UNL     1      45.697   8.478  13.058  0.00  0.00    +0.000 C 
BRANCH  17  18
ATOM     18  N   UNL     1      45.358   9.459  12.031  0.00  0.00    +0.000 NA
ATOM     19  H   UNL     1      45.031  10.306  12.491  0.00  0.00    +0.000 HD
ATOM     20  H   UNL     1      44.556   9.090  11.518  0.00  0.00    +0.000 HD
ENDBRANCH  17  18
ENDBRANCH  12  17
ENDBRANCH   1  14
TORSDOF 4
ENDMDL
MODEL 5
REMARK VINA RESULT:    -6.522      2.380      2.664
REMARK INTER + INTRA:          -8.145
REMARK INTER:                  -7.807
REMARK INTRA:                  -0.337
REMARK UNBOUND:                -0.288
REMARK  Name = 
REMARK  4 active torsions:
REMARK  status: ('A' for Active; 'I' for Inactive)
REMARK    1  A    between atoms: N_1  and  C_2
REMARK    2  A    between atoms: C_2  and  C_3
REMARK    3  A    between atoms: N_5  and  C_6
REMARK    4  A    between atoms: C_6  and  C_7
REMARK                            x       y       z     vdW  Elec       q    Type
REMARK                         _______ _______ _______ _____ _____    ______ ____
ROOT
ATOM      1  C   UNL     1      43.741   5.884  11.326  0.00  0.00    +0.000 C 
ENDROOT
BRANCH   1   2
ATOM      2  C   UNL     1      44.290   4.743  10.522  0.00  0.00    +0.000 A 
ATOM      3  C   UNL     1      44.009   3.429  10.861  0.00  0.00    +0.000 A 
ATOM      4  N   UNL     1      44.493   2.375  10.165  0.00  0.00    +0.000 NA
ATOM      5  C   UNL     1      45.295   2.661   9.122  0.00  0.00    +0.000 A 
ATOM      6  C   UNL     1      45.852   1.626   8.378  0.00  0.00    +0.000 A 
ATOM      7  C   UNL     1      46.692   1.881   7.295  0.00  0.00    +0.000 A 
ATOM      8  C   UNL     1      46.974   3.193   6.940  0.00  0.00    +0.000 A 
ATOM      9  C   UNL     1      46.417   4.240   7.676  0.00  0.00    +0.000 A 
ATOM     10  C   UNL     1      45.586   3.999   8.762  0.00  0.00    +0.000 A 
ATOM     11  N   UNL     1      45.079   5.037   9.459  0.00  0.00    +0.000 NA
ENDBRANCH   1   2
BRANCH   1  14
ATOM     12  C   UNL     1      46.418   7.712  12.884  0.00  0.00    +0.000 A 
ATOM     13  C   UNL     1      45.816   6.500  12.606  0.00  0.00    +0.000 A 
ATOM     14  N   UNL     1      44.782   6.797  11.760  0.00  0.00    +0.000 N 
ATOM     15  C   UNL     1      44.819   8.141  11.517  0.00  0.00    +0.000 A 
ATOM     16  N   UNL     1      45.798   8.721  12.177  0.00  0.00    +0.000 NA
BRANCH  12  17
ATOM     17  C   UNL     1      47.545   8.010  13.814  0.00  0.00    +0.000 C 
BRANCH  17  18
ATOM     18  N   UNL     1      47.129   9.038  14.765  0.00  0.00    +0.000 NA
ATOM     19  H   UNL     1      47.630   9.897  14.549  0.00  0.00    +0.000 HD
ATOM     20  H   UNL     1      47.460   8.744  15.686  0.00  0.00    +0.000 HD
ENDBRANCH  17  18
ENDBRANCH  12  17
ENDBRANCH   1  14
TORSDOF 4
ENDMDL
MODEL 6
REMARK VINA RESULT:    -6.396      1.736      6.482
REMARK INTER + INTRA:          -7.994
REMARK INTER:                  -7.742
REMARK INTRA:                  -0.251
REMARK UNBOUND:                -0.288
REMARK  Name = 
REMARK  4 active torsions:
REMARK  status: ('A' for Active; 'I' for Inactive)
REMARK    1  A    between atoms: N_1  and  C_2
REMARK    2  A    between atoms: C_2  and  C_3
REMARK    3  A    between atoms: N_5  and  C_6
REMARK    4  A    between atoms: C_6  and  C_7
REMARK                            x       y       z     vdW  Elec       q    Type
REMARK                         _______ _______ _______ _____ _____    ______ ____
ROOT
ATOM      1  C   UNL     1      44.492   3.512   9.640  0.00  0.00    +0.000 C 
ENDROOT
BRANCH   1   2
ATOM      2  C   UNL     1      45.209   4.340  10.666  0.00  0.00    +0.000 A 
ATOM      3  C   UNL     1      45.545   5.660  10.410  0.00  0.00    +0.000 A 
ATOM      4  N   UNL     1      46.198   6.435  11.306  0.00  0.00    +0.000 NA
ATOM      5  C   UNL     1      46.537   5.850  12.471  0.00  0.00    +0.000 A 
ATOM      6  C   UNL     1      47.235   6.579  13.428  0.00  0.00    +0.000 A 
ATOM      7  C   UNL     1      47.610   6.007  14.645  0.00  0.00    +0.000 A 
ATOM      8  C   UNL     1      47.272   4.688  14.915  0.00  0.00    +0.000 A 
ATOM      9  C   UNL     1      46.567   3.949  13.964  0.00  0.00    +0.000 A 
ATOM     10  C   UNL     1      46.196   4.504  12.747  0.00  0.00    +0.000 A 
ATOM     11  N   UNL     1      45.528   3.753  11.846  0.00  0.00    +0.000 NA
ENDBRANCH   1   2
BRANCH   1  14
ATOM     12  C   UNL     1      46.594   2.558   6.882  0.00  0.00    +0.000 A 
ATOM     13  C   UNL     1      45.976   3.556   7.611  0.00  0.00    +0.000 A 
ATOM     14  N   UNL     1      45.407   2.921   8.680  0.00  0.00    +0.000 N 
ATOM     15  C   UNL     1      45.731   1.596   8.597  0.00  0.00    +0.000 A 
ATOM     16  N   UNL     1      46.452   1.346   7.525  0.00  0.00    +0.000 NA
BRANCH  12  17
ATOM     17  C   UNL     1      47.304   2.652   5.573  0.00  0.00    +0.000 C 
BRANCH  17  18
ATOM     18  N   UNL     1      48.494   1.806   5.607  0.00  0.00    +0.000 NA
ATOM     19  H   UNL     1      49.217   2.289   6.135  0.00  0.00    +0.000 HD
ATOM     20  H   UNL     1      48.842   1.740   4.648  0.00  0.00    +0.000 HD
ENDBRANCH  17  18
ENDBRANCH  12  17
ENDBRANCH   1  14
TORSDOF 4
ENDMDL
MODEL 7
REMARK VINA RESULT:    -6.125      4.231      6.856
REMARK INTER + INTRA:          -7.666
REMARK INTER:                  -7.478
REMARK INTRA:                  -0.188
REMARK UNBOUND:                -0.288
REMARK  Name = 
REMARK  4 active torsions:
REMARK  status: ('A' for Active; 'I' for Inactive)
REMARK    1  A    between atoms: N_1  and  C_2
REMARK    2  A    between atoms: C_2  and  C_3
REMARK    3  A    between atoms: N_5  and  C_6
REMARK    4  A    between atoms: C_6  and  C_7
REMARK                            x       y       z     vdW  Elec       q    Type
REMARK                         _______ _______ _______ _____ _____    ______ ____
ROOT
ATOM      1  C   UNL     1      47.680   4.482  16.961  0.00  0.00    +0.000 C 
ENDROOT
BRANCH   1   2
ATOM      2  C   UNL     1      47.471   5.025  15.578  0.00  0.00    +0.000 A 
ATOM      3  C   UNL     1      48.210   6.102  15.114  0.00  0.00    +0.000 A 
ATOM      4  N   UNL     1      48.045   6.623  13.877  0.00  0.00    +0.000 NA
ATOM      5  C   UNL     1      47.095   6.057  13.108  0.00  0.00    +0.000 A 
ATOM      6  C   UNL     1      46.850   6.560  11.835  0.00  0.00    +0.000 A 
ATOM      7  C   UNL     1      45.870   6.005  11.011  0.00  0.00    +0.000 A 
ATOM      8  C   UNL     1      45.130   4.921  11.462  0.00  0.00    +0.000 A 
ATOM      9  C   UNL     1      45.370   4.404  12.736  0.00  0.00    +0.000 A 
ATOM     10  C   UNL     1      46.336   4.954  13.568  0.00  0.00    +0.000 A 
ATOM     11  N   UNL     1      46.529   4.436  14.800  0.00  0.00    +0.000 NA
ENDBRANCH   1   2
BRANCH   1  14
ATOM     12  C   UNL     1      50.481   2.244  17.250  0.00  0.00    +0.000 A 
ATOM     13  C   UNL     1      49.807   3.364  17.700  0.00  0.00    +0.000 A 
ATOM     14  N   UNL     1      48.644   3.397  16.981  0.00  0.00    +0.000 N 
ATOM     15  C   UNL     1      48.624   2.295  16.173  0.00  0.00    +0.000 A 
ATOM     16  N   UNL     1      49.716   1.577  16.315  0.00  0.00    +0.000 NA
BRANCH  12  17
ATOM     17  C   UNL     1      51.841   1.754  17.617  0.00  0.00    +0.000 C 
BRANCH  17  18
ATOM     18  N   UNL     1      51.750   0.365  18.059  0.00  0.00    +0.000 NA
ATOM     19  H   UNL     1      51.100  -0.125  17.449  0.00  0.00    +0.000 HD
ATOM     20  H   UNL     1      51.316   0.373  18.984  0.00  0.00    +0.000 HD
ENDBRANCH  17  18
ENDBRANCH  12  17
ENDBRANCH   1  14
TORSDOF 4
ENDMDL
MODEL 8
REMARK VINA RESULT:    -5.975      2.050      6.313
REMARK INTER + INTRA:          -7.486
REMARK INTER:                  -7.113
REMARK INTRA:                  -0.373
REMARK UNBOUND:                -0.288
REMARK  Name = 
REMARK  4 active torsions:
REMARK  status: ('A' for Active; 'I' for Inactive)
REMARK    1  A    between atoms: N_1  and  C_2
REMARK    2  A    between atoms: C_2  and  C_3
REMARK    3  A    between atoms: N_5  and  C_6
REMARK    4  A    between atoms: C_6  and  C_7
REMARK                            x       y       z     vdW  Elec       q    Type
REMARK                         _______ _______ _______ _____ _____    ______ ____
ROOT
ATOM      1  C   UNL     1      43.474   4.450  10.984  0.00  0.00    +0.000 C 
ENDROOT
BRANCH   1   2
ATOM      2  C   UNL     1      44.354   5.485  11.620  0.00  0.00    +0.000 A 
ATOM      3  C   UNL     1      44.118   6.837  11.430  0.00  0.00    +0.000 A 
ATOM      4  N   UNL     1      44.894   7.798  11.979  0.00  0.00    +0.000 NA
ATOM      5  C   UNL     1      45.942   7.378  12.714  0.00  0.00    +0.000 A 
ATOM      6  C   UNL     1      46.800   8.312  13.286  0.00  0.00    +0.000 A 
ATOM      7  C   UNL     1      47.899   7.916  14.048  0.00  0.00    +0.000 A 
ATOM      8  C   UNL     1      48.140   6.564  14.253  0.00  0.00    +0.000 A 
ATOM      9  C   UNL     1      47.283   5.618  13.688  0.00  0.00    +0.000 A 
ATOM     10  C   UNL     1      46.191   6.000  12.920  0.00  0.00    +0.000 A 
ATOM     11  N   UNL     1      45.394   5.056  12.377  0.00  0.00    +0.000 NA
ENDBRANCH   1   2
BRANCH   1  14
ATOM     12  C   UNL     1      45.310   2.351   8.713  0.00  0.00    +0.000 A 
ATOM     13  C   UNL     1      44.580   2.481   9.879  0.00  0.00    +0.000 A 
ATOM     14  N   UNL     1      44.134   3.774   9.882  0.00  0.00    +0.000 N 
ATOM     15  C   UNL     1      44.554   4.360   8.721  0.00  0.00    +0.000 A 
ATOM     16  N   UNL     1      45.262   3.526   7.992  0.00  0.00    +0.000 NA
BRANCH  12  17
ATOM     17  C   UNL     1      46.098   1.183   8.222  0.00  0.00    +0.000 C 
BRANCH  17  18
ATOM     18  N   UNL     1      47.176   1.656   7.357  0.00  0.00    +0.000 NA
ATOM     19  H   UNL     1      47.855   0.906   7.250  0.00  0.00    +0.000 HD
ATOM     20  H   UNL     1      47.659   2.402   7.862  0.00  0.00    +0.000 HD
ENDBRANCH  17  18
ENDBRANCH  12  17
ENDBRANCH   1  14
TORSDOF 4
ENDMDL
MODEL 9
REMARK VINA RESULT:    -5.895      3.094      4.385
REMARK INTER + INTRA:          -7.389
REMARK INTER:                  -7.010
REMARK INTRA:                  -0.379
REMARK UNBOUND:                -0.288
REMARK  Name = 
REMARK  4 active torsions:
REMARK  status: ('A' for Active; 'I' for Inactive)
REMARK    1  A    between atoms: N_1  and  C_2
REMARK    2  A    between atoms: C_2  and  C_3
REMARK    3  A    between atoms: N_5  and  C_6
REMARK    4  A    between atoms: C_6  and  C_7
REMARK                            x       y       z     vdW  Elec       q    Type
REMARK                         _______ _______ _______ _____ _____    ______ ____
ROOT
ATOM      1  C   UNL     1      45.732   7.426  12.877  0.00  0.00    +0.000 C 
ENDROOT
BRANCH   1   2
ATOM      2  C   UNL     1      45.300   6.179  12.163  0.00  0.00    +0.000 A 
ATOM      3  C   UNL     1      44.589   5.189  12.821  0.00  0.00    +0.000 A 
ATOM      4  N   UNL     1      44.190   4.049  12.213  0.00  0.00    +0.000 NA
ATOM      5  C   UNL     1      44.540   3.903  10.921  0.00  0.00    +0.000 A 
ATOM      6  C   UNL     1      44.188   2.742  10.240  0.00  0.00    +0.000 A 
ATOM      7  C   UNL     1      44.539   2.550   8.903  0.00  0.00    +0.000 A 
ATOM      8  C   UNL     1      45.243   3.539   8.230  0.00  0.00    +0.000 A 
ATOM      9  C   UNL     1      45.598   4.710   8.902  0.00  0.00    +0.000 A 
ATOM     10  C   UNL     1      45.262   4.909  10.235  0.00  0.00    +0.000 A 
ATOM     11  N   UNL     1      45.636   6.048  10.855  0.00  0.00    +0.000 NA
ENDBRANCH   1   2
BRANCH   1  14
ATOM     12  C   UNL     1      49.301   7.854  12.751  0.00  0.00    +0.000 A 
ATOM     13  C   UNL     1      48.041   8.299  12.399  0.00  0.00    +0.000 A 
ATOM     14  N   UNL     1      47.171   7.478  13.062  0.00  0.00    +0.000 N 
ATOM     15  C   UNL     1      47.911   6.613  13.818  0.00  0.00    +0.000 A 
ATOM     16  N   UNL     1      49.200   6.818  13.656  0.00  0.00    +0.000 NA
BRANCH  12  17
ATOM     17  C   UNL     1      50.632   8.321  12.267  0.00  0.00    +0.000 C 
BRANCH  17  18
ATOM     18  N   UNL     1      51.127   7.398  11.249  0.00  0.00    +0.000 NA
ATOM     19  H   UNL     1      50.344   7.115  10.664  0.00  0.00    +0.000 HD
ATOM     20  H   UNL     1      51.434   6.553  11.735  0.00  0.00    +0.000 HD
ENDBRANCH  17  18
ENDBRANCH  12  17
ENDBRANCH   1  14
TORSDOF 4
ENDMDL
