MODEL 1
REMARK VINA RESULT:    -6.099      0.000      0.000
REMARK INTER + INTRA:          -7.695
REMARK INTER:                  -7.169
REMARK INTRA:                  -0.526
REMARK UNBOUND:                -0.526
REMARK  Name = 
REMARK  5 active torsions:
REMARK  status: ('A' for Active; 'I' for Inactive)
REMARK    1  A    between atoms: C_1  and  S_2
REMARK    2  A    between atoms: S_2  and  C_3
REMARK    3  A    between atoms: N_10  and  C_11
REMARK    4  A    between atoms: C_11  and  C_12
REMARK    5  A    between atoms: N_15  and  C_16
REMARK                            x       y       z     vdW  Elec       q    Type
REMARK                         _______ _______ _______ _____ _____    ______ ____
ROOT
ATOM      1  C   UNL     1      46.263   7.890  12.365  0.00  0.00    +0.000 A 
ATOM      2  C   UNL     1      46.868   7.067  11.408  0.00  0.00    +0.000 A 
ATOM      3  N   UNL     1      46.417   5.869  10.957  0.00  0.00    +0.000 NA
ATOM      4  C   UNL     1      45.253   5.502  11.522  0.00  0.00    +0.000 A 
ATOM      5  C   UNL     1      44.490   6.256  12.421  0.00  0.00    +0.000 A 
ATOM      6  C   UNL     1      43.312   5.510  12.687  0.00  0.00    +0.000 A 
ATOM      7  C   UNL     1      43.412   4.311  12.014  0.00  0.00    +0.000 A 
ATOM      8  N   UNL     1      44.628   4.289  11.365  0.00  0.00    +0.000 N 
ATOM      9  C   UNL     1      45.018   7.488  12.854  0.00  0.00    +0.000 A 
ENDROOT
BRANCH   1  11
ATOM     10  C   UNL     1      48.011   8.736  14.434  0.00  0.00    +0.000 C 
ATOM     11  S   UNL     1      47.187   9.313  12.928  0.00  0.00    +0.000 S 
ENDBRANCH   1  11
BRANCH   8  12
ATOM     12  C   UNL     1      45.164   3.137  10.651  0.00  0.00    +0.000 C 
BRANCH  12  13
ATOM     13  C   UNL     1      44.397   2.797   9.354  0.00  0.00    +0.000 C 
ATOM     14  C   UNL     1      44.777   1.442   8.741  0.00  0.00    +0.000 C 
ATOM     15  C   UNL     1      46.213   1.436   8.214  0.00  0.00    +0.000 C 
ATOM     16  N   UNL     1      46.449   2.503   7.227  0.00  0.00    +0.000 NA
ATOM     17  C   UNL     1      47.869   2.516   6.855  0.00  0.00    +0.000 C 
ATOM     18  C   UNL     1      46.039   3.832   7.691  0.00  0.00    +0.000 C 
ATOM     19  C   UNL     1      44.620   3.863   8.270  0.00  0.00    +0.000 C 
ENDBRANCH  12  13
ENDBRANCH   8  12
TORSDOF 3
ENDMDL
MODEL 2
REMARK VINA RESULT:    -5.413      4.484      7.260
REMARK INTER + INTRA:          -6.888
REMARK INTER:                  -6.927
REMARK INTRA:                   0.039
REMARK UNBOUND:                -0.526
REMARK  Name = 
REMARK  5 active torsions:
REMARK  status: ('A' for Active; 'I' for Inactive)
REMARK    1  A    between atoms: C_1  and  S_2
REMARK    2  A    between atoms: S_2  and  C_3
REMARK    3  A    between atoms: N_10  and  C_11
REMARK    4  A    between atoms: C_11  and  C_12
REMARK    5  A    between atoms: N_15  and  C_16
REMARK                            x       y       z     vdW  Elec       q    Type
REMARK                         _______ _______ _______ _____ _____    ______ ____
ROOT
ATOM      1  C   UNL     1      44.976   4.329  10.697  0.00  0.00    +0.000 A 
ATOM      2  C   UNL     1      45.005   3.304  11.650  0.00  0.00    +0.000 A 
ATOM      3  N   UNL     1      45.639   3.321  12.850  0.00  0.00    +0.000 NA
ATOM      4  C   UNL     1      46.275   4.482  13.089  0.00  0.00    +0.000 A 
ATOM      5  C   UNL     1      46.262   5.621  12.276  0.00  0.00    +0.000 A 
ATOM      6  C   UNL     1      46.999   6.623  12.960  0.00  0.00    +0.000 A 
ATOM      7  C   UNL     1      47.497   6.063  14.117  0.00  0.00    +0.000 A 
ATOM      8  N   UNL     1      47.107   4.741  14.151  0.00  0.00    +0.000 N 
ATOM      9  C   UNL     1      45.590   5.535  11.040  0.00  0.00    +0.000 A 
ENDROOT
BRANCH   1  11
ATOM     10  C   UNL     1      45.662   3.742   8.007  0.00  0.00    +0.000 C 
ATOM     11  S   UNL     1      44.242   3.956   9.110  0.00  0.00    +0.000 S 
ENDBRANCH   1  11
BRANCH   8  12
ATOM     12  C   UNL     1      47.544   3.774  15.150  0.00  0.00    +0.000 C 
BRANCH  12  13
ATOM     13  C   UNL     1      47.308   4.235  16.606  0.00  0.00    +0.000 C 
ATOM     14  C   UNL     1      48.185   5.418  17.036  0.00  0.00    +0.000 C 
ATOM     15  C   UNL     1      49.664   5.035  17.112  0.00  0.00    +0.000 C 
ATOM     16  N   UNL     1      49.900   3.898  18.015  0.00  0.00    +0.000 NA
ATOM     17  C   UNL     1      51.313   3.507  17.948  0.00  0.00    +0.000 C 
ATOM     18  C   UNL     1      49.046   2.738  17.735  0.00  0.00    +0.000 C 
ATOM     19  C   UNL     1      47.561   3.095  17.606  0.00  0.00    +0.000 C 
ENDBRANCH  12  13
ENDBRANCH   8  12
TORSDOF 3
ENDMDL
MODEL 3
REMARK VINA RESULT:    -5.399      3.761      5.042
REMARK INTER + INTRA:          -6.871
REMARK INTER:                  -6.786
REMARK INTRA:                  -0.085
REMARK UNBOUND:                -0.526
REMARK  Name = 
REMARK  5 active torsions:
REMARK  status: ('A' for Active; 'I' for Inactive)
REMARK    1  A    between atoms: C_1  and  S_2
REMARK    2  A    between atoms: S_2  and  C_3
REMARK    3  A    between atoms: N_10  and  C_11
REMARK    4  A    between atoms: C_11  and  C_12
REMARK    5  A    between atoms: N_15  and  C_16
REMARK                            x       y       z     vdW  Elec       q    Type
REMARK                         _______ _______ _______ _____ _____    ______ ____
ROOT
ATOM      1  C   UNL     1      48.271   4.868  17.795  0.00  0.00    +0.000 A 
ATOM      2  C   UNL     1      47.587   3.769  17.263  0.00  0.00    +0.000 A 
ATOM      3  N   UNL     1      47.140   3.622  15.990  0.00  0.00    +0.000 NA
ATOM      4  C   UNL     1      47.434   4.675  15.208  0.00  0.00    +0.000 A 
ATOM      5  C   UNL     1      48.183   5.800  15.572  0.00  0.00    +0.000 A 
ATOM      6  C   UNL     1      48.301   6.609  14.412  0.00  0.00    +0.000 A 
ATOM      7  C   UNL     1      47.575   6.009  13.405  0.00  0.00    +0.000 A 
ATOM      8  N   UNL     1      46.996   4.870  13.920  0.00  0.00    +0.000 N 
ATOM      9  C   UNL     1      48.611   5.895  16.911  0.00  0.00    +0.000 A 
ENDROOT
BRANCH   1  11
ATOM     10  C   UNL     1      47.507   6.242  20.158  0.00  0.00    +0.000 C 
ATOM     11  S   UNL     1      48.551   4.887  19.561  0.00  0.00    +0.000 S 
ENDBRANCH   1  11
BRANCH   8  12
ATOM     12  C   UNL     1      46.045   4.028  13.204  0.00  0.00    +0.000 C 
BRANCH  12  13
ATOM     13  C   UNL     1      44.698   4.725  12.908  0.00  0.00    +0.000 C 
ATOM     14  C   UNL     1      43.593   3.770  12.437  0.00  0.00    +0.000 C 
ATOM     15  C   UNL     1      43.897   3.178  11.060  0.00  0.00    +0.000 C 
ATOM     16  N   UNL     1      44.114   4.217  10.041  0.00  0.00    +0.000 NA
ATOM     17  C   UNL     1      44.518   3.586   8.779  0.00  0.00    +0.000 C 
ATOM     18  C   UNL     1      45.100   5.229  10.435  0.00  0.00    +0.000 C 
ATOM     19  C   UNL     1      44.850   5.810  11.830  0.00  0.00    +0.000 C 
ENDBRANCH  12  13
ENDBRANCH   8  12
TORSDOF 3
ENDMDL
MODEL 4
REMARK VINA RESULT:    -4.996      4.203      7.954
REMARK INTER + INTRA:          -6.398
REMARK INTER:                  -6.030
REMARK INTRA:                  -0.368
REMARK UNBOUND:                -0.526
REMARK  Name = 
REMARK  5 active torsions:
REMARK  status: ('A' for Active; 'I' for Inactive)
REMARK    1  A    between atoms: C_1  and  S_2
REMARK    2  A    between atoms: S_2  and  C_3
REMARK    3  A    between atoms: N_10  and  C_11
REMARK    4  A    between atoms: C_11  and  C_12
REMARK    5  A    between atoms: N_15  and  C_16
REMARK                            x       y       z     vdW  Elec       q    Type
REMARK                         _______ _______ _______ _____ _____    ______ ____
ROOT
ATOM      1  C   UNL     1      45.180   4.695  11.578  0.00  0.00    +0.000 A 
ATOM      2  C   UNL     1      45.182   4.145  12.866  0.00  0.00    +0.000 A 
ATOM      3  N   UNL     1      45.966   4.512  13.911  0.00  0.00    +0.000 NA
ATOM      4  C   UNL     1      46.795   5.528  13.611  0.00  0.00    +0.000 A 
ATOM      5  C   UNL     1      46.845   6.233  12.403  0.00  0.00    +0.000 A 
ATOM      6  C   UNL     1      47.809   7.261  12.568  0.00  0.00    +0.000 A 
ATOM      7  C   UNL     1      48.367   7.119  13.821  0.00  0.00    +0.000 A 
ATOM      8  N   UNL     1      47.791   6.020  14.420  0.00  0.00    +0.000 N 
ATOM      9  C   UNL     1      46.009   5.797  11.356  0.00  0.00    +0.000 A 
ENDROOT
BRANCH   1  11
ATOM     10  C   UNL     1      45.077   4.198   8.786  0.00  0.00    +0.000 C 
ATOM     11  S   UNL     1      44.193   3.874  10.334  0.00  0.00    +0.000 S 
ENDBRANCH   1  11
BRANCH   8  12
ATOM     12  C   UNL     1      48.207   5.462  15.700  0.00  0.00    +0.000 C 
BRANCH  12  13
ATOM     13  C   UNL     1      49.268   6.312  16.434  0.00  0.00    +0.000 C 
ATOM     14  C   UNL     1      50.403   5.490  17.059  0.00  0.00    +0.000 C 
ATOM     15  C   UNL     1      49.909   4.619  18.216  0.00  0.00    +0.000 C 
ATOM     16  N   UNL     1      49.243   5.410  19.263  0.00  0.00    +0.000 NA
ATOM     17  C   UNL     1      48.690   4.505  20.278  0.00  0.00    +0.000 C 
ATOM     18  C   UNL     1      48.190   6.294  18.752  0.00  0.00    +0.000 C 
ATOM     19  C   UNL     1      48.639   7.148  17.561  0.00  0.00    +0.000 C 
ENDBRANCH  12  13
ENDBRANCH   8  12
TORSDOF 3
ENDMDL
MODEL 5
REMARK VINA RESULT:    -4.933      2.550      4.125
REMARK INTER + INTRA:          -6.324
REMARK INTER:                  -5.902
REMARK INTRA:                  -0.422
REMARK UNBOUND:                -0.526
REMARK  Name = 
REMARK  5 active torsions:
REMARK  status: ('A' for Active; 'I' for Inactive)
REMARK    1  A    between atoms: C_1  and  S_2
REMARK    2  A    between atoms: S_2  and  C_3
REMARK    3  A    between atoms: N_10  and  C_11
REMARK    4  A    between atoms: C_11  and  C_12
REMARK    5  A    between atoms: N_15  and  C_16
REMARK                            x       y       z     vdW  Elec       q    Type
REMARK                         _______ _______ _______ _____ _____    ______ ____
ROOT
ATOM      1  C   UNL     1      49.708   7.854  14.065  0.00  0.00    +0.000 A 
ATOM      2  C   UNL     1      48.875   7.560  12.979  0.00  0.00    +0.000 A 
ATOM      3  N   UNL     1      47.918   6.599  12.918  0.00  0.00    +0.000 NA
ATOM      4  C   UNL     1      47.803   5.903  14.063  0.00  0.00    +0.000 A 
ATOM      5  C   UNL     1      48.501   6.138  15.253  0.00  0.00    +0.000 A 
ATOM      6  C   UNL     1      48.003   5.215  16.210  0.00  0.00    +0.000 A 
ATOM      7  C   UNL     1      47.083   4.406  15.576  0.00  0.00    +0.000 A 
ATOM      8  N   UNL     1      47.022   4.789  14.253  0.00  0.00    +0.000 N 
ATOM      9  C   UNL     1      49.485   7.146  15.248  0.00  0.00    +0.000 A 
ENDROOT
BRANCH   1  11
ATOM     10  C   UNL     1      50.178  10.514  13.195  0.00  0.00    +0.000 C 
ATOM     11  S   UNL     1      51.027   9.031  13.796  0.00  0.00    +0.000 S 
ENDBRANCH   1  11
BRANCH   8  12
ATOM     12  C   UNL     1      46.261   4.092  13.224  0.00  0.00    +0.000 C 
BRANCH  12  13
ATOM     13  C   UNL     1      44.781   4.527  13.142  0.00  0.00    +0.000 C 
ATOM     14  C   UNL     1      43.846   3.453  12.570  0.00  0.00    +0.000 C 
ATOM     15  C   UNL     1      44.128   3.177  11.092  0.00  0.00    +0.000 C 
ATOM     16  N   UNL     1      44.035   4.395  10.271  0.00  0.00    +0.000 NA
ATOM     17  C   UNL     1      44.433   4.083   8.893  0.00  0.00    +0.000 C 
ATOM     18  C   UNL     1      44.834   5.512  10.784  0.00  0.00    +0.000 C 
ATOM     19  C   UNL     1      44.610   5.785  12.275  0.00  0.00    +0.000 C 
ENDBRANCH  12  13
ENDBRANCH   8  12
TORSDOF 3
ENDMDL
MODEL 6
REMARK VINA RESULT:    -4.796      3.573      5.128
REMARK INTER + INTRA:          -6.163
REMARK INTER:                  -5.769
REMARK INTRA:                  -0.394
REMARK UNBOUND:                -0.526
REMARK  Name = 
REMARK  5 active torsions:
REMARK  status: ('A' for Active; 'I' for Inactive)
REMARK    1  A    between atoms: C_1  and  S_2
REMARK    2  A    between atoms: S_2  and  C_3
REMARK    3  A    between atoms: N_10  and  C_11
REMARK    4  A    between atoms: C_11  and  C_12
REMARK    5  A    between atoms: N_15  and  C_16
REMARK                            x       y       z     vdW  Elec       q    Type
REMARK                         _______ _______ _______ _____ _____    ______ ____
ROOT
ATOM      1  C   UNL     1      50.358   6.908  16.440  0.00  0.00    +0.000 A 
ATOM      2  C   UNL     1      49.846   7.184  15.166  0.00  0.00    +0.000 A 
ATOM      3  N   UNL     1      48.799   6.575  14.556  0.00  0.00    +0.000 NA
ATOM      4  C   UNL     1      48.229   5.625  15.319  0.00  0.00    +0.000 A 
ATOM      5  C   UNL     1      48.571   5.300  16.636  0.00  0.00    +0.000 A 
ATOM      6  C   UNL     1      47.658   4.300  17.063  0.00  0.00    +0.000 A 
ATOM      7  C   UNL     1      46.842   3.992  15.995  0.00  0.00    +0.000 A 
ATOM      8  N   UNL     1      47.243   4.755  14.920  0.00  0.00    +0.000 N 
ATOM      9  C   UNL     1      49.673   5.965  17.209  0.00  0.00    +0.000 A 
ENDROOT
BRANCH   1  11
ATOM     10  C   UNL     1      53.175   6.666  16.196  0.00  0.00    +0.000 C 
ATOM     11  S   UNL     1      51.882   7.716  16.908  0.00  0.00    +0.000 S 
ENDBRANCH   1  11
BRANCH   8  12
ATOM     12  C   UNL     1      46.713   4.625  13.569  0.00  0.00    +0.000 C 
BRANCH  12  13
ATOM     13  C   UNL     1      45.404   5.413  13.336  0.00  0.00    +0.000 C 
ATOM     14  C   UNL     1      44.196   4.528  12.997  0.00  0.00    +0.000 C 
ATOM     15  C   UNL     1      44.349   3.850  11.635  0.00  0.00    +0.000 C 
ATOM     16  N   UNL     1      44.564   4.821  10.550  0.00  0.00    +0.000 NA
ATOM     17  C   UNL     1      44.821   4.101   9.297  0.00  0.00    +0.000 C 
ATOM     18  C   UNL     1      45.651   5.768  10.817  0.00  0.00    +0.000 C 
ATOM     19  C   UNL     1      45.554   6.431  12.195  0.00  0.00    +0.000 C 
ENDBRANCH  12  13
ENDBRANCH   8  12
TORSDOF 3
ENDMDL
MODEL 7
REMARK VINA RESULT:    -4.596      3.837      6.958
REMARK INTER + INTRA:          -5.928
REMARK INTER:                  -5.665
REMARK INTRA:                  -0.263
REMARK UNBOUND:                -0.526
REMARK  Name = 
REMARK  5 active torsions:
REMARK  status: ('A' for Active; 'I' for Inactive)
REMARK    1  A    between atoms: C_1  and  S_2
REMARK    2  A    between atoms: S_2  and  C_3
REMARK    3  A    between atoms: N_10  and  C_11
REMARK    4  A    between atoms: C_11  and  C_12
REMARK    5  A    between atoms: N_15  and  C_16
REMARK                            x       y       z     vdW  Elec       q    Type
REMARK                         _______ _______ _______ _____ _____    ______ ____
ROOT
ATOM      1  C   UNL     1      45.099   3.909   9.623  0.00  0.00    +0.000 A 
ATOM      2  C   UNL     1      44.855   3.184  10.796  0.00  0.00    +0.000 A 
ATOM      3  N   UNL     1      45.095   3.585  12.070  0.00  0.00    +0.000 NA
ATOM      4  C   UNL     1      45.608   4.826  12.140  0.00  0.00    +0.000 A 
ATOM      5  C   UNL     1      45.824   5.699  11.067  0.00  0.00    +0.000 A 
ATOM      6  C   UNL     1      46.302   6.917  11.619  0.00  0.00    +0.000 A 
ATOM      7  C   UNL     1      46.434   6.739  12.980  0.00  0.00    +0.000 A 
ATOM      8  N   UNL     1      46.075   5.442  13.276  0.00  0.00    +0.000 N 
ATOM      9  C   UNL     1      45.560   5.219   9.770  0.00  0.00    +0.000 A 
ENDROOT
BRANCH   1  11
ATOM     10  C   UNL     1      46.348   3.524   7.104  0.00  0.00    +0.000 C 
ATOM     11  S   UNL     1      44.888   3.053   8.068  0.00  0.00    +0.000 S 
ENDBRANCH   1  11
BRANCH   8  12
ATOM     12  C   UNL     1      46.204   4.827  14.591  0.00  0.00    +0.000 C 
BRANCH  12  13
ATOM     13  C   UNL     1      47.647   4.397  14.937  0.00  0.00    +0.000 C 
ATOM     14  C   UNL     1      47.735   3.357  16.062  0.00  0.00    +0.000 C 
ATOM     15  C   UNL     1      47.294   3.933  17.409  0.00  0.00    +0.000 C 
ATOM     16  N   UNL     1      48.069   5.126  17.785  0.00  0.00    +0.000 NA
ATOM     17  C   UNL     1      47.517   5.695  19.021  0.00  0.00    +0.000 C 
ATOM     18  C   UNL     1      48.113   6.152  16.737  0.00  0.00    +0.000 C 
ATOM     19  C   UNL     1      48.506   5.599  15.363  0.00  0.00    +0.000 C 
ENDBRANCH  12  13
ENDBRANCH   8  12
TORSDOF 3
ENDMDL
MODEL 8
REMARK VINA RESULT:    -4.521      2.604      4.751
REMARK INTER + INTRA:          -5.840
REMARK INTER:                  -5.511
REMARK INTRA:                  -0.329
REMARK UNBOUND:                -0.526
REMARK  Name = 
REMARK  5 active torsions:
REMARK  status: ('A' for Active; 'I' for Inactive)
REMARK    1  A    between atoms: C_1  and  S_2
REMARK    2  A    between atoms: S_2  and  C_3
REMARK    3  A    between atoms: N_10  and  C_11
REMARK    4  A    between atoms: C_11  and  C_12
REMARK    5  A    between atoms: N_15  and  C_16
REMARK                            x       y       z     vdW  Elec       q    Type
REMARK                         _______ _______ _______ _____ _____    ______ ____
ROOT
ATOM      1  C   UNL     1      49.227   7.685  16.726  0.00  0.00    +0.000 A 
ATOM      2  C   UNL     1      48.894   6.362  16.412  0.00  0.00    +0.000 A 
ATOM      3  N   UNL     1      48.359   5.907  15.252  0.00  0.00    +0.000 NA
ATOM      4  C   UNL     1      48.167   6.882  14.346  0.00  0.00    +0.000 A 
ATOM      5  C   UNL     1      48.530   8.227  14.482  0.00  0.00    +0.000 A 
ATOM      6  C   UNL     1      48.209   8.866  13.256  0.00  0.00    +0.000 A 
ATOM      7  C   UNL     1      47.603   7.932  12.441  0.00  0.00    +0.000 A 
ATOM      8  N   UNL     1      47.521   6.748  13.141  0.00  0.00    +0.000 N 
ATOM      9  C   UNL     1      49.076   8.636  15.715  0.00  0.00    +0.000 A 
ENDROOT
BRANCH   1  11
ATOM     10  C   UNL     1      49.162   9.735  18.688  0.00  0.00    +0.000 C 
ATOM     11  S   UNL     1      49.718   8.033  18.410  0.00  0.00    +0.000 S 
ENDBRANCH   1  11
BRANCH   8  12
ATOM     12  C   UNL     1      46.828   5.555  12.671  0.00  0.00    +0.000 C 
BRANCH  12  13
ATOM     13  C   UNL     1      45.294   5.721  12.587  0.00  0.00    +0.000 C 
ATOM     14  C   UNL     1      44.508   4.468  12.999  0.00  0.00    +0.000 C 
ATOM     15  C   UNL     1      44.709   3.316  12.013  0.00  0.00    +0.000 C 
ATOM     16  N   UNL     1      44.346   3.691  10.637  0.00  0.00    +0.000 NA
ATOM     17  C   UNL     1      44.676   2.586   9.729  0.00  0.00    +0.000 C 
ATOM     18  C   UNL     1      44.987   4.928  10.176  0.00  0.00    +0.000 C 
ATOM     19  C   UNL     1      44.844   6.090  11.165  0.00  0.00    +0.000 C 
ENDBRANCH  12  13
ENDBRANCH   8  12
TORSDOF 3
ENDMDL
MODEL 9
REMARK VINA RESULT:    -4.245      3.591      7.722
REMARK INTER + INTRA:          -5.515
REMARK INTER:                  -5.122
REMARK INTRA:                  -0.393
REMARK UNBOUND:                -0.526
REMARK  Name = 
REMARK  5 active torsions:
REMARK  status: ('A' for Active; 'I' for Inactive)
REMARK    1  A    between atoms: C_1  and  S_2
REMARK    2  A    between atoms: S_2  and  C_3
REMARK    3  A    between atoms: N_10  and  C_11
REMARK    4  A    between atoms: C_11  and  C_12
REMARK    5  A    between atoms: N_15  and  C_16
REMARK                            x       y       z     vdW  Elec       q    Type
REMARK                         _______ _______ _______ _____ _____    ______ ____
ROOT
ATOM      1  C   UNL     1      44.602   5.550  11.936  0.00  0.00    +0.000 A 
ATOM      2  C   UNL     1      45.426   4.875  12.845  0.00  0.00    +0.000 A 
ATOM      3  N   UNL     1      46.464   5.392  13.549  0.00  0.00    +0.000 NA
ATOM      4  C   UNL     1      46.656   6.702  13.311  0.00  0.00    +0.000 A 
ATOM      5  C   UNL     1      45.865   7.526  12.502  0.00  0.00    +0.000 A 
ATOM      6  C   UNL     1      46.394   8.838  12.610  0.00  0.00    +0.000 A 
ATOM      7  C   UNL     1      47.517   8.775  13.408  0.00  0.00    +0.000 A 
ATOM      8  N   UNL     1      47.706   7.459  13.772  0.00  0.00    +0.000 N 
ATOM      9  C   UNL     1      44.806   6.924  11.793  0.00  0.00    +0.000 A 
ENDROOT
BRANCH   1  11
ATOM     10  C   UNL     1      43.452   2.959  11.814  0.00  0.00    +0.000 C 
ATOM     11  S   UNL     1      43.446   4.571  10.988  0.00  0.00    +0.000 S 
ENDBRANCH   1  11
BRANCH   8  12
ATOM     12  C   UNL     1      48.861   6.961  14.508  0.00  0.00    +0.000 C 
BRANCH  12  13
ATOM     13  C   UNL     1      48.649   6.911  16.037  0.00  0.00    +0.000 C 
ATOM     14  C   UNL     1      48.899   8.250  16.746  0.00  0.00    +0.000 C 
ATOM     15  C   UNL     1      50.371   8.660  16.691  0.00  0.00    +0.000 C 
ATOM     16  N   UNL     1      51.258   7.633  17.260  0.00  0.00    +0.000 NA
ATOM     17  C   UNL     1      52.656   8.035  17.067  0.00  0.00    +0.000 C 
ATOM     18  C   UNL     1      51.039   6.294  16.702  0.00  0.00    +0.000 C 
ATOM     19  C   UNL     1      49.566   5.870  16.699  0.00  0.00    +0.000 C 
ENDBRANCH  12  13
ENDBRANCH   8  12
TORSDOF 3
ENDMDL
