MODEL 1
REMARK VINA RESULT:    -8.329      0.000      0.000
REMARK INTER + INTRA:         -12.390
REMARK INTER:                 -11.251
REMARK INTRA:                  -1.140
REMARK UNBOUND:                -1.140
REMARK  Name = 
REMARK  6 active torsions:
REMARK  status: ('A' for Active; 'I' for Inactive)
REMARK    1  A    between atoms: C_2  and  C_25
REMARK    2  A    between atoms: N_3  and  C_4
REMARK    3  A    between atoms: C_4  and  C_5
REMARK    4  A    between atoms: C_8  and  C_9
REMARK    5  A    between atoms: C_9  and  N_10
REMARK    6  A    between atoms: C_11  and  C_13
REMARK                            x       y       z     vdW  Elec       q    Type
REMARK                         _______ _______ _______ _____ _____    ______ ____
ROOT
ATOM      1  C   UNL     1      44.944   5.323  10.517  0.00  0.00    +0.000 A 
ATOM      2  C   UNL     1      46.204   5.880  10.255  0.00  0.00    +0.000 A 
ATOM      3  C   UNL     1      46.789   6.782  11.152  0.00  0.00    +0.000 A 
ATOM      4  C   UNL     1      46.135   7.131  12.341  0.00  0.00    +0.000 A 
ATOM      5  C   UNL     1      44.873   6.580  12.599  0.00  0.00    +0.000 A 
ATOM      6  C   UNL     1      44.289   5.676  11.704  0.00  0.00    +0.000 A 
ENDROOT
BRANCH   1   7
ATOM      7  C   UNL     1      44.317   4.354   9.547  0.00  0.00    +0.000 C 
BRANCH   7  10
ATOM      8  O   UNL     1      45.442   1.835   9.140  0.00  0.00    +0.000 OA
ATOM      9  C   UNL     1      45.710   2.735   8.345  0.00  0.00    +0.000 C 
ATOM     10  N   UNL     1      45.217   4.011   8.476  0.00  0.00    +0.000 N 
ATOM     11  H   UNL     1      45.354   4.678   7.732  0.00  0.00    +0.000 HD
BRANCH   9  12
ATOM     12  C   UNL     1      46.548   2.516   7.196  0.00  0.00    +0.000 A 
ATOM     13  C   UNL     1      46.600   3.093   5.941  0.00  0.00    +0.000 A 
ATOM     14  C   UNL     1      47.644   2.430   5.272  0.00  0.00    +0.000 A 
ATOM     15  N   UNL     1      48.227   1.505   6.035  0.00  0.00    +0.000 NA
ATOM     16  N   UNL     1      47.558   1.588   7.198  0.00  0.00    +0.000 N 
ATOM     17  H   UNL     1      47.825   0.975   7.965  0.00  0.00    +0.000 HD
ENDBRANCH   9  12
ENDBRANCH   7  10
ENDBRANCH   1   7
BRANCH   4  18
ATOM     18  C   UNL     1      46.758   8.100  13.316  0.00  0.00    +0.000 C 
BRANCH  18  19
ATOM     19  N   UNL     1      47.281   7.423  14.476  0.00  0.00    +0.000 N 
ATOM     20  C   UNL     1      48.570   6.950  14.503  0.00  0.00    +0.000 C 
ATOM     21  O   UNL     1      49.348   7.125  13.567  0.00  0.00    +0.000 OA
ATOM     22  H   UNL     1      46.606   7.060  15.141  0.00  0.00    +0.000 HD
BRANCH  20  23
ATOM     23  C   UNL     1      48.997   6.280  15.738  0.00  0.00    +0.000 A 
ATOM     24  C   UNL     1      50.090   6.763  16.445  0.00  0.00    +0.000 A 
ATOM     25  S   UNL     1      50.415   5.898  17.879  0.00  0.00    +0.000 S 
ATOM     26  C   UNL     1      49.139   4.814  17.578  0.00  0.00    +0.000 A 
ATOM     27  N   UNL     1      48.878   3.785  18.430  0.00  0.00    +0.000 NA
ATOM     28  C   UNL     1      47.902   3.023  18.063  0.00  0.00    +0.000 A 
ATOM     29  N   UNL     1      47.160   3.200  16.924  0.00  0.00    +0.000 N 
ATOM     30  C   UNL     1      47.367   4.240  16.052  0.00  0.00    +0.000 A 
ATOM     31  O   UNL     1      46.652   4.396  15.067  0.00  0.00    +0.000 OA
ATOM     32  C   UNL     1      48.462   5.120  16.412  0.00  0.00    +0.000 A 
ATOM     33  H   UNL     1      46.401   2.572  16.699  0.00  0.00    +0.000 HD
ENDBRANCH  20  23
ENDBRANCH  18  19
ENDBRANCH   4  18
TORSDOF 6
ENDMDL
MODEL 2
REMARK VINA RESULT:    -7.508      2.384      2.751
REMARK INTER + INTRA:         -11.282
REMARK INTER:                 -10.315
REMARK INTRA:                  -0.967
REMARK UNBOUND:                -1.140
REMARK  Name = 
REMARK  6 active torsions:
REMARK  status: ('A' for Active; 'I' for Inactive)
REMARK    1  A    between atoms: C_2  and  C_25
REMARK    2  A    between atoms: N_3  and  C_4
REMARK    3  A    between atoms: C_4  and  C_5
REMARK    4  A    between atoms: C_8  and  C_9
REMARK    5  A    between atoms: C_9  and  N_10
REMARK    6  A    between atoms: C_11  and  C_13
REMARK                            x       y       z     vdW  Elec       q    Type
REMARK                         _______ _______ _______ _____ _____    ______ ____
ROOT
ATOM      1  C   UNL     1      45.274   4.749  11.614  0.00  0.00    +0.000 A 
ATOM      2  C   UNL     1      45.531   6.052  11.163  0.00  0.00    +0.000 A 
ATOM      3  C   UNL     1      46.370   6.908  11.886  0.00  0.00    +0.000 A 
ATOM      4  C   UNL     1      46.988   6.473  13.066  0.00  0.00    +0.000 A 
ATOM      5  C   UNL     1      46.725   5.174  13.520  0.00  0.00    +0.000 A 
ATOM      6  C   UNL     1      45.889   4.316  12.796  0.00  0.00    +0.000 A 
ENDROOT
BRANCH   1   7
ATOM      7  C   UNL     1      44.368   3.831  10.834  0.00  0.00    +0.000 C 
BRANCH   7  10
ATOM      8  O   UNL     1      44.934   4.429   8.169  0.00  0.00    +0.000 OA
ATOM      9  C   UNL     1      45.354   3.372   8.637  0.00  0.00    +0.000 C 
ATOM     10  N   UNL     1      45.110   2.985   9.933  0.00  0.00    +0.000 N 
ATOM     11  H   UNL     1      45.584   2.179  10.313  0.00  0.00    +0.000 HD
BRANCH   9  12
ATOM     12  C   UNL     1      46.159   2.460   7.868  0.00  0.00    +0.000 A 
ATOM     13  C   UNL     1      47.017   2.630   6.798  0.00  0.00    +0.000 A 
ATOM     14  C   UNL     1      47.492   1.342   6.496  0.00  0.00    +0.000 A 
ATOM     15  N   UNL     1      46.989   0.413   7.311  0.00  0.00    +0.000 NA
ATOM     16  N   UNL     1      46.200   1.117   8.141  0.00  0.00    +0.000 N 
ATOM     17  H   UNL     1      45.698   0.626   8.877  0.00  0.00    +0.000 HD
ENDBRANCH   9  12
ENDBRANCH   7  10
ENDBRANCH   1   7
BRANCH   4  18
ATOM     18  C   UNL     1      47.897   7.386  13.851  0.00  0.00    +0.000 C 
BRANCH  18  19
ATOM     19  N   UNL     1      47.937   7.025  15.245  0.00  0.00    +0.000 N 
ATOM     20  C   UNL     1      49.117   6.686  15.859  0.00  0.00    +0.000 C 
ATOM     21  O   UNL     1      50.193   6.724  15.267  0.00  0.00    +0.000 OA
ATOM     22  H   UNL     1      47.058   6.755  15.677  0.00  0.00    +0.000 HD
BRANCH  20  23
ATOM     23  C   UNL     1      49.039   6.339  17.284  0.00  0.00    +0.000 A 
ATOM     24  C   UNL     1      49.486   5.098  17.720  0.00  0.00    +0.000 A 
ATOM     25  S   UNL     1      49.370   4.883  19.408  0.00  0.00    +0.000 S 
ATOM     26  C   UNL     1      48.669   6.419  19.610  0.00  0.00    +0.000 A 
ATOM     27  N   UNL     1      48.293   6.861  20.842  0.00  0.00    +0.000 NA
ATOM     28  C   UNL     1      47.747   8.031  20.845  0.00  0.00    +0.000 A 
ATOM     29  N   UNL     1      47.546   8.801  19.729  0.00  0.00    +0.000 N 
ATOM     30  C   UNL     1      47.935   8.410  18.472  0.00  0.00    +0.000 A 
ATOM     31  O   UNL     1      47.783   9.145  17.501  0.00  0.00    +0.000 OA
ATOM     32  C   UNL     1      48.544   7.095  18.411  0.00  0.00    +0.000 A 
ATOM     33  H   UNL     1      47.121   9.715  19.801  0.00  0.00    +0.000 HD
ENDBRANCH  20  23
ENDBRANCH  18  19
ENDBRANCH   4  18
TORSDOF 6
ENDMDL
MODEL 3
REMARK VINA RESULT:    -7.364      1.547      1.782
REMARK INTER + INTRA:         -11.086
REMARK INTER:                 -10.318
REMARK INTRA:                  -0.768
REMARK UNBOUND:                -1.140
REMARK  Name = 
REMARK  6 active torsions:
REMARK  status: ('A' for Active; 'I' for Inactive)
REMARK    1  A    between atoms: C_2  and  C_25
REMARK    2  A    between atoms: N_3  and  C_4
REMARK    3  A    between atoms: C_4  and  C_5
REMARK    4  A    between atoms: C_8  and  C_9
REMARK    5  A    between atoms: C_9  and  N_10
REMARK    6  A    between atoms: C_11  and  C_13
REMARK                            x       y       z     vdW  Elec       q    Type
REMARK                         _______ _______ _______ _____ _____    ______ ____
ROOT
ATOM      1  C   UNL     1      45.033   4.233  11.158  0.00  0.00    +0.000 A 
ATOM      2  C   UNL     1      45.461   5.448  10.605  0.00  0.00    +0.000 A 
ATOM      3  C   UNL     1      46.025   6.443  11.413  0.00  0.00    +0.000 A 
ATOM      4  C   UNL     1      46.193   6.236  12.788  0.00  0.00    +0.000 A 
ATOM      5  C   UNL     1      45.758   5.024  13.341  0.00  0.00    +0.000 A 
ATOM      6  C   UNL     1      45.197   4.027  12.534  0.00  0.00    +0.000 A 
ENDROOT
BRANCH   1   7
ATOM      7  C   UNL     1      44.425   3.164  10.284  0.00  0.00    +0.000 C 
BRANCH   7  10
ATOM      8  O   UNL     1      44.543   4.103   7.662  0.00  0.00    +0.000 OA
ATOM      9  C   UNL     1      45.344   3.238   8.014  0.00  0.00    +0.000 C 
ATOM     10  N   UNL     1      45.348   2.704   9.280  0.00  0.00    +0.000 N 
ATOM     11  H   UNL     1      46.104   2.098   9.563  0.00  0.00    +0.000 HD
BRANCH   9  12
ATOM     12  C   UNL     1      46.359   2.730   7.130  0.00  0.00    +0.000 A 
ATOM     13  C   UNL     1      46.766   3.082   5.857  0.00  0.00    +0.000 A 
ATOM     14  C   UNL     1      47.808   2.192   5.542  0.00  0.00    +0.000 A 
ATOM     15  N   UNL     1      48.062   1.338   6.535  0.00  0.00    +0.000 NA
ATOM     16  N   UNL     1      47.184   1.695   7.489  0.00  0.00    +0.000 N 
ATOM     17  H   UNL     1      47.182   1.187   8.371  0.00  0.00    +0.000 HD
ENDBRANCH   9  12
ENDBRANCH   7  10
ENDBRANCH   1   7
BRANCH   4  18
ATOM     18  C   UNL     1      46.802   7.300  13.667  0.00  0.00    +0.000 C 
BRANCH  18  19
ATOM     19  N   UNL     1      47.988   6.824  14.332  0.00  0.00    +0.000 N 
ATOM     20  C   UNL     1      48.722   7.644  15.153  0.00  0.00    +0.000 C 
ATOM     21  O   UNL     1      48.377   8.798  15.397  0.00  0.00    +0.000 OA
ATOM     22  H   UNL     1      48.416   5.980  13.964  0.00  0.00    +0.000 HD
BRANCH  20  23
ATOM     23  C   UNL     1      49.910   7.051  15.781  0.00  0.00    +0.000 A 
ATOM     24  C   UNL     1      51.163   7.609  15.558  0.00  0.00    +0.000 A 
ATOM     25  S   UNL     1      52.421   6.828  16.404  0.00  0.00    +0.000 S 
ATOM     26  C   UNL     1      51.344   5.683  17.056  0.00  0.00    +0.000 A 
ATOM     27  N   UNL     1      51.790   4.687  17.871  0.00  0.00    +0.000 NA
ATOM     28  C   UNL     1      50.870   3.872  18.268  0.00  0.00    +0.000 A 
ATOM     29  N   UNL     1      49.545   3.966  17.929  0.00  0.00    +0.000 N 
ATOM     30  C   UNL     1      49.046   4.969  17.136  0.00  0.00    +0.000 A 
ATOM     31  O   UNL     1      47.846   5.050  16.892  0.00  0.00    +0.000 OA
ATOM     32  C   UNL     1      50.041   5.906  16.651  0.00  0.00    +0.000 A 
ATOM     33  H   UNL     1      48.873   3.300  18.283  0.00  0.00    +0.000 HD
ENDBRANCH  20  23
ENDBRANCH  18  19
ENDBRANCH   4  18
TORSDOF 6
ENDMDL
MODEL 4
REMARK VINA RESULT:    -7.345      4.590      9.488
REMARK INTER + INTRA:         -11.061
REMARK INTER:                 -10.294
REMARK INTRA:                  -0.767
REMARK UNBOUND:                -1.140
REMARK  Name = 
REMARK  6 active torsions:
REMARK  status: ('A' for Active; 'I' for Inactive)
REMARK    1  A    between atoms: C_2  and  C_25
REMARK    2  A    between atoms: N_3  and  C_4
REMARK    3  A    between atoms: C_4  and  C_5
REMARK    4  A    between atoms: C_8  and  C_9
REMARK    5  A    between atoms: C_9  and  N_10
REMARK    6  A    between atoms: C_11  and  C_13
REMARK                            x       y       z     vdW  Elec       q    Type
REMARK                         _______ _______ _______ _____ _____    ______ ____
ROOT
ATOM      1  C   UNL     1      51.348   3.017  17.751  0.00  0.00    +0.000 A 
ATOM      2  C   UNL     1      50.566   1.980  17.221  0.00  0.00    +0.000 A 
ATOM      3  C   UNL     1      49.202   2.170  16.968  0.00  0.00    +0.000 A 
ATOM      4  C   UNL     1      48.595   3.407  17.218  0.00  0.00    +0.000 A 
ATOM      5  C   UNL     1      49.375   4.440  17.755  0.00  0.00    +0.000 A 
ATOM      6  C   UNL     1      50.739   4.253  18.005  0.00  0.00    +0.000 A 
ENDROOT
BRANCH   1   7
ATOM      7  C   UNL     1      52.816   2.808  18.024  0.00  0.00    +0.000 C 
BRANCH   7  10
ATOM      8  O   UNL     1      54.505   0.982  16.764  0.00  0.00    +0.000 OA
ATOM      9  C   UNL     1      53.951   0.646  17.810  0.00  0.00    +0.000 C 
ATOM     10  N   UNL     1      53.089   1.472  18.490  0.00  0.00    +0.000 N 
ATOM     11  H   UNL     1      52.763   1.208  19.408  0.00  0.00    +0.000 HD
BRANCH   9  12
ATOM     12  C   UNL     1      54.179  -0.637  18.419  0.00  0.00    +0.000 A 
ATOM     13  C   UNL     1      55.318  -1.388  18.642  0.00  0.00    +0.000 A 
ATOM     14  C   UNL     1      54.870  -2.559  19.277  0.00  0.00    +0.000 A 
ATOM     15  N   UNL     1      53.549  -2.563  19.460  0.00  0.00    +0.000 NA
ATOM     16  N   UNL     1      53.157  -1.383  18.948  0.00  0.00    +0.000 N 
ATOM     17  H   UNL     1      52.170  -1.138  18.975  0.00  0.00    +0.000 HD
ENDBRANCH   9  12
ENDBRANCH   7  10
ENDBRANCH   1   7
BRANCH   4  18
ATOM     18  C   UNL     1      47.127   3.623  16.946  0.00  0.00    +0.000 C 
BRANCH  18  19
ATOM     19  N   UNL     1      46.917   4.611  15.918  0.00  0.00    +0.000 N 
ATOM     20  C   UNL     1      47.025   4.288  14.588  0.00  0.00    +0.000 C 
ATOM     21  O   UNL     1      47.254   3.140  14.212  0.00  0.00    +0.000 OA
ATOM     22  H   UNL     1      46.971   5.585  16.198  0.00  0.00    +0.000 HD
BRANCH  20  23
ATOM     23  C   UNL     1      46.787   5.374  13.628  0.00  0.00    +0.000 A 
ATOM     24  C   UNL     1      47.815   6.252  13.307  0.00  0.00    +0.000 A 
ATOM     25  S   UNL     1      47.380   7.417  12.139  0.00  0.00    +0.000 S 
ATOM     26  C   UNL     1      45.788   6.824  12.061  0.00  0.00    +0.000 A 
ATOM     27  N   UNL     1      44.863   7.405  11.249  0.00  0.00    +0.000 NA
ATOM     28  C   UNL     1      43.688   6.872  11.312  0.00  0.00    +0.000 A 
ATOM     29  N   UNL     1      43.356   5.808  12.109  0.00  0.00    +0.000 N 
ATOM     30  C   UNL     1      44.262   5.171  12.921  0.00  0.00    +0.000 A 
ATOM     31  O   UNL     1      43.942   4.190  13.585  0.00  0.00    +0.000 OA
ATOM     32  C   UNL     1      45.596   5.740  12.897  0.00  0.00    +0.000 A 
ATOM     33  H   UNL     1      42.419   5.431  12.104  0.00  0.00    +0.000 HD
ENDBRANCH  20  23
ENDBRANCH  18  19
ENDBRANCH   4  18
TORSDOF 6
ENDMDL
MODEL 5
REMARK VINA RESULT:    -7.179      4.545      6.178
REMARK INTER + INTRA:         -10.837
REMARK INTER:                 -10.113
REMARK INTRA:                  -0.724
REMARK UNBOUND:                -1.140
REMARK  Name = 
REMARK  6 active torsions:
REMARK  status: ('A' for Active; 'I' for Inactive)
REMARK    1  A    between atoms: C_2  and  C_25
REMARK    2  A    between atoms: N_3  and  C_4
REMARK    3  A    between atoms: C_4  and  C_5
REMARK    4  A    between atoms: C_8  and  C_9
REMARK    5  A    between atoms: C_9  and  N_10
REMARK    6  A    between atoms: C_11  and  C_13
REMARK                            x       y       z     vdW  Elec       q    Type
REMARK                         _______ _______ _______ _____ _____    ______ ____
ROOT
ATOM      1  C   UNL     1      45.348   7.667  11.970  0.00  0.00    +0.000 A 
ATOM      2  C   UNL     1      44.368   6.713  12.279  0.00  0.00    +0.000 A 
ATOM      3  C   UNL     1      44.687   5.579  13.038  0.00  0.00    +0.000 A 
ATOM      4  C   UNL     1      45.986   5.388  13.523  0.00  0.00    +0.000 A 
ATOM      5  C   UNL     1      46.967   6.339  13.208  0.00  0.00    +0.000 A 
ATOM      6  C   UNL     1      46.649   7.473  12.452  0.00  0.00    +0.000 A 
ENDROOT
BRANCH   1   7
ATOM      7  C   UNL     1      45.001   8.885  11.151  0.00  0.00    +0.000 C 
BRANCH   7  10
ATOM      8  O   UNL     1      43.597  10.525   9.386  0.00  0.00    +0.000 OA
ATOM      9  C   UNL     1      42.995  10.037  10.341  0.00  0.00    +0.000 C 
ATOM     10  N   UNL     1      43.608   9.232  11.271  0.00  0.00    +0.000 N 
ATOM     11  H   UNL     1      43.051   8.748  11.959  0.00  0.00    +0.000 HD
BRANCH   9  12
ATOM     12  C   UNL     1      41.588  10.253  10.550  0.00  0.00    +0.000 A 
ATOM     13  C   UNL     1      40.695  11.192  10.070  0.00  0.00    +0.000 A 
ATOM     14  C   UNL     1      39.461  10.863  10.658  0.00  0.00    +0.000 A 
ATOM     15  N   UNL     1      39.546   9.791  11.447  0.00  0.00    +0.000 NA
ATOM     16  N   UNL     1      40.838   9.431  11.352  0.00  0.00    +0.000 N 
ATOM     17  H   UNL     1      41.161   8.617  11.868  0.00  0.00    +0.000 HD
ENDBRANCH   9  12
ENDBRANCH   7  10
ENDBRANCH   1   7
BRANCH   4  18
ATOM     18  C   UNL     1      46.339   4.173  14.345  0.00  0.00    +0.000 C 
BRANCH  18  19
ATOM     19  N   UNL     1      47.454   4.430  15.222  0.00  0.00    +0.000 N 
ATOM     20  C   UNL     1      47.462   3.971  16.515  0.00  0.00    +0.000 C 
ATOM     21  O   UNL     1      46.551   3.282  16.968  0.00  0.00    +0.000 OA
ATOM     22  H   UNL     1      48.084   5.181  14.958  0.00  0.00    +0.000 HD
BRANCH  20  23
ATOM     23  C   UNL     1      48.651   4.290  17.317  0.00  0.00    +0.000 A 
ATOM     24  C   UNL     1      48.700   5.472  18.044  0.00  0.00    +0.000 A 
ATOM     25  S   UNL     1      50.129   5.656  18.957  0.00  0.00    +0.000 S 
ATOM     26  C   UNL     1      50.757   4.188  18.370  0.00  0.00    +0.000 A 
ATOM     27  N   UNL     1      51.991   3.753  18.747  0.00  0.00    +0.000 NA
ATOM     28  C   UNL     1      52.354   2.641  18.202  0.00  0.00    +0.000 A 
ATOM     29  N   UNL     1      51.593   1.920  17.318  0.00  0.00    +0.000 N 
ATOM     30  C   UNL     1      50.332   2.304  16.933  0.00  0.00    +0.000 A 
ATOM     31  O   UNL     1      49.659   1.610  16.177  0.00  0.00    +0.000 OA
ATOM     32  C   UNL     1      49.881   3.557  17.507  0.00  0.00    +0.000 A 
ATOM     33  H   UNL     1      51.932   1.049  16.934  0.00  0.00    +0.000 HD
ENDBRANCH  20  23
ENDBRANCH  18  19
ENDBRANCH   4  18
TORSDOF 6
ENDMDL
MODEL 6
REMARK VINA RESULT:    -7.131      4.607      9.482
REMARK INTER + INTRA:         -10.772
REMARK INTER:                  -9.704
REMARK INTRA:                  -1.068
REMARK UNBOUND:                -1.140
REMARK  Name = 
REMARK  6 active torsions:
REMARK  status: ('A' for Active; 'I' for Inactive)
REMARK    1  A    between atoms: C_2  and  C_25
REMARK    2  A    between atoms: N_3  and  C_4
REMARK    3  A    between atoms: C_4  and  C_5
REMARK    4  A    between atoms: C_8  and  C_9
REMARK    5  A    between atoms: C_9  and  N_10
REMARK    6  A    between atoms: C_11  and  C_13
REMARK                            x       y       z     vdW  Elec       q    Type
REMARK                         _______ _______ _______ _____ _____    ______ ____
ROOT
ATOM      1  C   UNL     1      51.439   2.880  17.721  0.00  0.00    +0.000 A 
ATOM      2  C   UNL     1      50.612   1.921  17.119  0.00  0.00    +0.000 A 
ATOM      3  C   UNL     1      49.264   2.199  16.859  0.00  0.00    +0.000 A 
ATOM      4  C   UNL     1      48.720   3.451  17.176  0.00  0.00    +0.000 A 
ATOM      5  C   UNL     1      49.545   4.406  17.784  0.00  0.00    +0.000 A 
ATOM      6  C   UNL     1      50.893   4.130  18.041  0.00  0.00    +0.000 A 
ENDROOT
BRANCH   1   7
ATOM      7  C   UNL     1      52.889   2.575  18.001  0.00  0.00    +0.000 C 
BRANCH   7  10
ATOM      8  O   UNL     1      54.416   0.603  16.754  0.00  0.00    +0.000 OA
ATOM      9  C   UNL     1      53.855   0.331  17.814  0.00  0.00    +0.000 C 
ATOM     10  N   UNL     1      53.069   1.232  18.490  0.00  0.00    +0.000 N 
ATOM     11  H   UNL     1      52.739   1.011  19.418  0.00  0.00    +0.000 HD
BRANCH   9  12
ATOM     12  C   UNL     1      53.997  -0.954  18.447  0.00  0.00    +0.000 A 
ATOM     13  C   UNL     1      55.076  -1.792  18.652  0.00  0.00    +0.000 A 
ATOM     14  C   UNL     1      54.555  -2.909  19.329  0.00  0.00    +0.000 A 
ATOM     15  N   UNL     1      53.244  -2.799  19.552  0.00  0.00    +0.000 NA
ATOM     16  N   UNL     1      52.934  -1.602  19.024  0.00  0.00    +0.000 N 
ATOM     17  H   UNL     1      51.972  -1.276  19.075  0.00  0.00    +0.000 HD
ENDBRANCH   9  12
ENDBRANCH   7  10
ENDBRANCH   1   7
BRANCH   4  18
ATOM     18  C   UNL     1      47.271   3.762  16.897  0.00  0.00    +0.000 C 
BRANCH  18  19
ATOM     19  N   UNL     1      47.130   4.736  15.844  0.00  0.00    +0.000 N 
ATOM     20  C   UNL     1      47.134   4.362  14.523  0.00  0.00    +0.000 C 
ATOM     21  O   UNL     1      47.206   3.184  14.179  0.00  0.00    +0.000 OA
ATOM     22  H   UNL     1      47.313   5.705  16.085  0.00  0.00    +0.000 HD
BRANCH  20  23
ATOM     23  C   UNL     1      46.980   5.439  13.536  0.00  0.00    +0.000 A 
ATOM     24  C   UNL     1      45.936   5.396  12.621  0.00  0.00    +0.000 A 
ATOM     25  S   UNL     1      45.877   6.749  11.584  0.00  0.00    +0.000 S 
ATOM     26  C   UNL     1      47.278   7.415  12.285  0.00  0.00    +0.000 A 
ATOM     27  N   UNL     1      47.797   8.589  11.833  0.00  0.00    +0.000 NA
ATOM     28  C   UNL     1      48.877   8.960  12.434  0.00  0.00    +0.000 A 
ATOM     29  N   UNL     1      49.482   8.268  13.450  0.00  0.00    +0.000 N 
ATOM     30  C   UNL     1      48.978   7.096  13.960  0.00  0.00    +0.000 A 
ATOM     31  O   UNL     1      49.519   6.527  14.902  0.00  0.00    +0.000 OA
ATOM     32  C   UNL     1      47.770   6.626  13.309  0.00  0.00    +0.000 A 
ATOM     33  H   UNL     1      50.323   8.619  13.887  0.00  0.00    +0.000 HD
ENDBRANCH  20  23
ENDBRANCH  18  19
ENDBRANCH   4  18
TORSDOF 6
ENDMDL
MODEL 7
REMARK VINA RESULT:    -6.833      4.235      6.387
REMARK INTER + INTRA:         -10.370
REMARK INTER:                  -9.433
REMARK INTRA:                  -0.937
REMARK UNBOUND:                -1.140
REMARK  Name = 
REMARK  6 active torsions:
REMARK  status: ('A' for Active; 'I' for Inactive)
REMARK    1  A    between atoms: C_2  and  C_25
REMARK    2  A    between atoms: N_3  and  C_4
REMARK    3  A    between atoms: C_4  and  C_5
REMARK    4  A    between atoms: C_8  and  C_9
REMARK    5  A    between atoms: C_9  and  N_10
REMARK    6  A    between atoms: C_11  and  C_13
REMARK                            x       y       z     vdW  Elec       q    Type
REMARK                         _______ _______ _______ _____ _____    ______ ____
ROOT
ATOM      1  C   UNL     1      44.949   8.255  11.679  0.00  0.00    +0.000 A 
ATOM      2  C   UNL     1      44.133   7.114  11.695  0.00  0.00    +0.000 A 
ATOM      3  C   UNL     1      44.554   5.943  12.337  0.00  0.00    +0.000 A 
ATOM      4  C   UNL     1      45.790   5.894  12.995  0.00  0.00    +0.000 A 
ATOM      5  C   UNL     1      46.607   7.032  12.973  0.00  0.00    +0.000 A 
ATOM      6  C   UNL     1      46.186   8.204  12.334  0.00  0.00    +0.000 A 
ENDROOT
BRANCH   1   7
ATOM      7  C   UNL     1      44.493   9.514  10.985  0.00  0.00    +0.000 C 
BRANCH   7  10
ATOM      8  O   UNL     1      42.798  10.707   9.120  0.00  0.00    +0.000 OA
ATOM      9  C   UNL     1      42.323  10.332  10.192  0.00  0.00    +0.000 C 
ATOM     10  N   UNL     1      43.085   9.751  11.177  0.00  0.00    +0.000 N 
ATOM     11  H   UNL     1      42.634   9.340  11.980  0.00  0.00    +0.000 HD
BRANCH   9  12
ATOM     12  C   UNL     1      40.922  10.454  10.492  0.00  0.00    +0.000 A 
ATOM     13  C   UNL     1      39.921  11.279  10.016  0.00  0.00    +0.000 A 
ATOM     14  C   UNL     1      38.764  10.903  10.720  0.00  0.00    +0.000 A 
ATOM     15  N   UNL     1      38.994   9.907  11.576  0.00  0.00    +0.000 NA
ATOM     16  N   UNL     1      40.301   9.642  11.408  0.00  0.00    +0.000 N 
ATOM     17  H   UNL     1      40.728   8.899  11.956  0.00  0.00    +0.000 HD
ENDBRANCH   9  12
ENDBRANCH   7  10
ENDBRANCH   1   7
BRANCH   4  18
ATOM     18  C   UNL     1      46.251   4.638  13.693  0.00  0.00    +0.000 C 
BRANCH  18  19
ATOM     19  N   UNL     1      46.897   4.934  14.946  0.00  0.00    +0.000 N 
ATOM     20  C   UNL     1      47.632   3.983  15.610  0.00  0.00    +0.000 C 
ATOM     21  O   UNL     1      47.814   2.860  15.147  0.00  0.00    +0.000 OA
ATOM     22  H   UNL     1      46.568   5.749  15.454  0.00  0.00    +0.000 HD
BRANCH  20  23
ATOM     23  C   UNL     1      48.249   4.397  16.877  0.00  0.00    +0.000 A 
ATOM     24  C   UNL     1      47.932   3.729  18.053  0.00  0.00    +0.000 A 
ATOM     25  S   UNL     1      48.777   4.306  19.418  0.00  0.00    +0.000 S 
ATOM     26  C   UNL     1      49.556   5.504  18.496  0.00  0.00    +0.000 A 
ATOM     27  N   UNL     1      50.421   6.382  19.076  0.00  0.00    +0.000 NA
ATOM     28  C   UNL     1      50.916   7.256  18.265  0.00  0.00    +0.000 A 
ATOM     29  N   UNL     1      50.630   7.329  16.927  0.00  0.00    +0.000 N 
ATOM     30  C   UNL     1      49.789   6.448  16.293  0.00  0.00    +0.000 A 
ATOM     31  O   UNL     1      49.592   6.514  15.084  0.00  0.00    +0.000 OA
ATOM     32  C   UNL     1      49.194   5.451  17.163  0.00  0.00    +0.000 A 
ATOM     33  H   UNL     1      51.060   8.034  16.343  0.00  0.00    +0.000 HD
ENDBRANCH  20  23
ENDBRANCH  18  19
ENDBRANCH   4  18
TORSDOF 6
ENDMDL
MODEL 8
REMARK VINA RESULT:    -6.811      2.639      3.031
REMARK INTER + INTRA:         -10.340
REMARK INTER:                  -9.468
REMARK INTRA:                  -0.872
REMARK UNBOUND:                -1.140
REMARK  Name = 
REMARK  6 active torsions:
REMARK  status: ('A' for Active; 'I' for Inactive)
REMARK    1  A    between atoms: C_2  and  C_25
REMARK    2  A    between atoms: N_3  and  C_4
REMARK    3  A    between atoms: C_4  and  C_5
REMARK    4  A    between atoms: C_8  and  C_9
REMARK    5  A    between atoms: C_9  and  N_10
REMARK    6  A    between atoms: C_11  and  C_13
REMARK                            x       y       z     vdW  Elec       q    Type
REMARK                         _______ _______ _______ _____ _____    ______ ____
ROOT
ATOM      1  C   UNL     1      45.248   6.335  11.720  0.00  0.00    +0.000 A 
ATOM      2  C   UNL     1      44.969   7.707  11.790  0.00  0.00    +0.000 A 
ATOM      3  C   UNL     1      45.769   8.562  12.559  0.00  0.00    +0.000 A 
ATOM      4  C   UNL     1      46.878   8.067  13.256  0.00  0.00    +0.000 A 
ATOM      5  C   UNL     1      47.152   6.694  13.192  0.00  0.00    +0.000 A 
ATOM      6  C   UNL     1      46.355   5.839  12.421  0.00  0.00    +0.000 A 
ENDROOT
BRANCH   1   7
ATOM      7  C   UNL     1      44.383   5.417  10.894  0.00  0.00    +0.000 C 
BRANCH   7  10
ATOM      8  O   UNL     1      43.852   2.819  10.031  0.00  0.00    +0.000 OA
ATOM      9  C   UNL     1      44.806   3.419   9.538  0.00  0.00    +0.000 C 
ATOM     10  N   UNL     1      45.153   4.695   9.914  0.00  0.00    +0.000 N 
ATOM     11  H   UNL     1      45.856   5.196   9.391  0.00  0.00    +0.000 HD
BRANCH   9  12
ATOM     12  C   UNL     1      45.624   2.840   8.506  0.00  0.00    +0.000 A 
ATOM     13  C   UNL     1      46.119   1.567   8.295  0.00  0.00    +0.000 A 
ATOM     14  C   UNL     1      46.860   1.650   7.104  0.00  0.00    +0.000 A 
ATOM     15  N   UNL     1      46.839   2.876   6.579  0.00  0.00    +0.000 NA
ATOM     16  N   UNL     1      46.073   3.572   7.437  0.00  0.00    +0.000 N 
ATOM     17  H   UNL     1      45.894   4.556   7.249  0.00  0.00    +0.000 HD
ENDBRANCH   9  12
ENDBRANCH   7  10
ENDBRANCH   1   7
BRANCH   4  18
ATOM     18  C   UNL     1      47.748   8.980  14.084  0.00  0.00    +0.000 C 
BRANCH  18  19
ATOM     19  N   UNL     1      47.530   8.786  15.495  0.00  0.00    +0.000 N 
ATOM     20  C   UNL     1      48.265   9.472  16.430  0.00  0.00    +0.000 C 
ATOM     21  O   UNL     1      49.101  10.314  16.111  0.00  0.00    +0.000 OA
ATOM     22  H   UNL     1      47.036   7.944  15.774  0.00  0.00    +0.000 HD
BRANCH  20  23
ATOM     23  C   UNL     1      47.955   9.197  17.839  0.00  0.00    +0.000 A 
ATOM     24  C   UNL     1      47.595  10.239  18.685  0.00  0.00    +0.000 A 
ATOM     25  S   UNL     1      47.220   9.735  20.270  0.00  0.00    +0.000 S 
ATOM     26  C   UNL     1      47.577   8.114  19.898  0.00  0.00    +0.000 A 
ATOM     27  N   UNL     1      47.483   7.140  20.845  0.00  0.00    +0.000 NA
ATOM     28  C   UNL     1      47.813   5.962  20.432  0.00  0.00    +0.000 A 
ATOM     29  N   UNL     1      48.223   5.668  19.158  0.00  0.00    +0.000 N 
ATOM     30  C   UNL     1      48.305   6.611  18.163  0.00  0.00    +0.000 A 
ATOM     31  O   UNL     1      48.630   6.304  17.020  0.00  0.00    +0.000 OA
ATOM     32  C   UNL     1      47.957   7.956  18.578  0.00  0.00    +0.000 A 
ATOM     33  H   UNL     1      48.458   4.720  18.896  0.00  0.00    +0.000 HD
ENDBRANCH  20  23
ENDBRANCH  18  19
ENDBRANCH   4  18
TORSDOF 6
ENDMDL
MODEL 9
REMARK VINA RESULT:    -6.768      1.678      2.282
REMARK INTER + INTRA:         -10.282
REMARK INTER:                  -9.406
REMARK INTRA:                  -0.876
REMARK UNBOUND:                -1.140
REMARK  Name = 
REMARK  6 active torsions:
REMARK  status: ('A' for Active; 'I' for Inactive)
REMARK    1  A    between atoms: C_2  and  C_25
REMARK    2  A    between atoms: N_3  and  C_4
REMARK    3  A    between atoms: C_4  and  C_5
REMARK    4  A    between atoms: C_8  and  C_9
REMARK    5  A    between atoms: C_9  and  N_10
REMARK    6  A    between atoms: C_11  and  C_13
REMARK                            x       y       z     vdW  Elec       q    Type
REMARK                         _______ _______ _______ _____ _____    ______ ____
ROOT
ATOM      1  C   UNL     1      45.363   6.905  11.886  0.00  0.00    +0.000 A 
ATOM      2  C   UNL     1      45.173   8.265  12.166  0.00  0.00    +0.000 A 
ATOM      3  C   UNL     1      46.036   8.945  13.035  0.00  0.00    +0.000 A 
ATOM      4  C   UNL     1      47.121   8.283  13.624  0.00  0.00    +0.000 A 
ATOM      5  C   UNL     1      47.306   6.922  13.349  0.00  0.00    +0.000 A 
ATOM      6  C   UNL     1      46.445   6.243  12.479  0.00  0.00    +0.000 A 
ENDROOT
BRANCH   1   7
ATOM      7  C   UNL     1      44.429   6.176  10.953  0.00  0.00    +0.000 C 
BRANCH   7  10
ATOM      8  O   UNL     1      43.398   3.710  10.156  0.00  0.00    +0.000 OA
ATOM      9  C   UNL     1      44.531   4.021   9.790  0.00  0.00    +0.000 C 
ATOM     10  N   UNL     1      45.127   5.206  10.148  0.00  0.00    +0.000 N 
ATOM     11  H   UNL     1      45.999   5.477   9.718  0.00  0.00    +0.000 HD
BRANCH   9  12
ATOM     12  C   UNL     1      45.318   3.173   8.934  0.00  0.00    +0.000 A 
ATOM     13  C   UNL     1      46.094   3.417   7.817  0.00  0.00    +0.000 A 
ATOM     14  C   UNL     1      46.599   2.162   7.435  0.00  0.00    +0.000 A 
ATOM     15  N   UNL     1      46.189   1.184   8.245  0.00  0.00    +0.000 NA
ATOM     16  N   UNL     1      45.430   1.823   9.151  0.00  0.00    +0.000 N 
ATOM     17  H   UNL     1      44.998   1.285   9.899  0.00  0.00    +0.000 HD
ENDBRANCH   9  12
ENDBRANCH   7  10
ENDBRANCH   1   7
BRANCH   4  18
ATOM     18  C   UNL     1      48.060   9.007  14.558  0.00  0.00    +0.000 C 
BRANCH  18  19
ATOM     19  N   UNL     1      48.174   8.331  15.825  0.00  0.00    +0.000 N 
ATOM     20  C   UNL     1      49.373   7.816  16.253  0.00  0.00    +0.000 C 
ATOM     21  O   UNL     1      50.408   7.951  15.603  0.00  0.00    +0.000 OA
ATOM     22  H   UNL     1      47.313   8.000  16.250  0.00  0.00    +0.000 HD
BRANCH  20  23
ATOM     23  C   UNL     1      49.372   7.151  17.562  0.00  0.00    +0.000 A 
ATOM     24  C   UNL     1      49.757   7.854  18.696  0.00  0.00    +0.000 A 
ATOM     25  S   UNL     1      49.647   6.945  20.135  0.00  0.00    +0.000 S 
ATOM     26  C   UNL     1      49.133   5.563  19.287  0.00  0.00    +0.000 A 
ATOM     27  N   UNL     1      48.881   4.394  19.938  0.00  0.00    +0.000 NA
ATOM     28  C   UNL     1      48.529   3.420  19.168  0.00  0.00    +0.000 A 
ATOM     29  N   UNL     1      48.401   3.509  17.806  0.00  0.00    +0.000 N 
ATOM     30  C   UNL     1      48.615   4.673  17.111  0.00  0.00    +0.000 A 
ATOM     31  O   UNL     1      48.445   4.729  15.897  0.00  0.00    +0.000 OA
ATOM     32  C   UNL     1      49.027   5.798  17.929  0.00  0.00    +0.000 A 
ATOM     33  H   UNL     1      48.110   2.709  17.261  0.00  0.00    +0.000 HD
ENDBRANCH  20  23
ENDBRANCH  18  19
ENDBRANCH   4  18
TORSDOF 6
ENDMDL
