MODEL 1
REMARK VINA RESULT:    -7.825      0.000      0.000
REMARK INTER + INTRA:         -11.788
REMARK INTER:                 -10.569
REMARK INTRA:                  -1.219
REMARK UNBOUND:                -1.219
REMARK  Name = 
REMARK  6 active torsions:
REMARK  status: ('A' for Active; 'I' for Inactive)
REMARK    1  A    between atoms: C_2  and  C_18
REMARK    2  A    between atoms: N_3  and  C_4
REMARK    3  A    between atoms: C_4  and  C_5
REMARK    4  A    between atoms: C_8  and  C_9
REMARK    5  A    between atoms: C_9  and  N_10
REMARK    6  A    between atoms: N_10  and  C_11
REMARK                            x       y       z     vdW  Elec       q    Type
REMARK                         _______ _______ _______ _____ _____    ______ ____
ROOT
ATOM      1  C   UNL     1      46.599   7.720  13.176  0.00  0.00    +0.000 C 
ENDROOT
BRANCH   1   2
ATOM      2  C   UNL     1      45.995   6.615  12.365  0.00  0.00    +0.000 A 
ATOM      3  C   UNL     1      45.135   5.677  12.937  0.00  0.00    +0.000 A 
ATOM      4  C   UNL     1      44.555   4.691  12.139  0.00  0.00    +0.000 A 
ATOM      5  C   UNL     1      44.850   4.660  10.777  0.00  0.00    +0.000 A 
ATOM      6  N   UNL     1      45.711   5.542  10.209  0.00  0.00    +0.000 NA
ATOM      7  C   UNL     1      46.272   6.477  11.010  0.00  0.00    +0.000 A 
BRANCH   5   8
ATOM      8  C   UNL     1      44.136   3.673   9.865  0.00  0.00    +0.000 C 
BRANCH   8   9
ATOM      9  N   UNL     1      44.183   4.045   8.452  0.00  0.00    +0.000 NA
ATOM     10  H   UNL     1      44.494   5.006   8.349  0.00  0.00    +0.000 HD
BRANCH   9  11
ATOM     11  C   UNL     1      45.040   3.197   7.675  0.00  0.00    +0.000 C 
ATOM     12  C   UNL     1      45.665   2.009   8.393  0.00  0.00    +0.000 C 
ATOM     13  C   UNL     1      46.897   1.735   7.550  0.00  0.00    +0.000 C 
ATOM     14  C   UNL     1      47.291   3.106   7.013  0.00  0.00    +0.000 C 
ATOM     15  N   UNL     1      46.198   4.010   7.366  0.00  0.00    +0.000 NA
ATOM     16  H   UNL     1      45.965   4.640   6.601  0.00  0.00    +0.000 HD
ENDBRANCH   9  11
ENDBRANCH   8   9
ENDBRANCH   5   8
ENDBRANCH   1   2
BRANCH   1  19
ATOM     17  O   UNL     1      49.107   6.439  13.187  0.00  0.00    +0.000 OA
ATOM     18  C   UNL     1      48.541   6.653  14.259  0.00  0.00    +0.000 C 
ATOM     19  N   UNL     1      47.296   7.216  14.332  0.00  0.00    +0.000 N 
ATOM     20  H   UNL     1      46.940   7.516  15.233  0.00  0.00    +0.000 HD
BRANCH  18  21
ATOM     21  C   UNL     1      49.159   6.282  15.536  0.00  0.00    +0.000 A 
ATOM     22  C   UNL     1      50.335   6.898  15.943  0.00  0.00    +0.000 A 
ATOM     23  S   UNL     1      50.889   6.371  17.468  0.00  0.00    +0.000 S 
ATOM     24  C   UNL     1      49.558   5.329  17.653  0.00  0.00    +0.000 A 
ATOM     25  N   UNL     1      49.390   4.600  18.788  0.00  0.00    +0.000 NA
ATOM     26  C   UNL     1      48.313   3.890  18.814  0.00  0.00    +0.000 A 
ATOM     27  N   UNL     1      47.399   3.821  17.791  0.00  0.00    +0.000 N 
ATOM     28  C   UNL     1      47.580   4.458  16.590  0.00  0.00    +0.000 A 
ATOM     29  O   UNL     1      46.839   4.241  15.636  0.00  0.00    +0.000 OA
ATOM     30  C   UNL     1      48.732   5.341  16.547  0.00  0.00    +0.000 A 
ATOM     31  H   UNL     1      46.602   3.205  17.854  0.00  0.00    +0.000 HD
ENDBRANCH  18  21
ENDBRANCH   1  19
TORSDOF 6
ENDMDL
MODEL 2
REMARK VINA RESULT:    -7.426      1.910      2.215
REMARK INTER + INTRA:         -11.250
REMARK INTER:                 -10.670
REMARK INTRA:                  -0.580
REMARK UNBOUND:                -1.219
REMARK  Name = 
REMARK  6 active torsions:
REMARK  status: ('A' for Active; 'I' for Inactive)
REMARK    1  A    between atoms: C_2  and  C_18
REMARK    2  A    between atoms: N_3  and  C_4
REMARK    3  A    between atoms: C_4  and  C_5
REMARK    4  A    between atoms: C_8  and  C_9
REMARK    5  A    between atoms: C_9  and  N_10
REMARK    6  A    between atoms: N_10  and  C_11
REMARK                            x       y       z     vdW  Elec       q    Type
REMARK                         _______ _______ _______ _____ _____    ______ ____
ROOT
ATOM      1  C   UNL     1      47.943   6.269  13.541  0.00  0.00    +0.000 C 
ENDROOT
BRANCH   1   2
ATOM      2  C   UNL     1      46.805   5.458  12.998  0.00  0.00    +0.000 A 
ATOM      3  C   UNL     1      45.878   6.006  12.111  0.00  0.00    +0.000 A 
ATOM      4  C   UNL     1      44.861   5.207  11.590  0.00  0.00    +0.000 A 
ATOM      5  C   UNL     1      44.788   3.868  11.972  0.00  0.00    +0.000 A 
ATOM      6  N   UNL     1      45.659   3.327  12.861  0.00  0.00    +0.000 NA
ATOM      7  C   UNL     1      46.625   4.129  13.362  0.00  0.00    +0.000 A 
BRANCH   5   8
ATOM      8  C   UNL     1      43.764   2.947  11.326  0.00  0.00    +0.000 C 
BRANCH   8   9
ATOM      9  N   UNL     1      43.759   3.011   9.864  0.00  0.00    +0.000 NA
ATOM     10  H   UNL     1      43.333   3.878   9.550  0.00  0.00    +0.000 HD
BRANCH   9  11
ATOM     11  C   UNL     1      45.070   2.906   9.292  0.00  0.00    +0.000 C 
ATOM     12  C   UNL     1      45.268   3.517   7.912  0.00  0.00    +0.000 C 
ATOM     13  C   UNL     1      46.456   2.734   7.382  0.00  0.00    +0.000 C 
ATOM     14  C   UNL     1      46.320   1.366   8.037  0.00  0.00    +0.000 C 
ATOM     15  N   UNL     1      45.255   1.494   9.030  0.00  0.00    +0.000 NA
ATOM     16  H   UNL     1      45.492   1.024   9.901  0.00  0.00    +0.000 HD
ENDBRANCH   9  11
ENDBRANCH   8   9
ENDBRANCH   5   8
ENDBRANCH   1   2
BRANCH   1  19
ATOM     17  O   UNL     1      50.129   6.830  15.225  0.00  0.00    +0.000 OA
ATOM     18  C   UNL     1      49.017   6.662  15.725  0.00  0.00    +0.000 C 
ATOM     19  N   UNL     1      47.919   6.328  14.980  0.00  0.00    +0.000 N 
ATOM     20  H   UNL     1      47.001   6.355  15.410  0.00  0.00    +0.000 HD
BRANCH  18  21
ATOM     21  C   UNL     1      48.806   6.778  17.172  0.00  0.00    +0.000 A 
ATOM     22  C   UNL     1      48.440   7.998  17.724  0.00  0.00    +0.000 A 
ATOM     23  S   UNL     1      48.201   7.939  19.413  0.00  0.00    +0.000 S 
ATOM     24  C   UNL     1      48.542   6.273  19.458  0.00  0.00    +0.000 A 
ATOM     25  N   UNL     1      48.462   5.572  20.620  0.00  0.00    +0.000 NA
ATOM     26  C   UNL     1      48.700   4.309  20.500  0.00  0.00    +0.000 A 
ATOM     27  N   UNL     1      49.038   3.687  19.324  0.00  0.00    +0.000 N 
ATOM     28  C   UNL     1      49.229   4.371  18.150  0.00  0.00    +0.000 A 
ATOM     29  O   UNL     1      49.698   3.818  17.160  0.00  0.00    +0.000 OA
ATOM     30  C   UNL     1      48.886   5.780  18.215  0.00  0.00    +0.000 A 
ATOM     31  H   UNL     1      49.261   2.702  19.308  0.00  0.00    +0.000 HD
ENDBRANCH  18  21
ENDBRANCH   1  19
TORSDOF 6
ENDMDL
MODEL 3
REMARK VINA RESULT:    -7.246      2.247      3.797
REMARK INTER + INTRA:         -11.007
REMARK INTER:                 -10.003
REMARK INTRA:                  -1.005
REMARK UNBOUND:                -1.219
REMARK  Name = 
REMARK  6 active torsions:
REMARK  status: ('A' for Active; 'I' for Inactive)
REMARK    1  A    between atoms: C_2  and  C_18
REMARK    2  A    between atoms: N_3  and  C_4
REMARK    3  A    between atoms: C_4  and  C_5
REMARK    4  A    between atoms: C_8  and  C_9
REMARK    5  A    between atoms: C_9  and  N_10
REMARK    6  A    between atoms: N_10  and  C_11
REMARK                            x       y       z     vdW  Elec       q    Type
REMARK                         _______ _______ _______ _____ _____    ______ ____
ROOT
ATOM      1  C   UNL     1      46.933   4.810  14.514  0.00  0.00    +0.000 C 
ENDROOT
BRANCH   1   2
ATOM      2  C   UNL     1      46.205   4.690  13.210  0.00  0.00    +0.000 A 
ATOM      3  C   UNL     1      46.091   5.771  12.336  0.00  0.00    +0.000 A 
ATOM      4  C   UNL     1      45.447   5.606  11.110  0.00  0.00    +0.000 A 
ATOM      5  C   UNL     1      44.923   4.357  10.782  0.00  0.00    +0.000 A 
ATOM      6  N   UNL     1      44.993   3.303  11.634  0.00  0.00    +0.000 NA
ATOM      7  C   UNL     1      45.609   3.496  12.823  0.00  0.00    +0.000 A 
BRANCH   5   8
ATOM      8  C   UNL     1      44.325   4.121   9.403  0.00  0.00    +0.000 C 
BRANCH   8   9
ATOM      9  N   UNL     1      45.188   4.563   8.308  0.00  0.00    +0.000 NA
ATOM     10  H   UNL     1      45.977   5.089   8.670  0.00  0.00    +0.000 HD
BRANCH   9  11
ATOM     11  C   UNL     1      45.683   3.480   7.509  0.00  0.00    +0.000 C 
ATOM     12  C   UNL     1      46.016   2.185   8.236  0.00  0.00    +0.000 C 
ATOM     13  C   UNL     1      47.025   1.541   7.303  0.00  0.00    +0.000 C 
ATOM     14  C   UNL     1      47.734   2.723   6.652  0.00  0.00    +0.000 C 
ATOM     15  N   UNL     1      46.986   3.914   7.048  0.00  0.00    +0.000 NA
ATOM     16  H   UNL     1      46.863   4.560   6.271  0.00  0.00    +0.000 HD
ENDBRANCH   9  11
ENDBRANCH   8   9
ENDBRANCH   5   8
ENDBRANCH   1   2
BRANCH   1  19
ATOM     17  O   UNL     1      49.094   5.425  16.213  0.00  0.00    +0.000 OA
ATOM     18  C   UNL     1      48.657   6.297  15.463  0.00  0.00    +0.000 C 
ATOM     19  N   UNL     1      47.573   6.094  14.653  0.00  0.00    +0.000 N 
ATOM     20  H   UNL     1      47.349   6.783  13.943  0.00  0.00    +0.000 HD
BRANCH  18  21
ATOM     21  C   UNL     1      49.257   7.635  15.418  0.00  0.00    +0.000 A 
ATOM     22  C   UNL     1      49.387   8.377  16.584  0.00  0.00    +0.000 A 
ATOM     23  S   UNL     1      50.140   9.890  16.350  0.00  0.00    +0.000 S 
ATOM     24  C   UNL     1      50.350   9.590  14.689  0.00  0.00    +0.000 A 
ATOM     25  N   UNL     1      50.991  10.484  13.891  0.00  0.00    +0.000 NA
ATOM     26  C   UNL     1      51.123  10.108  12.663  0.00  0.00    +0.000 A 
ATOM     27  N   UNL     1      50.645   8.925  12.154  0.00  0.00    +0.000 N 
ATOM     28  C   UNL     1      49.905   8.042  12.899  0.00  0.00    +0.000 A 
ATOM     29  O   UNL     1      49.345   7.082  12.377  0.00  0.00    +0.000 OA
ATOM     30  C   UNL     1      49.808   8.380  14.307  0.00  0.00    +0.000 A 
ATOM     31  H   UNL     1      50.737   8.713  11.171  0.00  0.00    +0.000 HD
ENDBRANCH  18  21
ENDBRANCH   1  19
TORSDOF 6
ENDMDL
MODEL 4
REMARK VINA RESULT:    -7.067      2.357      2.668
REMARK INTER + INTRA:         -10.765
REMARK INTER:                 -10.150
REMARK INTRA:                  -0.615
REMARK UNBOUND:                -1.219
REMARK  Name = 
REMARK  6 active torsions:
REMARK  status: ('A' for Active; 'I' for Inactive)
REMARK    1  A    between atoms: C_2  and  C_18
REMARK    2  A    between atoms: N_3  and  C_4
REMARK    3  A    between atoms: C_4  and  C_5
REMARK    4  A    between atoms: C_8  and  C_9
REMARK    5  A    between atoms: C_9  and  N_10
REMARK    6  A    between atoms: N_10  and  C_11
REMARK                            x       y       z     vdW  Elec       q    Type
REMARK                         _______ _______ _______ _____ _____    ______ ____
ROOT
ATOM      1  C   UNL     1      47.663   6.365  13.694  0.00  0.00    +0.000 C 
ENDROOT
BRANCH   1   2
ATOM      2  C   UNL     1      46.740   5.474  12.918  0.00  0.00    +0.000 A 
ATOM      3  C   UNL     1      46.489   4.161  13.317  0.00  0.00    +0.000 A 
ATOM      4  C   UNL     1      45.587   3.379  12.596  0.00  0.00    +0.000 A 
ATOM      5  C   UNL     1      44.953   3.927  11.483  0.00  0.00    +0.000 A 
ATOM      6  N   UNL     1      45.211   5.191  11.059  0.00  0.00    +0.000 NA
ATOM      7  C   UNL     1      46.103   5.921  11.767  0.00  0.00    +0.000 A 
BRANCH   5   8
ATOM      8  C   UNL     1      43.876   3.137  10.753  0.00  0.00    +0.000 C 
BRANCH   8   9
ATOM      9  N   UNL     1      44.409   2.090   9.882  0.00  0.00    +0.000 NA
ATOM     10  H   UNL     1      43.677   1.725   9.280  0.00  0.00    +0.000 HD
BRANCH   9  11
ATOM     11  C   UNL     1      45.498   2.539   9.065  0.00  0.00    +0.000 C 
ATOM     12  C   UNL     1      45.142   3.366   7.837  0.00  0.00    +0.000 C 
ATOM     13  C   UNL     1      46.342   3.138   6.937  0.00  0.00    +0.000 C 
ATOM     14  C   UNL     1      46.813   1.734   7.293  0.00  0.00    +0.000 C 
ATOM     15  N   UNL     1      46.047   1.336   8.473  0.00  0.00    +0.000 NA
ATOM     16  H   UNL     1      46.629   0.864   9.161  0.00  0.00    +0.000 HD
ENDBRANCH   9  11
ENDBRANCH   8   9
ENDBRANCH   5   8
ENDBRANCH   1   2
BRANCH   1  19
ATOM     17  O   UNL     1      49.859   6.646  15.433  0.00  0.00    +0.000 OA
ATOM     18  C   UNL     1      48.791   6.232  15.883  0.00  0.00    +0.000 C 
ATOM     19  N   UNL     1      47.697   6.012  15.091  0.00  0.00    +0.000 N 
ATOM     20  H   UNL     1      46.800   5.824  15.525  0.00  0.00    +0.000 HD
BRANCH  18  21
ATOM     21  C   UNL     1      48.634   5.913  17.306  0.00  0.00    +0.000 A 
ATOM     22  C   UNL     1      48.843   4.615  17.752  0.00  0.00    +0.000 A 
ATOM     23  S   UNL     1      48.655   4.434  19.439  0.00  0.00    +0.000 S 
ATOM     24  C   UNL     1      48.324   6.091  19.634  0.00  0.00    +0.000 A 
ATOM     25  N   UNL     1      48.115   6.624  20.867  0.00  0.00    +0.000 NA
ATOM     26  C   UNL     1      47.923   7.900  20.873  0.00  0.00    +0.000 A 
ATOM     27  N   UNL     1      47.892   8.690  19.750  0.00  0.00    +0.000 N 
ATOM     28  C   UNL     1      47.995   8.180  18.481  0.00  0.00    +0.000 A 
ATOM     29  O   UNL     1      47.791   8.881  17.495  0.00  0.00    +0.000 OA
ATOM     30  C   UNL     1      48.303   6.762  18.428  0.00  0.00    +0.000 A 
ATOM     31  H   UNL     1      47.686   9.676  19.820  0.00  0.00    +0.000 HD
ENDBRANCH  18  21
ENDBRANCH   1  19
TORSDOF 6
ENDMDL
MODEL 5
REMARK VINA RESULT:    -6.926      3.103      7.763
REMARK INTER + INTRA:         -10.575
REMARK INTER:                  -9.347
REMARK INTRA:                  -1.227
REMARK UNBOUND:                -1.219
REMARK  Name = 
REMARK  6 active torsions:
REMARK  status: ('A' for Active; 'I' for Inactive)
REMARK    1  A    between atoms: C_2  and  C_18
REMARK    2  A    between atoms: N_3  and  C_4
REMARK    3  A    between atoms: C_4  and  C_5
REMARK    4  A    between atoms: C_8  and  C_9
REMARK    5  A    between atoms: C_9  and  N_10
REMARK    6  A    between atoms: N_10  and  C_11
REMARK                            x       y       z     vdW  Elec       q    Type
REMARK                         _______ _______ _______ _____ _____    ______ ____
ROOT
ATOM      1  C   UNL     1      48.296   8.092  12.294  0.00  0.00    +0.000 C 
ENDROOT
BRANCH   1   2
ATOM      2  C   UNL     1      48.497   7.914  13.768  0.00  0.00    +0.000 A 
ATOM      3  C   UNL     1      48.288   8.964  14.664  0.00  0.00    +0.000 A 
ATOM      4  C   UNL     1      48.438   8.746  16.033  0.00  0.00    +0.000 A 
ATOM      5  C   UNL     1      48.801   7.478  16.482  0.00  0.00    +0.000 A 
ATOM      6  N   UNL     1      49.044   6.454  15.624  0.00  0.00    +0.000 NA
ATOM      7  C   UNL     1      48.906   6.698  14.301  0.00  0.00    +0.000 A 
BRANCH   5   8
ATOM      8  C   UNL     1      48.853   7.184  17.974  0.00  0.00    +0.000 C 
BRANCH   8   9
ATOM      9  N   UNL     1      47.575   6.736  18.526  0.00  0.00    +0.000 NA
ATOM     10  H   UNL     1      46.808   7.037  17.932  0.00  0.00    +0.000 HD
BRANCH   9  11
ATOM     11  C   UNL     1      47.500   5.314  18.692  0.00  0.00    +0.000 C 
ATOM     12  C   UNL     1      48.820   4.556  18.726  0.00  0.00    +0.000 C 
ATOM     13  C   UNL     1      48.402   3.162  18.294  0.00  0.00    +0.000 C 
ATOM     14  C   UNL     1      47.225   3.402  17.357  0.00  0.00    +0.000 C 
ATOM     15  N   UNL     1      46.898   4.822  17.470  0.00  0.00    +0.000 NA
ATOM     16  H   UNL     1      45.893   4.977  17.511  0.00  0.00    +0.000 HD
ENDBRANCH   9  11
ENDBRANCH   8   9
ENDBRANCH   5   8
ENDBRANCH   1   2
BRANCH   1  19
ATOM     17  O   UNL     1      45.495   7.886  12.101  0.00  0.00    +0.000 OA
ATOM     18  C   UNL     1      46.193   6.998  11.613  0.00  0.00    +0.000 C 
ATOM     19  N   UNL     1      47.558   6.997  11.718  0.00  0.00    +0.000 N 
ATOM     20  H   UNL     1      48.097   6.336  11.170  0.00  0.00    +0.000 HD
BRANCH  18  21
ATOM     21  C   UNL     1      45.597   5.856  10.912  0.00  0.00    +0.000 A 
ATOM     22  C   UNL     1      45.851   5.663   9.561  0.00  0.00    +0.000 A 
ATOM     23  S   UNL     1      45.109   4.267   8.920  0.00  0.00    +0.000 S 
ATOM     24  C   UNL     1      44.454   3.853  10.434  0.00  0.00    +0.000 A 
ATOM     25  N   UNL     1      43.734   2.712  10.598  0.00  0.00    +0.000 NA
ATOM     26  C   UNL     1      43.339   2.498  11.808  0.00  0.00    +0.000 A 
ATOM     27  N   UNL     1      43.576   3.340  12.867  0.00  0.00    +0.000 N 
ATOM     28  C   UNL     1      44.209   4.549  12.727  0.00  0.00    +0.000 A 
ATOM     29  O   UNL     1      44.253   5.356  13.651  0.00  0.00    +0.000 OA
ATOM     30  C   UNL     1      44.750   4.792  11.402  0.00  0.00    +0.000 A 
ATOM     31  H   UNL     1      43.195   3.139  13.780  0.00  0.00    +0.000 HD
ENDBRANCH  18  21
ENDBRANCH   1  19
TORSDOF 6
ENDMDL
MODEL 6
REMARK VINA RESULT:    -6.757      1.920      2.058
REMARK INTER + INTRA:         -10.347
REMARK INTER:                  -9.432
REMARK INTRA:                  -0.915
REMARK UNBOUND:                -1.219
REMARK  Name = 
REMARK  6 active torsions:
REMARK  status: ('A' for Active; 'I' for Inactive)
REMARK    1  A    between atoms: C_2  and  C_18
REMARK    2  A    between atoms: N_3  and  C_4
REMARK    3  A    between atoms: C_4  and  C_5
REMARK    4  A    between atoms: C_8  and  C_9
REMARK    5  A    between atoms: C_9  and  N_10
REMARK    6  A    between atoms: N_10  and  C_11
REMARK                            x       y       z     vdW  Elec       q    Type
REMARK                         _______ _______ _______ _____ _____    ______ ____
ROOT
ATOM      1  C   UNL     1      46.884   8.970  13.217  0.00  0.00    +0.000 C 
ENDROOT
BRANCH   1   2
ATOM      2  C   UNL     1      46.258   7.781  12.556  0.00  0.00    +0.000 A 
ATOM      3  C   UNL     1      46.761   6.493  12.745  0.00  0.00    +0.000 A 
ATOM      4  C   UNL     1      46.121   5.405  12.152  0.00  0.00    +0.000 A 
ATOM      5  C   UNL     1      44.987   5.627  11.373  0.00  0.00    +0.000 A 
ATOM      6  N   UNL     1      44.504   6.876  11.148  0.00  0.00    +0.000 NA
ATOM      7  C   UNL     1      45.153   7.914  11.723  0.00  0.00    +0.000 A 
BRANCH   5   8
ATOM      8  C   UNL     1      44.203   4.448  10.816  0.00  0.00    +0.000 C 
BRANCH   8   9
ATOM      9  N   UNL     1      43.737   4.653   9.444  0.00  0.00    +0.000 NA
ATOM     10  H   UNL     1      43.844   5.626   9.176  0.00  0.00    +0.000 HD
BRANCH   9  11
ATOM     11  C   UNL     1      44.422   3.832   8.489  0.00  0.00    +0.000 C 
ATOM     12  C   UNL     1      45.104   2.580   9.022  0.00  0.00    +0.000 C 
ATOM     13  C   UNL     1      46.173   2.325   7.975  0.00  0.00    +0.000 C 
ATOM     14  C   UNL     1      46.532   3.715   7.466  0.00  0.00    +0.000 C 
ATOM     15  N   UNL     1      45.548   4.628   8.046  0.00  0.00    +0.000 NA
ATOM     16  H   UNL     1      45.223   5.314   7.369  0.00  0.00    +0.000 HD
ENDBRANCH   9  11
ENDBRANCH   8   9
ENDBRANCH   5   8
ENDBRANCH   1   2
BRANCH   1  19
ATOM     17  O   UNL     1      49.422   8.684  14.402  0.00  0.00    +0.000 OA
ATOM     18  C   UNL     1      48.422   8.655  15.119  0.00  0.00    +0.000 C 
ATOM     19  N   UNL     1      47.153   8.728  14.611  0.00  0.00    +0.000 N 
ATOM     20  H   UNL     1      46.373   8.859  15.246  0.00  0.00    +0.000 HD
BRANCH  18  21
ATOM     21  C   UNL     1      48.530   8.505  16.574  0.00  0.00    +0.000 A 
ATOM     22  C   UNL     1      48.364   9.609  17.399  0.00  0.00    +0.000 A 
ATOM     23  S   UNL     1      48.484   9.242  19.061  0.00  0.00    +0.000 S 
ATOM     24  C   UNL     1      48.726   7.590  18.736  0.00  0.00    +0.000 A 
ATOM     25  N   UNL     1      48.851   6.688  19.744  0.00  0.00    +0.000 NA
ATOM     26  C   UNL     1      48.982   5.464  19.355  0.00  0.00    +0.000 A 
ATOM     27  N   UNL     1      49.024   5.064  18.042  0.00  0.00    +0.000 N 
ATOM     28  C   UNL     1      49.004   5.950  16.994  0.00  0.00    +0.000 A 
ATOM     29  O   UNL     1      49.218   5.580  15.844  0.00  0.00    +0.000 OA
ATOM     30  C   UNL     1      48.768   7.329  17.381  0.00  0.00    +0.000 A 
ATOM     31  H   UNL     1      49.179   4.095  17.804  0.00  0.00    +0.000 HD
ENDBRANCH  18  21
ENDBRANCH   1  19
TORSDOF 6
ENDMDL
MODEL 7
REMARK VINA RESULT:    -6.446      3.284      8.209
REMARK INTER + INTRA:          -9.927
REMARK INTER:                  -9.148
REMARK INTRA:                  -0.779
REMARK UNBOUND:                -1.219
REMARK  Name = 
REMARK  6 active torsions:
REMARK  status: ('A' for Active; 'I' for Inactive)
REMARK    1  A    between atoms: C_2  and  C_18
REMARK    2  A    between atoms: N_3  and  C_4
REMARK    3  A    between atoms: C_4  and  C_5
REMARK    4  A    between atoms: C_8  and  C_9
REMARK    5  A    between atoms: C_9  and  N_10
REMARK    6  A    between atoms: N_10  and  C_11
REMARK                            x       y       z     vdW  Elec       q    Type
REMARK                         _______ _______ _______ _____ _____    ______ ____
ROOT
ATOM      1  C   UNL     1      48.739   7.819  15.115  0.00  0.00    +0.000 C 
ENDROOT
BRANCH   1   2
ATOM      2  C   UNL     1      49.232   6.668  15.938  0.00  0.00    +0.000 A 
ATOM      3  C   UNL     1      48.354   5.726  16.474  0.00  0.00    +0.000 A 
ATOM      4  C   UNL     1      48.855   4.642  17.194  0.00  0.00    +0.000 A 
ATOM      5  C   UNL     1      50.232   4.523  17.368  0.00  0.00    +0.000 A 
ATOM      6  N   UNL     1      51.100   5.448  16.885  0.00  0.00    +0.000 NA
ATOM      7  C   UNL     1      50.585   6.497  16.205  0.00  0.00    +0.000 A 
BRANCH   5   8
ATOM      8  C   UNL     1      50.811   3.288  18.044  0.00  0.00    +0.000 C 
BRANCH   8   9
ATOM      9  N   UNL     1      51.974   3.572  18.884  0.00  0.00    +0.000 NA
ATOM     10  H   UNL     1      51.704   3.604  19.862  0.00  0.00    +0.000 HD
BRANCH   9  11
ATOM     11  C   UNL     1      53.029   2.614  18.727  0.00  0.00    +0.000 C 
ATOM     12  C   UNL     1      54.035   2.876  17.615  0.00  0.00    +0.000 C 
ATOM     13  C   UNL     1      54.570   1.485  17.330  0.00  0.00    +0.000 C 
ATOM     14  C   UNL     1      53.395   0.566  17.639  0.00  0.00    +0.000 C 
ATOM     15  N   UNL     1      52.377   1.405  18.269  0.00  0.00    +0.000 NA
ATOM     16  H   UNL     1      51.943   0.942  19.064  0.00  0.00    +0.000 HD
ENDBRANCH   9  11
ENDBRANCH   8   9
ENDBRANCH   5   8
ENDBRANCH   1   2
BRANCH   1  19
ATOM     17  O   UNL     1      48.637   6.198  12.815  0.00  0.00    +0.000 OA
ATOM     18  C   UNL     1      47.587   6.632  13.286  0.00  0.00    +0.000 C 
ATOM     19  N   UNL     1      47.559   7.474  14.365  0.00  0.00    +0.000 N 
ATOM     20  H   UNL     1      46.671   7.677  14.812  0.00  0.00    +0.000 HD
BRANCH  18  21
ATOM     21  C   UNL     1      46.288   6.298  12.692  0.00  0.00    +0.000 A 
ATOM     22  C   UNL     1      45.528   7.288  12.085  0.00  0.00    +0.000 A 
ATOM     23  S   UNL     1      44.068   6.714  11.415  0.00  0.00    +0.000 S 
ATOM     24  C   UNL     1      44.418   5.116  11.882  0.00  0.00    +0.000 A 
ATOM     25  N   UNL     1      43.582   4.093  11.562  0.00  0.00    +0.000 NA
ATOM     26  C   UNL     1      43.995   2.929  11.936  0.00  0.00    +0.000 A 
ATOM     27  N   UNL     1      45.159   2.698  12.627  0.00  0.00    +0.000 N 
ATOM     28  C   UNL     1      45.979   3.710  13.058  0.00  0.00    +0.000 A 
ATOM     29  O   UNL     1      46.916   3.488  13.820  0.00  0.00    +0.000 OA
ATOM     30  C   UNL     1      45.603   5.029  12.584  0.00  0.00    +0.000 A 
ATOM     31  H   UNL     1      45.399   1.767  12.935  0.00  0.00    +0.000 HD
ENDBRANCH  18  21
ENDBRANCH   1  19
TORSDOF 6
ENDMDL
MODEL 8
REMARK VINA RESULT:    -6.418      1.675      2.028
REMARK INTER + INTRA:          -9.888
REMARK INTER:                  -8.967
REMARK INTRA:                  -0.921
REMARK UNBOUND:                -1.219
REMARK  Name = 
REMARK  6 active torsions:
REMARK  status: ('A' for Active; 'I' for Inactive)
REMARK    1  A    between atoms: C_2  and  C_18
REMARK    2  A    between atoms: N_3  and  C_4
REMARK    3  A    between atoms: C_4  and  C_5
REMARK    4  A    between atoms: C_8  and  C_9
REMARK    5  A    between atoms: C_9  and  N_10
REMARK    6  A    between atoms: N_10  and  C_11
REMARK                            x       y       z     vdW  Elec       q    Type
REMARK                         _______ _______ _______ _____ _____    ______ ____
ROOT
ATOM      1  C   UNL     1      47.436   7.560  13.692  0.00  0.00    +0.000 C 
ENDROOT
BRANCH   1   2
ATOM      2  C   UNL     1      46.565   6.478  13.130  0.00  0.00    +0.000 A 
ATOM      3  C   UNL     1      46.716   5.146  13.518  0.00  0.00    +0.000 A 
ATOM      4  C   UNL     1      45.855   4.174  13.009  0.00  0.00    +0.000 A 
ATOM      5  C   UNL     1      44.857   4.554  12.114  0.00  0.00    +0.000 A 
ATOM      6  N   UNL     1      44.717   5.839  11.697  0.00  0.00    +0.000 NA
ATOM      7  C   UNL     1      45.576   6.757  12.194  0.00  0.00    +0.000 A 
BRANCH   5   8
ATOM      8  C   UNL     1      43.830   3.536  11.640  0.00  0.00    +0.000 C 
BRANCH   8   9
ATOM      9  N   UNL     1      43.675   3.497  10.186  0.00  0.00    +0.000 NA
ATOM     10  H   UNL     1      43.249   4.357   9.853  0.00  0.00    +0.000 HD
BRANCH   9  11
ATOM     11  C   UNL     1      44.913   3.296   9.492  0.00  0.00    +0.000 C 
ATOM     12  C   UNL     1      44.958   3.715   8.030  0.00  0.00    +0.000 C 
ATOM     13  C   UNL     1      46.078   2.850   7.481  0.00  0.00    +0.000 C 
ATOM     14  C   UNL     1      46.013   1.583   8.323  0.00  0.00    +0.000 C 
ATOM     15  N   UNL     1      45.066   1.858   9.402  0.00  0.00    +0.000 NA
ATOM     16  H   UNL     1      45.397   1.504  10.296  0.00  0.00    +0.000 HD
ENDBRANCH   9  11
ENDBRANCH   8   9
ENDBRANCH   5   8
ENDBRANCH   1   2
BRANCH   1  19
ATOM     17  O   UNL     1      49.054   8.842  15.607  0.00  0.00    +0.000 OA
ATOM     18  C   UNL     1      49.332   7.693  15.263  0.00  0.00    +0.000 C 
ATOM     19  N   UNL     1      48.630   7.027  14.296  0.00  0.00    +0.000 N 
ATOM     20  H   UNL     1      48.794   6.036  14.158  0.00  0.00    +0.000 HD
BRANCH  18  21
ATOM     21  C   UNL     1      50.467   6.974  15.851  0.00  0.00    +0.000 A 
ATOM     22  C   UNL     1      51.760   7.443  15.659  0.00  0.00    +0.000 A 
ATOM     23  S   UNL     1      52.949   6.506  16.445  0.00  0.00    +0.000 S 
ATOM     24  C   UNL     1      51.775   5.462  17.097  0.00  0.00    +0.000 A 
ATOM     25  N   UNL     1      52.124   4.446  17.928  0.00  0.00    +0.000 NA
ATOM     26  C   UNL     1      51.130   3.764  18.387  0.00  0.00    +0.000 A 
ATOM     27  N   UNL     1      49.814   3.991  18.067  0.00  0.00    +0.000 N 
ATOM     28  C   UNL     1      49.425   4.939  17.155  0.00  0.00    +0.000 A 
ATOM     29  O   UNL     1      48.265   5.003  16.759  0.00  0.00    +0.000 OA
ATOM     30  C   UNL     1      50.500   5.790  16.680  0.00  0.00    +0.000 A 
ATOM     31  H   UNL     1      49.086   3.387  18.422  0.00  0.00    +0.000 HD
ENDBRANCH  18  21
ENDBRANCH   1  19
TORSDOF 6
ENDMDL
MODEL 9
REMARK VINA RESULT:    -6.410      2.705      4.085
REMARK INTER + INTRA:          -9.878
REMARK INTER:                  -9.255
REMARK INTRA:                  -0.623
REMARK UNBOUND:                -1.219
REMARK  Name = 
REMARK  6 active torsions:
REMARK  status: ('A' for Active; 'I' for Inactive)
REMARK    1  A    between atoms: C_2  and  C_18
REMARK    2  A    between atoms: N_3  and  C_4
REMARK    3  A    between atoms: C_4  and  C_5
REMARK    4  A    between atoms: C_8  and  C_9
REMARK    5  A    between atoms: C_9  and  N_10
REMARK    6  A    between atoms: N_10  and  C_11
REMARK                            x       y       z     vdW  Elec       q    Type
REMARK                         _______ _______ _______ _____ _____    ______ ____
ROOT
ATOM      1  C   UNL     1      45.022   5.956  13.245  0.00  0.00    +0.000 C 
ENDROOT
BRANCH   1   2
ATOM      2  C   UNL     1      44.871   5.048  12.063  0.00  0.00    +0.000 A 
ATOM      3  C   UNL     1      45.203   5.468  10.774  0.00  0.00    +0.000 A 
ATOM      4  C   UNL     1      45.095   4.578   9.706  0.00  0.00    +0.000 A 
ATOM      5  C   UNL     1      44.650   3.279   9.947  0.00  0.00    +0.000 A 
ATOM      6  N   UNL     1      44.290   2.863  11.189  0.00  0.00    +0.000 NA
ATOM      7  C   UNL     1      44.389   3.752  12.203  0.00  0.00    +0.000 A 
BRANCH   5   8
ATOM      8  C   UNL     1      44.639   2.256   8.821  0.00  0.00    +0.000 C 
BRANCH   8   9
ATOM      9  N   UNL     1      45.919   1.571   8.643  0.00  0.00    +0.000 NA
ATOM     10  H   UNL     1      45.768   0.616   8.329  0.00  0.00    +0.000 HD
BRANCH   9  11
ATOM     11  C   UNL     1      46.786   2.232   7.712  0.00  0.00    +0.000 C 
ATOM     12  C   UNL     1      46.122   3.074   6.633  0.00  0.00    +0.000 C 
ATOM     13  C   UNL     1      47.177   3.092   5.542  0.00  0.00    +0.000 C 
ATOM     14  C   UNL     1      47.890   1.754   5.695  0.00  0.00    +0.000 C 
ATOM     15  N   UNL     1      47.392   1.167   6.938  0.00  0.00    +0.000 NA
ATOM     16  H   UNL     1      48.139   0.745   7.484  0.00  0.00    +0.000 HD
ENDBRANCH   9  11
ENDBRANCH   8   9
ENDBRANCH   5   8
ENDBRANCH   1   2
BRANCH   1  19
ATOM     17  O   UNL     1      46.289   8.471  13.217  0.00  0.00    +0.000 OA
ATOM     18  C   UNL     1      46.934   7.481  13.563  0.00  0.00    +0.000 C 
ATOM     19  N   UNL     1      46.407   6.219  13.545  0.00  0.00    +0.000 N 
ATOM     20  H   UNL     1      46.919   5.461  13.983  0.00  0.00    +0.000 HD
BRANCH  18  21
ATOM     21  C   UNL     1      48.335   7.592  13.985  0.00  0.00    +0.000 A 
ATOM     22  C   UNL     1      48.727   7.095  15.220  0.00  0.00    +0.000 A 
ATOM     23  S   UNL     1      50.396   7.274  15.529  0.00  0.00    +0.000 S 
ATOM     24  C   UNL     1      50.656   7.990  14.008  0.00  0.00    +0.000 A 
ATOM     25  N   UNL     1      51.904   8.346  13.605  0.00  0.00    +0.000 NA
ATOM     26  C   UNL     1      51.963   8.833  12.412  0.00  0.00    +0.000 A 
ATOM     27  N   UNL     1      50.877   9.022  11.592  0.00  0.00    +0.000 N 
ATOM     28  C   UNL     1      49.590   8.772  11.995  0.00  0.00    +0.000 A 
ATOM     29  O   UNL     1      48.631   9.112  11.309  0.00  0.00    +0.000 OA
ATOM     30  C   UNL     1      49.482   8.139  13.297  0.00  0.00    +0.000 A 
ATOM     31  H   UNL     1      50.985   9.455  10.686  0.00  0.00    +0.000 HD
ENDBRANCH  18  21
ENDBRANCH   1  19
TORSDOF 6
ENDMDL
