MODEL 1
REMARK VINA RESULT:    -8.329      0.000      0.000
REMARK INTER + INTRA:         -12.031
REMARK INTER:                 -11.251
REMARK INTRA:                  -0.780
REMARK UNBOUND:                -0.780
REMARK  Name = 
REMARK  7 active torsions:
REMARK  status: ('A' for Active; 'I' for Inactive)
REMARK    1  A    between atoms: C_1  and  O_2
REMARK    2  A    between atoms: O_2  and  C_3
REMARK    3  A    between atoms: C_5  and  N_6
REMARK    4  A    between atoms: N_6  and  C_7
REMARK    5  A    between atoms: C_7  and  C_8
REMARK    6  A    between atoms: C_12  and  C_13
REMARK    7  A    between atoms: C_22  and  C_23
REMARK                            x       y       z     vdW  Elec       q    Type
REMARK                         _______ _______ _______ _____ _____    ______ ____
ROOT
ATOM      1  N   UNL     1      44.019   6.906  12.177  0.00  0.00    +0.000 N 
ATOM      2  H   UNL     1      43.448   7.127  12.984  0.00  0.00    +0.000 HD
ENDROOT
BRANCH   1   5
ATOM      3  C   UNL     1      47.694   7.258  12.348  0.00  0.00    +0.000 A 
ATOM      4  C   UNL     1      46.372   7.479  11.970  0.00  0.00    +0.000 A 
ATOM      5  C   UNL     1      45.347   6.682  12.480  0.00  0.00    +0.000 A 
ATOM      6  N   UNL     1      45.603   5.685  13.348  0.00  0.00    +0.000 NA
ATOM      7  C   UNL     1      46.907   5.497  13.723  0.00  0.00    +0.000 A 
ATOM      8  C   UNL     1      47.970   6.250  13.255  0.00  0.00    +0.000 A 
BRANCH   7   9
ATOM      9  C   UNL     1      47.181   4.409  14.717  0.00  0.00    +0.000 C 
ATOM     10  N   UNL     1      47.181   4.795  16.031  0.00  0.00    +0.000 N 
ATOM     11  O   UNL     1      47.394   3.249  14.392  0.00  0.00    +0.000 OA
ATOM     12  H   UNL     1      47.004   5.760  16.269  0.00  0.00    +0.000 HD
ATOM     13  H   UNL     1      47.361   4.105  16.748  0.00  0.00    +0.000 HD
ENDBRANCH   7   9
BRANCH   3  15
ATOM     14  C   UNL     1      50.040   7.618  12.470  0.00  0.00    +0.000 C 
ATOM     15  O   UNL     1      48.778   7.966  11.909  0.00  0.00    +0.000 OA
ENDBRANCH   3  15
ENDBRANCH   1   5
BRANCH   1  16
ATOM     16  C   UNL     1      43.378   6.342  11.003  0.00  0.00    +0.000 C 
BRANCH  16  17
ATOM     17  C   UNL     1      43.639   4.855  10.858  0.00  0.00    +0.000 A 
ATOM     18  C   UNL     1      43.021   3.957  11.723  0.00  0.00    +0.000 A 
ATOM     19  C   UNL     1      43.234   2.599  11.538  0.00  0.00    +0.000 A 
ATOM     20  C   UNL     1      44.056   2.175  10.499  0.00  0.00    +0.000 A 
ATOM     21  C   UNL     1      44.645   3.119   9.658  0.00  0.00    +0.000 A 
ATOM     22  N   UNL     1      44.453   4.451   9.844  0.00  0.00    +0.000 NA
BRANCH  21  23
ATOM     23  C   UNL     1      45.498   2.736   8.519  0.00  0.00    +0.000 A 
ATOM     24  C   UNL     1      46.050   1.455   8.411  0.00  0.00    +0.000 A 
ATOM     25  N   UNL     1      46.813   1.017   7.372  0.00  0.00    +0.000 NA
ATOM     26  C   UNL     1      47.056   1.908   6.385  0.00  0.00    +0.000 A 
ATOM     27  C   UNL     1      46.582   3.204   6.404  0.00  0.00    +0.000 A 
ATOM     28  F   UNL     1      46.859   4.049   5.404  0.00  0.00    +0.000 F 
ATOM     29  C   UNL     1      45.804   3.624   7.475  0.00  0.00    +0.000 A 
ENDBRANCH  21  23
ENDBRANCH  16  17
ENDBRANCH   1  16
TORSDOF 6
ENDMDL
MODEL 2
REMARK VINA RESULT:    -7.835      1.200      2.610
REMARK INTER + INTRA:         -11.363
REMARK INTER:                 -10.572
REMARK INTRA:                  -0.791
REMARK UNBOUND:                -0.780
REMARK  Name = 
REMARK  7 active torsions:
REMARK  status: ('A' for Active; 'I' for Inactive)
REMARK    1  A    between atoms: C_1  and  O_2
REMARK    2  A    between atoms: O_2  and  C_3
REMARK    3  A    between atoms: C_5  and  N_6
REMARK    4  A    between atoms: N_6  and  C_7
REMARK    5  A    between atoms: C_7  and  C_8
REMARK    6  A    between atoms: C_12  and  C_13
REMARK    7  A    between atoms: C_22  and  C_23
REMARK                            x       y       z     vdW  Elec       q    Type
REMARK                         _______ _______ _______ _____ _____    ______ ____
ROOT
ATOM      1  N   UNL     1      44.194   6.869  12.281  0.00  0.00    +0.000 N 
ATOM      2  H   UNL     1      43.560   7.071  13.045  0.00  0.00    +0.000 HD
ENDROOT
BRANCH   1   5
ATOM      3  C   UNL     1      47.096   5.189  13.834  0.00  0.00    +0.000 A 
ATOM      4  C   UNL     1      45.777   5.483  13.497  0.00  0.00    +0.000 A 
ATOM      5  C   UNL     1      45.481   6.578  12.686  0.00  0.00    +0.000 A 
ATOM      6  N   UNL     1      46.454   7.375  12.206  0.00  0.00    +0.000 NA
ATOM      7  C   UNL     1      47.746   7.057  12.532  0.00  0.00    +0.000 A 
ATOM      8  C   UNL     1      48.108   5.987  13.331  0.00  0.00    +0.000 A 
BRANCH   7   9
ATOM      9  C   UNL     1      48.827   7.929  11.966  0.00  0.00    +0.000 C 
ATOM     10  N   UNL     1      50.007   7.295  11.681  0.00  0.00    +0.000 N 
ATOM     11  O   UNL     1      48.681   9.127  11.768  0.00  0.00    +0.000 OA
ATOM     12  H   UNL     1      50.099   6.305  11.856  0.00  0.00    +0.000 HD
ATOM     13  H   UNL     1      50.774   7.831  11.297  0.00  0.00    +0.000 HD
ENDBRANCH   7   9
BRANCH   3  15
ATOM     14  C   UNL     1      47.296   4.294  16.026  0.00  0.00    +0.000 C 
ATOM     15  O   UNL     1      47.505   4.151  14.625  0.00  0.00    +0.000 OA
ENDBRANCH   3  15
ENDBRANCH   1   5
BRANCH   1  16
ATOM     16  C   UNL     1      43.643   6.390  11.026  0.00  0.00    +0.000 C 
BRANCH  16  17
ATOM     17  C   UNL     1      43.808   4.893  10.853  0.00  0.00    +0.000 A 
ATOM     18  C   UNL     1      43.114   4.020  11.686  0.00  0.00    +0.000 A 
ATOM     19  C   UNL     1      43.242   2.655  11.475  0.00  0.00    +0.000 A 
ATOM     20  C   UNL     1      44.055   2.199  10.444  0.00  0.00    +0.000 A 
ATOM     21  C   UNL     1      44.723   3.120   9.636  0.00  0.00    +0.000 A 
ATOM     22  N   UNL     1      44.615   4.457   9.847  0.00  0.00    +0.000 NA
BRANCH  21  23
ATOM     23  C   UNL     1      45.573   2.704   8.505  0.00  0.00    +0.000 A 
ATOM     24  C   UNL     1      46.104   1.413   8.419  0.00  0.00    +0.000 A 
ATOM     25  N   UNL     1      46.862   0.946   7.389  0.00  0.00    +0.000 NA
ATOM     26  C   UNL     1      47.124   1.817   6.390  0.00  0.00    +0.000 A 
ATOM     27  C   UNL     1      46.672   3.121   6.387  0.00  0.00    +0.000 A 
ATOM     28  F   UNL     1      46.966   3.947   5.375  0.00  0.00    +0.000 F 
ATOM     29  C   UNL     1      45.898   3.571   7.449  0.00  0.00    +0.000 A 
ENDBRANCH  21  23
ENDBRANCH  16  17
ENDBRANCH   1  16
TORSDOF 6
ENDMDL
MODEL 3
REMARK VINA RESULT:    -7.596      2.905      4.238
REMARK INTER + INTRA:         -11.040
REMARK INTER:                 -10.496
REMARK INTRA:                  -0.544
REMARK UNBOUND:                -0.780
REMARK  Name = 
REMARK  7 active torsions:
REMARK  status: ('A' for Active; 'I' for Inactive)
REMARK    1  A    between atoms: C_1  and  O_2
REMARK    2  A    between atoms: O_2  and  C_3
REMARK    3  A    between atoms: C_5  and  N_6
REMARK    4  A    between atoms: N_6  and  C_7
REMARK    5  A    between atoms: C_7  and  C_8
REMARK    6  A    between atoms: C_12  and  C_13
REMARK    7  A    between atoms: C_22  and  C_23
REMARK                            x       y       z     vdW  Elec       q    Type
REMARK                         _______ _______ _______ _____ _____    ______ ____
ROOT
ATOM      1  N   UNL     1      46.565   3.979  14.634  0.00  0.00    +0.000 N 
ATOM      2  H   UNL     1      46.719   3.125  14.111  0.00  0.00    +0.000 HD
ENDROOT
BRANCH   1   5
ATOM      3  C   UNL     1      47.515   4.772  18.116  0.00  0.00    +0.000 A 
ATOM      4  C   UNL     1      46.816   4.789  16.911  0.00  0.00    +0.000 A 
ATOM      5  C   UNL     1      47.261   4.037  15.825  0.00  0.00    +0.000 A 
ATOM      6  N   UNL     1      48.368   3.275  15.908  0.00  0.00    +0.000 NA
ATOM      7  C   UNL     1      49.029   3.256  17.108  0.00  0.00    +0.000 A 
ATOM      8  C   UNL     1      48.643   3.979  18.223  0.00  0.00    +0.000 A 
BRANCH   7   9
ATOM      9  C   UNL     1      50.242   2.379  17.205  0.00  0.00    +0.000 C 
ATOM     10  N   UNL     1      51.167   2.753  18.142  0.00  0.00    +0.000 N 
ATOM     11  O   UNL     1      50.408   1.394  16.499  0.00  0.00    +0.000 OA
ATOM     12  H   UNL     1      51.003   3.572  18.709  0.00  0.00    +0.000 HD
ATOM     13  H   UNL     1      52.007   2.201  18.254  0.00  0.00    +0.000 HD
ENDBRANCH   7   9
BRANCH   3  15
ATOM     14  C   UNL     1      48.255   6.044  19.983  0.00  0.00    +0.000 C 
ATOM     15  O   UNL     1      47.181   5.473  19.241  0.00  0.00    +0.000 OA
ENDBRANCH   3  15
ENDBRANCH   1   5
BRANCH   1  16
ATOM     16  C   UNL     1      46.143   5.168  13.916  0.00  0.00    +0.000 C 
BRANCH  16  17
ATOM     17  C   UNL     1      45.137   4.861  12.825  0.00  0.00    +0.000 A 
ATOM     18  C   UNL     1      43.793   5.169  13.018  0.00  0.00    +0.000 A 
ATOM     19  C   UNL     1      42.899   4.926  11.986  0.00  0.00    +0.000 A 
ATOM     20  C   UNL     1      43.367   4.384  10.794  0.00  0.00    +0.000 A 
ATOM     21  C   UNL     1      44.725   4.100  10.654  0.00  0.00    +0.000 A 
ATOM     22  N   UNL     1      45.603   4.320  11.666  0.00  0.00    +0.000 NA
BRANCH  21  23
ATOM     23  C   UNL     1      45.291   3.556   9.406  0.00  0.00    +0.000 A 
ATOM     24  C   UNL     1      45.667   4.387   8.345  0.00  0.00    +0.000 A 
ATOM     25  N   UNL     1      46.230   3.962   7.181  0.00  0.00    +0.000 NA
ATOM     26  C   UNL     1      46.421   2.630   7.054  0.00  0.00    +0.000 A 
ATOM     27  C   UNL     1      46.063   1.720   8.028  0.00  0.00    +0.000 A 
ATOM     28  F   UNL     1      46.266   0.409   7.849  0.00  0.00    +0.000 F 
ATOM     29  C   UNL     1      45.492   2.181   9.207  0.00  0.00    +0.000 A 
ENDBRANCH  21  23
ENDBRANCH  16  17
ENDBRANCH   1  16
TORSDOF 6
ENDMDL
MODEL 4
REMARK VINA RESULT:    -7.529      2.845      4.347
REMARK INTER + INTRA:         -10.950
REMARK INTER:                 -10.381
REMARK INTRA:                  -0.569
REMARK UNBOUND:                -0.780
REMARK  Name = 
REMARK  7 active torsions:
REMARK  status: ('A' for Active; 'I' for Inactive)
REMARK    1  A    between atoms: C_1  and  O_2
REMARK    2  A    between atoms: O_2  and  C_3
REMARK    3  A    between atoms: C_5  and  N_6
REMARK    4  A    between atoms: N_6  and  C_7
REMARK    5  A    between atoms: C_7  and  C_8
REMARK    6  A    between atoms: C_12  and  C_13
REMARK    7  A    between atoms: C_22  and  C_23
REMARK                            x       y       z     vdW  Elec       q    Type
REMARK                         _______ _______ _______ _____ _____    ______ ____
ROOT
ATOM      1  N   UNL     1      46.676   3.633  14.467  0.00  0.00    +0.000 N 
ATOM      2  H   UNL     1      46.878   2.953  13.743  0.00  0.00    +0.000 HD
ENDROOT
BRANCH   1   5
ATOM      3  C   UNL     1      49.247   2.443  16.839  0.00  0.00    +0.000 A 
ATOM      4  C   UNL     1      48.452   2.522  15.698  0.00  0.00    +0.000 A 
ATOM      5  C   UNL     1      47.446   3.483  15.603  0.00  0.00    +0.000 A 
ATOM      6  N   UNL     1      47.218   4.358  16.600  0.00  0.00    +0.000 NA
ATOM      7  C   UNL     1      48.024   4.277  17.704  0.00  0.00    +0.000 A 
ATOM      8  C   UNL     1      49.038   3.349  17.864  0.00  0.00    +0.000 A 
BRANCH   7   9
ATOM      9  C   UNL     1      47.787   5.277  18.796  0.00  0.00    +0.000 C 
ATOM     10  N   UNL     1      46.503   5.742  18.902  0.00  0.00    +0.000 N 
ATOM     11  O   UNL     1      48.671   5.664  19.548  0.00  0.00    +0.000 OA
ATOM     12  H   UNL     1      45.795   5.406  18.266  0.00  0.00    +0.000 HD
ATOM     13  H   UNL     1      46.282   6.420  19.619  0.00  0.00    +0.000 HD
ENDBRANCH   7   9
BRANCH   3  15
ATOM     14  C   UNL     1      51.484   2.058  17.544  0.00  0.00    +0.000 C 
ATOM     15  O   UNL     1      50.253   1.541  17.050  0.00  0.00    +0.000 OA
ENDBRANCH   3  15
ENDBRANCH   1   5
BRANCH   1  16
ATOM     16  C   UNL     1      46.086   4.903  14.084  0.00  0.00    +0.000 C 
BRANCH  16  17
ATOM     17  C   UNL     1      45.106   4.764  12.935  0.00  0.00    +0.000 A 
ATOM     18  C   UNL     1      43.796   5.209  13.087  0.00  0.00    +0.000 A 
ATOM     19  C   UNL     1      42.933   5.119  12.005  0.00  0.00    +0.000 A 
ATOM     20  C   UNL     1      43.397   4.590  10.806  0.00  0.00    +0.000 A 
ATOM     21  C   UNL     1      44.722   4.165  10.709  0.00  0.00    +0.000 A 
ATOM     22  N   UNL     1      45.568   4.235  11.769  0.00  0.00    +0.000 NA
BRANCH  21  23
ATOM     23  C   UNL     1      45.287   3.626   9.458  0.00  0.00    +0.000 A 
ATOM     24  C   UNL     1      45.672   4.462   8.404  0.00  0.00    +0.000 A 
ATOM     25  N   UNL     1      46.235   4.042   7.238  0.00  0.00    +0.000 NA
ATOM     26  C   UNL     1      46.415   2.709   7.101  0.00  0.00    +0.000 A 
ATOM     27  C   UNL     1      46.047   1.794   8.067  0.00  0.00    +0.000 A 
ATOM     28  F   UNL     1      46.240   0.484   7.879  0.00  0.00    +0.000 F 
ATOM     29  C   UNL     1      45.477   2.250   9.248  0.00  0.00    +0.000 A 
ENDBRANCH  21  23
ENDBRANCH  16  17
ENDBRANCH   1  16
TORSDOF 6
ENDMDL
MODEL 5
REMARK VINA RESULT:    -7.518      2.434      3.074
REMARK INTER + INTRA:         -10.936
REMARK INTER:                 -10.252
REMARK INTRA:                  -0.683
REMARK UNBOUND:                -0.780
REMARK  Name = 
REMARK  7 active torsions:
REMARK  status: ('A' for Active; 'I' for Inactive)
REMARK    1  A    between atoms: C_1  and  O_2
REMARK    2  A    between atoms: O_2  and  C_3
REMARK    3  A    between atoms: C_5  and  N_6
REMARK    4  A    between atoms: N_6  and  C_7
REMARK    5  A    between atoms: C_7  and  C_8
REMARK    6  A    between atoms: C_12  and  C_13
REMARK    7  A    between atoms: C_22  and  C_23
REMARK                            x       y       z     vdW  Elec       q    Type
REMARK                         _______ _______ _______ _____ _____    ______ ____
ROOT
ATOM      1  N   UNL     1      47.332   6.375  13.017  0.00  0.00    +0.000 N 
ATOM      2  H   UNL     1      48.030   6.506  12.294  0.00  0.00    +0.000 HD
ENDROOT
BRANCH   1   5
ATOM      3  C   UNL     1      49.107   6.910  16.214  0.00  0.00    +0.000 A 
ATOM      4  C   UNL     1      48.640   7.132  14.921  0.00  0.00    +0.000 A 
ATOM      5  C   UNL     1      47.864   6.169  14.274  0.00  0.00    +0.000 A 
ATOM      6  N   UNL     1      47.544   5.009  14.878  0.00  0.00    +0.000 NA
ATOM      7  C   UNL     1      47.996   4.819  16.157  0.00  0.00    +0.000 A 
ATOM      8  C   UNL     1      48.769   5.731  16.854  0.00  0.00    +0.000 A 
BRANCH   7   9
ATOM      9  C   UNL     1      47.607   3.540  16.835  0.00  0.00    +0.000 C 
ATOM     10  N   UNL     1      48.616   2.629  17.001  0.00  0.00    +0.000 N 
ATOM     11  O   UNL     1      46.468   3.309  17.217  0.00  0.00    +0.000 OA
ATOM     12  H   UNL     1      49.546   2.847  16.674  0.00  0.00    +0.000 HD
ATOM     13  H   UNL     1      48.415   1.747  17.451  0.00  0.00    +0.000 HD
ENDBRANCH   7   9
BRANCH   3  15
ATOM     14  C   UNL     1      50.804   7.189  17.855  0.00  0.00    +0.000 C 
ATOM     15  O   UNL     1      49.880   7.772  16.941  0.00  0.00    +0.000 OA
ENDBRANCH   3  15
ENDBRANCH   1   5
BRANCH   1  16
ATOM     16  C   UNL     1      46.003   6.920  12.810  0.00  0.00    +0.000 C 
BRANCH  16  17
ATOM     17  C   UNL     1      45.081   5.948  12.102  0.00  0.00    +0.000 A 
ATOM     18  C   UNL     1      43.754   5.832  12.510  0.00  0.00    +0.000 A 
ATOM     19  C   UNL     1      42.917   4.973  11.813  0.00  0.00    +0.000 A 
ATOM     20  C   UNL     1      43.421   4.257  10.734  0.00  0.00    +0.000 A 
ATOM     21  C   UNL     1      44.757   4.418  10.365  0.00  0.00    +0.000 A 
ATOM     22  N   UNL     1      45.587   5.244  11.052  0.00  0.00    +0.000 NA
BRANCH  21  23
ATOM     23  C   UNL     1      45.345   3.715   9.211  0.00  0.00    +0.000 A 
ATOM     24  C   UNL     1      45.828   4.407   8.094  0.00  0.00    +0.000 A 
ATOM     25  N   UNL     1      46.418   3.832   7.011  0.00  0.00    +0.000 NA
ATOM     26  C   UNL     1      46.523   2.484   7.028  0.00  0.00    +0.000 A 
ATOM     27  C   UNL     1      46.058   1.703   8.066  0.00  0.00    +0.000 A 
ATOM     28  F   UNL     1      46.180   0.370   8.029  0.00  0.00    +0.000 F 
ATOM     29  C   UNL     1      45.462   2.316   9.160  0.00  0.00    +0.000 A 
ENDBRANCH  21  23
ENDBRANCH  16  17
ENDBRANCH   1  16
TORSDOF 6
ENDMDL
MODEL 6
REMARK VINA RESULT:    -7.246      3.915      6.333
REMARK INTER + INTRA:         -10.567
REMARK INTER:                  -9.744
REMARK INTRA:                  -0.824
REMARK UNBOUND:                -0.780
REMARK  Name = 
REMARK  7 active torsions:
REMARK  status: ('A' for Active; 'I' for Inactive)
REMARK    1  A    between atoms: C_1  and  O_2
REMARK    2  A    between atoms: O_2  and  C_3
REMARK    3  A    between atoms: C_5  and  N_6
REMARK    4  A    between atoms: N_6  and  C_7
REMARK    5  A    between atoms: C_7  and  C_8
REMARK    6  A    between atoms: C_12  and  C_13
REMARK    7  A    between atoms: C_22  and  C_23
REMARK                            x       y       z     vdW  Elec       q    Type
REMARK                         _______ _______ _______ _____ _____    ______ ____
ROOT
ATOM      1  N   UNL     1      48.550   6.797  16.199  0.00  0.00    +0.000 N 
ATOM      2  H   UNL     1      47.596   7.134  16.151  0.00  0.00    +0.000 HD
ENDROOT
BRANCH   1   5
ATOM      3  C   UNL     1      48.542   4.875  19.355  0.00  0.00    +0.000 A 
ATOM      4  C   UNL     1      48.390   5.937  18.466  0.00  0.00    +0.000 A 
ATOM      5  C   UNL     1      48.740   5.790  17.124  0.00  0.00    +0.000 A 
ATOM      6  N   UNL     1      49.227   4.627  16.651  0.00  0.00    +0.000 NA
ATOM      7  C   UNL     1      49.349   3.590  17.537  0.00  0.00    +0.000 A 
ATOM      8  C   UNL     1      49.022   3.668  18.880  0.00  0.00    +0.000 A 
BRANCH   7   9
ATOM      9  C   UNL     1      49.859   2.288  16.997  0.00  0.00    +0.000 C 
ATOM     10  N   UNL     1      50.860   1.699  17.723  0.00  0.00    +0.000 N 
ATOM     11  O   UNL     1      49.423   1.774  15.976  0.00  0.00    +0.000 OA
ATOM     12  H   UNL     1      51.201   2.148  18.561  0.00  0.00    +0.000 HD
ATOM     13  H   UNL     1      51.246   0.820  17.408  0.00  0.00    +0.000 HD
ENDBRANCH   7   9
BRANCH   3  15
ATOM     14  C   UNL     1      47.425   5.980  21.139  0.00  0.00    +0.000 C 
ATOM     15  O   UNL     1      48.242   4.904  20.689  0.00  0.00    +0.000 OA
ENDBRANCH   3  15
ENDBRANCH   1   5
BRANCH   1  16
ATOM     16  C   UNL     1      49.406   6.965  15.038  0.00  0.00    +0.000 C 
BRANCH  16  17
ATOM     17  C   UNL     1      48.625   6.988  13.739  0.00  0.00    +0.000 A 
ATOM     18  C   UNL     1      49.093   7.739  12.665  0.00  0.00    +0.000 A 
ATOM     19  C   UNL     1      48.388   7.704  11.470  0.00  0.00    +0.000 A 
ATOM     20  C   UNL     1      47.241   6.924  11.380  0.00  0.00    +0.000 A 
ATOM     21  C   UNL     1      46.821   6.187  12.487  0.00  0.00    +0.000 A 
ATOM     22  N   UNL     1      47.497   6.229  13.664  0.00  0.00    +0.000 NA
BRANCH  21  23
ATOM     23  C   UNL     1      45.634   5.314  12.448  0.00  0.00    +0.000 A 
ATOM     24  C   UNL     1      45.702   3.960  12.795  0.00  0.00    +0.000 A 
ATOM     25  N   UNL     1      44.644   3.104  12.820  0.00  0.00    +0.000 NA
ATOM     26  C   UNL     1      43.445   3.618  12.466  0.00  0.00    +0.000 A 
ATOM     27  C   UNL     1      43.269   4.932  12.083  0.00  0.00    +0.000 A 
ATOM     28  F   UNL     1      42.061   5.388  11.734  0.00  0.00    +0.000 F 
ATOM     29  C   UNL     1      44.366   5.784  12.068  0.00  0.00    +0.000 A 
ENDBRANCH  21  23
ENDBRANCH  16  17
ENDBRANCH   1  16
TORSDOF 6
ENDMDL
MODEL 7
REMARK VINA RESULT:    -7.190      3.653      7.215
REMARK INTER + INTRA:         -10.492
REMARK INTER:                  -9.627
REMARK INTRA:                  -0.866
REMARK UNBOUND:                -0.780
REMARK  Name = 
REMARK  7 active torsions:
REMARK  status: ('A' for Active; 'I' for Inactive)
REMARK    1  A    between atoms: C_1  and  O_2
REMARK    2  A    between atoms: O_2  and  C_3
REMARK    3  A    between atoms: C_5  and  N_6
REMARK    4  A    between atoms: N_6  and  C_7
REMARK    5  A    between atoms: C_7  and  C_8
REMARK    6  A    between atoms: C_12  and  C_13
REMARK    7  A    between atoms: C_22  and  C_23
REMARK                            x       y       z     vdW  Elec       q    Type
REMARK                         _______ _______ _______ _____ _____    ______ ____
ROOT
ATOM      1  N   UNL     1      45.720   6.623  10.327  0.00  0.00    +0.000 N 
ATOM      2  H   UNL     1      46.438   6.976   9.704  0.00  0.00    +0.000 HD
ENDROOT
BRANCH   1   5
ATOM      3  C   UNL     1      45.344   3.344   8.667  0.00  0.00    +0.000 A 
ATOM      4  C   UNL     1      45.711   4.670   8.882  0.00  0.00    +0.000 A 
ATOM      5  C   UNL     1      45.327   5.330  10.048  0.00  0.00    +0.000 A 
ATOM      6  N   UNL     1      44.599   4.709  10.996  0.00  0.00    +0.000 NA
ATOM      7  C   UNL     1      44.266   3.399  10.775  0.00  0.00    +0.000 A 
ATOM      8  C   UNL     1      44.613   2.686   9.640  0.00  0.00    +0.000 A 
BRANCH   7   9
ATOM      9  C   UNL     1      43.485   2.703  11.849  0.00  0.00    +0.000 C 
ATOM     10  N   UNL     1      43.594   3.245  13.102  0.00  0.00    +0.000 N 
ATOM     11  O   UNL     1      42.795   1.716  11.637  0.00  0.00    +0.000 OA
ATOM     12  H   UNL     1      44.173   4.059  13.247  0.00  0.00    +0.000 HD
ATOM     13  H   UNL     1      43.091   2.819  13.869  0.00  0.00    +0.000 HD
ENDBRANCH   7   9
BRANCH   3  15
ATOM     14  C   UNL     1      46.936   2.816   6.983  0.00  0.00    +0.000 C 
ATOM     15  O   UNL     1      45.654   2.599   7.562  0.00  0.00    +0.000 OA
ENDBRANCH   3  15
ENDBRANCH   1   5
BRANCH   1  16
ATOM     16  C   UNL     1      45.594   7.213  11.647  0.00  0.00    +0.000 C 
BRANCH  16  17
ATOM     17  C   UNL     1      46.883   7.141  12.441  0.00  0.00    +0.000 A 
ATOM     18  C   UNL     1      47.973   7.919  12.062  0.00  0.00    +0.000 A 
ATOM     19  C   UNL     1      49.124   7.874  12.834  0.00  0.00    +0.000 A 
ATOM     20  C   UNL     1      49.158   7.058  13.959  0.00  0.00    +0.000 A 
ATOM     21  C   UNL     1      48.034   6.303  14.295  0.00  0.00    +0.000 A 
ATOM     22  N   UNL     1      46.909   6.330  13.535  0.00  0.00    +0.000 NA
BRANCH  21  23
ATOM     23  C   UNL     1      47.992   5.445  15.492  0.00  0.00    +0.000 A 
ATOM     24  C   UNL     1      47.183   4.305  15.553  0.00  0.00    +0.000 A 
ATOM     25  N   UNL     1      47.121   3.444  16.606  0.00  0.00    +0.000 NA
ATOM     26  C   UNL     1      47.898   3.739  17.672  0.00  0.00    +0.000 A 
ATOM     27  C   UNL     1      48.714   4.851  17.727  0.00  0.00    +0.000 A 
ATOM     28  F   UNL     1      49.459   5.101  18.811  0.00  0.00    +0.000 F 
ATOM     29  C   UNL     1      48.760   5.711  16.638  0.00  0.00    +0.000 A 
ENDBRANCH  21  23
ENDBRANCH  16  17
ENDBRANCH   1  16
TORSDOF 6
ENDMDL
MODEL 8
REMARK VINA RESULT:    -7.121      2.809      4.642
REMARK INTER + INTRA:         -10.399
REMARK INTER:                  -9.664
REMARK INTRA:                  -0.735
REMARK UNBOUND:                -0.780
REMARK  Name = 
REMARK  7 active torsions:
REMARK  status: ('A' for Active; 'I' for Inactive)
REMARK    1  A    between atoms: C_1  and  O_2
REMARK    2  A    between atoms: O_2  and  C_3
REMARK    3  A    between atoms: C_5  and  N_6
REMARK    4  A    between atoms: N_6  and  C_7
REMARK    5  A    between atoms: C_7  and  C_8
REMARK    6  A    between atoms: C_12  and  C_13
REMARK    7  A    between atoms: C_22  and  C_23
REMARK                            x       y       z     vdW  Elec       q    Type
REMARK                         _______ _______ _______ _____ _____    ______ ____
ROOT
ATOM      1  N   UNL     1      48.694   7.580  14.621  0.00  0.00    +0.000 N 
ATOM      2  H   UNL     1      48.264   8.482  14.789  0.00  0.00    +0.000 HD
ENDROOT
BRANCH   1   5
ATOM      3  C   UNL     1      49.261   6.494  18.107  0.00  0.00    +0.000 A 
ATOM      4  C   UNL     1      49.227   7.306  16.976  0.00  0.00    +0.000 A 
ATOM      5  C   UNL     1      48.800   6.794  15.751  0.00  0.00    +0.000 A 
ATOM      6  N   UNL     1      48.409   5.512  15.627  0.00  0.00    +0.000 NA
ATOM      7  C   UNL     1      48.431   4.736  16.756  0.00  0.00    +0.000 A 
ATOM      8  C   UNL     1      48.843   5.179  18.000  0.00  0.00    +0.000 A 
BRANCH   7   9
ATOM      9  C   UNL     1      47.961   3.318  16.618  0.00  0.00    +0.000 C 
ATOM     10  N   UNL     1      46.895   2.971  17.404  0.00  0.00    +0.000 N 
ATOM     11  O   UNL     1      48.486   2.514  15.861  0.00  0.00    +0.000 OA
ATOM     12  H   UNL     1      46.483   3.656  18.021  0.00  0.00    +0.000 HD
ATOM     13  H   UNL     1      46.533   2.028  17.356  0.00  0.00    +0.000 HD
ENDBRANCH   7   9
BRANCH   3  15
ATOM     14  C   UNL     1      49.023   6.256  20.460  0.00  0.00    +0.000 C 
ATOM     15  O   UNL     1      49.668   6.880  19.354  0.00  0.00    +0.000 OA
ENDBRANCH   3  15
ENDBRANCH   1   5
BRANCH   1  16
ATOM     16  C   UNL     1      48.641   7.021  13.282  0.00  0.00    +0.000 C 
BRANCH  16  17
ATOM     17  C   UNL     1      47.255   7.102  12.674  0.00  0.00    +0.000 A 
ATOM     18  C   UNL     1      46.488   8.251  12.852  0.00  0.00    +0.000 A 
ATOM     19  C   UNL     1      45.243   8.321  12.243  0.00  0.00    +0.000 A 
ATOM     20  C   UNL     1      44.799   7.249  11.477  0.00  0.00    +0.000 A 
ATOM     21  C   UNL     1      45.611   6.125  11.329  0.00  0.00    +0.000 A 
ATOM     22  N   UNL     1      46.824   6.043  11.935  0.00  0.00    +0.000 NA
BRANCH  21  23
ATOM     23  C   UNL     1      45.215   4.970  10.504  0.00  0.00    +0.000 A 
ATOM     24  C   UNL     1      44.426   3.935  11.018  0.00  0.00    +0.000 A 
ATOM     25  N   UNL     1      43.988   2.859  10.308  0.00  0.00    +0.000 NA
ATOM     26  C   UNL     1      44.368   2.796   9.012  0.00  0.00    +0.000 A 
ATOM     27  C   UNL     1      45.166   3.749   8.412  0.00  0.00    +0.000 A 
ATOM     28  F   UNL     1      45.520   3.636   7.127  0.00  0.00    +0.000 F 
ATOM     29  C   UNL     1      45.596   4.838   9.159  0.00  0.00    +0.000 A 
ENDBRANCH  21  23
ENDBRANCH  16  17
ENDBRANCH   1  16
TORSDOF 6
ENDMDL
MODEL 9
REMARK VINA RESULT:    -6.958      2.452      3.683
REMARK INTER + INTRA:         -10.178
REMARK INTER:                  -9.437
REMARK INTRA:                  -0.742
REMARK UNBOUND:                -0.780
REMARK  Name = 
REMARK  7 active torsions:
REMARK  status: ('A' for Active; 'I' for Inactive)
REMARK    1  A    between atoms: C_1  and  O_2
REMARK    2  A    between atoms: O_2  and  C_3
REMARK    3  A    between atoms: C_5  and  N_6
REMARK    4  A    between atoms: N_6  and  C_7
REMARK    5  A    between atoms: C_7  and  C_8
REMARK    6  A    between atoms: C_12  and  C_13
REMARK    7  A    between atoms: C_22  and  C_23
REMARK                            x       y       z     vdW  Elec       q    Type
REMARK                         _______ _______ _______ _____ _____    ______ ____
ROOT
ATOM      1  N   UNL     1      46.567   6.403  12.409  0.00  0.00    +0.000 N 
ATOM      2  H   UNL     1      47.047   5.902  11.671  0.00  0.00    +0.000 HD
ENDROOT
BRANCH   1   5
ATOM      3  C   UNL     1      47.962   9.823  12.337  0.00  0.00    +0.000 A 
ATOM      4  C   UNL     1      47.884   8.442  12.503  0.00  0.00    +0.000 A 
ATOM      5  C   UNL     1      46.674   7.775  12.313  0.00  0.00    +0.000 A 
ATOM      6  N   UNL     1      45.556   8.440  11.963  0.00  0.00    +0.000 NA
ATOM      7  C   UNL     1      45.660   9.794  11.784  0.00  0.00    +0.000 A 
ATOM      8  C   UNL     1      46.827  10.517  11.957  0.00  0.00    +0.000 A 
BRANCH   7   9
ATOM      9  C   UNL     1      44.420  10.522  11.360  0.00  0.00    +0.000 C 
ATOM     10  N   UNL     1      43.370  10.461  12.238  0.00  0.00    +0.000 N 
ATOM     11  O   UNL     1      44.334  11.132  10.303  0.00  0.00    +0.000 OA
ATOM     12  H   UNL     1      43.469   9.949  13.102  0.00  0.00    +0.000 HD
ATOM     13  H   UNL     1      42.506  10.932  12.007  0.00  0.00    +0.000 HD
ENDBRANCH   7   9
BRANCH   3  15
ATOM     14  C   UNL     1      50.167   9.983  13.211  0.00  0.00    +0.000 C 
ATOM     15  O   UNL     1      49.086  10.584  12.504  0.00  0.00    +0.000 OA
ENDBRANCH   3  15
ENDBRANCH   1   5
BRANCH   1  16
ATOM     16  C   UNL     1      45.462   5.750  13.089  0.00  0.00    +0.000 C 
BRANCH  16  17
ATOM     17  C   UNL     1      44.879   4.607  12.282  0.00  0.00    +0.000 A 
ATOM     18  C   UNL     1      43.769   3.917  12.763  0.00  0.00    +0.000 A 
ATOM     19  C   UNL     1      43.222   2.909  11.983  0.00  0.00    +0.000 A 
ATOM     20  C   UNL     1      43.794   2.616  10.750  0.00  0.00    +0.000 A 
ATOM     21  C   UNL     1      44.902   3.343  10.316  0.00  0.00    +0.000 A 
ATOM     22  N   UNL     1      45.453   4.320  11.081  0.00  0.00    +0.000 NA
BRANCH  21  23
ATOM     23  C   UNL     1      45.535   3.106   9.006  0.00  0.00    +0.000 A 
ATOM     24  C   UNL     1      45.800   4.153   8.116  0.00  0.00    +0.000 A 
ATOM     25  N   UNL     1      46.415   4.017   6.909  0.00  0.00    +0.000 NA
ATOM     26  C   UNL     1      46.777   2.763   6.555  0.00  0.00    +0.000 A 
ATOM     27  C   UNL     1      46.540   1.657   7.345  0.00  0.00    +0.000 A 
ATOM     28  F   UNL     1      46.912   0.436   6.944  0.00  0.00    +0.000 F 
ATOM     29  C   UNL     1      45.914   1.825   8.573  0.00  0.00    +0.000 A 
ENDBRANCH  21  23
ENDBRANCH  16  17
ENDBRANCH   1  16
TORSDOF 6
ENDMDL
