MODEL 1
REMARK VINA RESULT:    -9.171      0.000      0.000
REMARK INTER + INTRA:         -12.859
REMARK INTER:                 -11.852
REMARK INTRA:                  -1.007
REMARK UNBOUND:                -1.007
REMARK  Name = 
REMARK  5 active torsions:
REMARK  status: ('A' for Active; 'I' for Inactive)
REMARK    1  A    between atoms: C_2  and  C_4
REMARK    2  A    between atoms: N_8  and  C_9
REMARK    3  A    between atoms: C_9  and  C_10
REMARK    4  A    between atoms: C_10  and  C_13
REMARK    5  A    between atoms: C_17  and  C_18
REMARK                            x       y       z     vdW  Elec       q    Type
REMARK                         _______ _______ _______ _____ _____    ______ ____
ROOT
ATOM      1  C   UNL     1      43.342   5.358  12.287  0.00  0.00    +0.000 C 
ATOM      2  F   UNL     1      42.774   6.560  11.951  0.00  0.00    +0.000 F 
ATOM      3  F   UNL     1      42.616   4.919  13.361  0.00  0.00    +0.000 F 
ENDROOT
BRANCH   1   4
ATOM      4  C   UNL     1      44.812   5.501  12.632  0.00  0.00    +0.000 A 
ATOM      5  C   UNL     1      45.475   4.464  13.299  0.00  0.00    +0.000 A 
ATOM      6  C   UNL     1      46.823   4.584  13.619  0.00  0.00    +0.000 A 
ATOM      7  C   UNL     1      47.526   5.739  13.269  0.00  0.00    +0.000 A 
ATOM      8  C   UNL     1      46.907   6.798  12.579  0.00  0.00    +0.000 A 
ATOM      9  C   UNL     1      45.535   6.658  12.280  0.00  0.00    +0.000 A 
BRANCH   8  10
ATOM     10  C   UNL     1      47.677   7.993  12.165  0.00  0.00    +0.000 A 
ATOM     11  C   UNL     1      49.033   7.938  11.810  0.00  0.00    +0.000 A 
ATOM     12  C   UNL     1      49.720   9.099  11.451  0.00  0.00    +0.000 A 
ATOM     13  C   UNL     1      49.032  10.297  11.444  0.00  0.00    +0.000 A 
ATOM     14  F   UNL     1      49.690  11.414  11.100  0.00  0.00    +0.000 F 
ATOM     15  N   UNL     1      47.732  10.413  11.765  0.00  0.00    +0.000 NA
ATOM     16  C   UNL     1      47.097   9.267  12.119  0.00  0.00    +0.000 A 
ENDBRANCH   8  10
ENDBRANCH   1   4
BRANCH   1  17
ATOM     17  C   UNL     1      43.122   4.385  11.099  0.00  0.00    +0.000 C 
BRANCH  17  22
ATOM     18  C   UNL     1      46.238   2.064   7.952  0.00  0.00    +0.000 A 
ATOM     19  C   UNL     1      46.157   3.364   7.461  0.00  0.00    +0.000 A 
ATOM     20  C   UNL     1      45.341   4.287   8.118  0.00  0.00    +0.000 A 
ATOM     21  C   UNL     1      44.630   3.904   9.257  0.00  0.00    +0.000 A 
ATOM     22  N   UNL     1      43.796   4.848   9.866  0.00  0.00    +0.000 N 
ATOM     23  N   UNL     1      44.684   2.642   9.724  0.00  0.00    +0.000 NA
ATOM     24  C   UNL     1      45.472   1.751   9.064  0.00  0.00    +0.000 A 
ATOM     25  H   UNL     1      44.284   5.730  10.004  0.00  0.00    +0.000 HD
BRANCH  18  27
ATOM     26  N   UNL     1      46.773  -0.286   7.647  0.00  0.00    +0.000 N 
ATOM     27  C   UNL     1      47.069   1.011   7.333  0.00  0.00    +0.000 C 
ATOM     28  O   UNL     1      47.961   1.284   6.543  0.00  0.00    +0.000 OA
ATOM     29  H   UNL     1      47.282  -0.999   7.138  0.00  0.00    +0.000 HD
ATOM     30  H   UNL     1      45.908  -0.559   8.090  0.00  0.00    +0.000 HD
ENDBRANCH  18  27
ENDBRANCH  17  22
ENDBRANCH   1  17
TORSDOF 5
ENDMDL
MODEL 2
REMARK VINA RESULT:    -8.998      2.785      4.162
REMARK INTER + INTRA:         -12.636
REMARK INTER:                 -11.664
REMARK INTRA:                  -0.972
REMARK UNBOUND:                -1.007
REMARK  Name = 
REMARK  5 active torsions:
REMARK  status: ('A' for Active; 'I' for Inactive)
REMARK    1  A    between atoms: C_2  and  C_4
REMARK    2  A    between atoms: N_8  and  C_9
REMARK    3  A    between atoms: C_9  and  C_10
REMARK    4  A    between atoms: C_10  and  C_13
REMARK    5  A    between atoms: C_17  and  C_18
REMARK                            x       y       z     vdW  Elec       q    Type
REMARK                         _______ _______ _______ _____ _____    ______ ____
ROOT
ATOM      1  C   UNL     1      43.549   5.303  11.965  0.00  0.00    +0.000 C 
ATOM      2  F   UNL     1      42.752   6.414  12.064  0.00  0.00    +0.000 F 
ATOM      3  F   UNL     1      42.998   4.403  12.837  0.00  0.00    +0.000 F 
ENDROOT
BRANCH   1   4
ATOM      4  C   UNL     1      44.993   5.606  12.318  0.00  0.00    +0.000 A 
ATOM      5  C   UNL     1      45.766   6.401  11.463  0.00  0.00    +0.000 A 
ATOM      6  C   UNL     1      47.090   6.686  11.776  0.00  0.00    +0.000 A 
ATOM      7  C   UNL     1      47.654   6.188  12.953  0.00  0.00    +0.000 A 
ATOM      8  C   UNL     1      46.910   5.404  13.853  0.00  0.00    +0.000 A 
ATOM      9  C   UNL     1      45.574   5.115  13.505  0.00  0.00    +0.000 A 
BRANCH   8  10
ATOM     10  C   UNL     1      47.503   4.928  15.124  0.00  0.00    +0.000 A 
ATOM     11  C   UNL     1      47.306   3.629  15.615  0.00  0.00    +0.000 A 
ATOM     12  C   UNL     1      47.867   3.238  16.832  0.00  0.00    +0.000 A 
ATOM     13  C   UNL     1      48.627   4.155  17.533  0.00  0.00    +0.000 A 
ATOM     14  F   UNL     1      49.166   3.781  18.702  0.00  0.00    +0.000 F 
ATOM     15  N   UNL     1      48.859   5.410  17.111  0.00  0.00    +0.000 NA
ATOM     16  C   UNL     1      48.291   5.761  15.930  0.00  0.00    +0.000 A 
ENDBRANCH   8  10
ENDBRANCH   1   4
BRANCH   1  17
ATOM     17  C   UNL     1      43.413   4.753  10.522  0.00  0.00    +0.000 C 
BRANCH  17  22
ATOM     18  C   UNL     1      46.565   2.525   7.343  0.00  0.00    +0.000 A 
ATOM     19  C   UNL     1      46.091   1.489   8.141  0.00  0.00    +0.000 A 
ATOM     20  C   UNL     1      45.182   1.780   9.161  0.00  0.00    +0.000 A 
ATOM     21  C   UNL     1      44.752   3.093   9.359  0.00  0.00    +0.000 A 
ATOM     22  N   UNL     1      43.868   3.348  10.413  0.00  0.00    +0.000 N 
ATOM     23  N   UNL     1      45.224   4.105   8.606  0.00  0.00    +0.000 NA
ATOM     24  C   UNL     1      46.120   3.807   7.627  0.00  0.00    +0.000 A 
ATOM     25  H   UNL     1      43.089   2.694  10.401  0.00  0.00    +0.000 HD
BRANCH  18  27
ATOM     26  N   UNL     1      47.520   3.246   5.228  0.00  0.00    +0.000 N 
ATOM     27  C   UNL     1      47.528   2.328   6.241  0.00  0.00    +0.000 C 
ATOM     28  O   UNL     1      48.327   1.403   6.249  0.00  0.00    +0.000 OA
ATOM     29  H   UNL     1      48.252   3.156   4.534  0.00  0.00    +0.000 HD
ATOM     30  H   UNL     1      47.058   4.141   5.303  0.00  0.00    +0.000 HD
ENDBRANCH  18  27
ENDBRANCH  17  22
ENDBRANCH   1  17
TORSDOF 5
ENDMDL
MODEL 3
REMARK VINA RESULT:    -8.253      2.351      2.930
REMARK INTER + INTRA:         -11.672
REMARK INTER:                 -10.814
REMARK INTRA:                  -0.858
REMARK UNBOUND:                -1.007
REMARK  Name = 
REMARK  5 active torsions:
REMARK  status: ('A' for Active; 'I' for Inactive)
REMARK    1  A    between atoms: C_2  and  C_4
REMARK    2  A    between atoms: N_8  and  C_9
REMARK    3  A    between atoms: C_9  and  C_10
REMARK    4  A    between atoms: C_10  and  C_13
REMARK    5  A    between atoms: C_17  and  C_18
REMARK                            x       y       z     vdW  Elec       q    Type
REMARK                         _______ _______ _______ _____ _____    ______ ____
ROOT
ATOM      1  C   UNL     1      43.946   5.115  12.342  0.00  0.00    +0.000 C 
ATOM      2  F   UNL     1      42.809   5.327  13.078  0.00  0.00    +0.000 F 
ATOM      3  F   UNL     1      44.558   4.052  12.948  0.00  0.00    +0.000 F 
ENDROOT
BRANCH   1   4
ATOM      4  C   UNL     1      44.845   6.337  12.321  0.00  0.00    +0.000 A 
ATOM      5  C   UNL     1      44.419   7.504  11.675  0.00  0.00    +0.000 A 
ATOM      6  C   UNL     1      45.234   8.630  11.650  0.00  0.00    +0.000 A 
ATOM      7  C   UNL     1      46.481   8.605  12.278  0.00  0.00    +0.000 A 
ATOM      8  C   UNL     1      46.942   7.463  12.959  0.00  0.00    +0.000 A 
ATOM      9  C   UNL     1      46.104   6.329  12.955  0.00  0.00    +0.000 A 
BRANCH   8  10
ATOM     10  C   UNL     1      48.243   7.468  13.668  0.00  0.00    +0.000 A 
ATOM     11  C   UNL     1      49.318   8.280  13.276  0.00  0.00    +0.000 A 
ATOM     12  C   UNL     1      50.532   8.228  13.963  0.00  0.00    +0.000 A 
ATOM     13  C   UNL     1      50.645   7.370  15.040  0.00  0.00    +0.000 A 
ATOM     14  F   UNL     1      51.810   7.319  15.701  0.00  0.00    +0.000 F 
ATOM     15  N   UNL     1      49.649   6.575  15.468  0.00  0.00    +0.000 NA
ATOM     16  C   UNL     1      48.486   6.642  14.772  0.00  0.00    +0.000 A 
ENDBRANCH   8  10
ENDBRANCH   1   4
BRANCH   1  17
ATOM     17  C   UNL     1      43.511   4.697  10.913  0.00  0.00    +0.000 C 
BRANCH  17  22
ATOM     18  C   UNL     1      46.452   2.610   7.450  0.00  0.00    +0.000 A 
ATOM     19  C   UNL     1      45.880   1.529   8.113  0.00  0.00    +0.000 A 
ATOM     20  C   UNL     1      44.998   1.771   9.169  0.00  0.00    +0.000 A 
ATOM     21  C   UNL     1      44.692   3.082   9.536  0.00  0.00    +0.000 A 
ATOM     22  N   UNL     1      43.832   3.282  10.622  0.00  0.00    +0.000 N 
ATOM     23  N   UNL     1      45.261   4.134   8.916  0.00  0.00    +0.000 NA
ATOM     24  C   UNL     1      46.129   3.881   7.900  0.00  0.00    +0.000 A 
ATOM     25  H   UNL     1      42.995   2.711  10.533  0.00  0.00    +0.000 HD
BRANCH  18  27
ATOM     26  N   UNL     1      47.280   3.352   5.290  0.00  0.00    +0.000 N 
ATOM     27  C   UNL     1      47.397   2.467   6.324  0.00  0.00    +0.000 C 
ATOM     28  O   UNL     1      48.273   1.614   6.331  0.00  0.00    +0.000 OA
ATOM     29  H   UNL     1      47.997   3.307   4.575  0.00  0.00    +0.000 HD
ATOM     30  H   UNL     1      46.744   4.206   5.356  0.00  0.00    +0.000 HD
ENDBRANCH  18  27
ENDBRANCH  17  22
ENDBRANCH   1  17
TORSDOF 5
ENDMDL
MODEL 4
REMARK VINA RESULT:    -8.212      3.896      7.276
REMARK INTER + INTRA:         -11.620
REMARK INTER:                 -10.951
REMARK INTRA:                  -0.668
REMARK UNBOUND:                -1.007
REMARK  Name = 
REMARK  5 active torsions:
REMARK  status: ('A' for Active; 'I' for Inactive)
REMARK    1  A    between atoms: C_2  and  C_4
REMARK    2  A    between atoms: N_8  and  C_9
REMARK    3  A    between atoms: C_9  and  C_10
REMARK    4  A    between atoms: C_10  and  C_13
REMARK    5  A    between atoms: C_17  and  C_18
REMARK                            x       y       z     vdW  Elec       q    Type
REMARK                         _______ _______ _______ _____ _____    ______ ____
ROOT
ATOM      1  C   UNL     1      45.901   7.580  12.009  0.00  0.00    +0.000 C 
ATOM      2  F   UNL     1      45.539   7.845  13.305  0.00  0.00    +0.000 F 
ATOM      3  F   UNL     1      45.685   8.755  11.341  0.00  0.00    +0.000 F 
ENDROOT
BRANCH   1   4
ATOM      4  C   UNL     1      45.089   6.445  11.414  0.00  0.00    +0.000 A 
ATOM      5  C   UNL     1      43.733   6.315  11.736  0.00  0.00    +0.000 A 
ATOM      6  C   UNL     1      42.979   5.280  11.196  0.00  0.00    +0.000 A 
ATOM      7  C   UNL     1      43.570   4.367  10.321  0.00  0.00    +0.000 A 
ATOM      8  C   UNL     1      44.923   4.470   9.950  0.00  0.00    +0.000 A 
ATOM      9  C   UNL     1      45.670   5.520  10.524  0.00  0.00    +0.000 A 
BRANCH   8  10
ATOM     10  C   UNL     1      45.523   3.528   8.977  0.00  0.00    +0.000 A 
ATOM     11  C   UNL     1      46.164   3.954   7.804  0.00  0.00    +0.000 A 
ATOM     12  C   UNL     1      46.691   3.023   6.906  0.00  0.00    +0.000 A 
ATOM     13  C   UNL     1      46.576   1.679   7.206  0.00  0.00    +0.000 A 
ATOM     14  F   UNL     1      47.081   0.784   6.345  0.00  0.00    +0.000 F 
ATOM     15  N   UNL     1      45.982   1.210   8.316  0.00  0.00    +0.000 NA
ATOM     16  C   UNL     1      45.471   2.141   9.162  0.00  0.00    +0.000 A 
ENDBRANCH   8  10
ENDBRANCH   1   4
BRANCH   1  17
ATOM     17  C   UNL     1      47.420   7.267  12.000  0.00  0.00    +0.000 C 
BRANCH  17  22
ATOM     18  C   UNL     1      47.818   4.476  16.129  0.00  0.00    +0.000 A 
ATOM     19  C   UNL     1      48.402   5.690  16.476  0.00  0.00    +0.000 A 
ATOM     20  C   UNL     1      48.467   6.709  15.522  0.00  0.00    +0.000 A 
ATOM     21  C   UNL     1      47.939   6.505  14.247  0.00  0.00    +0.000 A 
ATOM     22  N   UNL     1      48.055   7.537  13.309  0.00  0.00    +0.000 N 
ATOM     23  N   UNL     1      47.394   5.324  13.895  0.00  0.00    +0.000 NA
ATOM     24  C   UNL     1      47.353   4.338  14.830  0.00  0.00    +0.000 A 
ATOM     25  H   UNL     1      47.752   8.424  13.705  0.00  0.00    +0.000 HD
BRANCH  18  27
ATOM     26  N   UNL     1      48.862   2.788  17.531  0.00  0.00    +0.000 N 
ATOM     27  C   UNL     1      47.701   3.334  17.058  0.00  0.00    +0.000 C 
ATOM     28  O   UNL     1      46.611   2.915  17.421  0.00  0.00    +0.000 OA
ATOM     29  H   UNL     1      48.765   2.075  18.244  0.00  0.00    +0.000 HD
ATOM     30  H   UNL     1      49.757   3.250  17.453  0.00  0.00    +0.000 HD
ENDBRANCH  18  27
ENDBRANCH  17  22
ENDBRANCH   1  17
TORSDOF 5
ENDMDL
MODEL 5
REMARK VINA RESULT:    -8.113      4.749      7.933
REMARK INTER + INTRA:         -11.491
REMARK INTER:                 -10.782
REMARK INTRA:                  -0.709
REMARK UNBOUND:                -1.007
REMARK  Name = 
REMARK  5 active torsions:
REMARK  status: ('A' for Active; 'I' for Inactive)
REMARK    1  A    between atoms: C_2  and  C_4
REMARK    2  A    between atoms: N_8  and  C_9
REMARK    3  A    between atoms: C_9  and  C_10
REMARK    4  A    between atoms: C_10  and  C_13
REMARK    5  A    between atoms: C_17  and  C_18
REMARK                            x       y       z     vdW  Elec       q    Type
REMARK                         _______ _______ _______ _____ _____    ______ ____
ROOT
ATOM      1  C   UNL     1      45.390   5.664  12.686  0.00  0.00    +0.000 C 
ATOM      2  F   UNL     1      44.427   6.013  13.597  0.00  0.00    +0.000 F 
ATOM      3  F   UNL     1      45.617   6.804  11.965  0.00  0.00    +0.000 F 
ENDROOT
BRANCH   1   4
ATOM      4  C   UNL     1      44.940   4.523  11.793  0.00  0.00    +0.000 A 
ATOM      5  C   UNL     1      43.838   3.742  12.164  0.00  0.00    +0.000 A 
ATOM      6  C   UNL     1      43.415   2.695  11.353  0.00  0.00    +0.000 A 
ATOM      7  C   UNL     1      44.083   2.421  10.158  0.00  0.00    +0.000 A 
ATOM      8  C   UNL     1      45.181   3.191   9.733  0.00  0.00    +0.000 A 
ATOM      9  C   UNL     1      45.600   4.238  10.581  0.00  0.00    +0.000 A 
BRANCH   8  10
ATOM     10  C   UNL     1      45.846   2.925   8.437  0.00  0.00    +0.000 A 
ATOM     11  C   UNL     1      46.352   1.664   8.088  0.00  0.00    +0.000 A 
ATOM     12  C   UNL     1      46.993   1.472   6.862  0.00  0.00    +0.000 A 
ATOM     13  C   UNL     1      47.108   2.548   6.002  0.00  0.00    +0.000 A 
ATOM     14  F   UNL     1      47.725   2.365   4.826  0.00  0.00    +0.000 F 
ATOM     15  N   UNL     1      46.638   3.776   6.277  0.00  0.00    +0.000 NA
ATOM     16  C   UNL     1      46.029   3.931   7.480  0.00  0.00    +0.000 A 
ENDBRANCH   8  10
ENDBRANCH   1   4
BRANCH   1  17
ATOM     17  C   UNL     1      46.676   5.303  13.475  0.00  0.00    +0.000 C 
BRANCH  17  22
ATOM     18  C   UNL     1      48.966   4.430  17.833  0.00  0.00    +0.000 A 
ATOM     19  C   UNL     1      47.996   3.435  17.748  0.00  0.00    +0.000 A 
ATOM     20  C   UNL     1      47.156   3.402  16.633  0.00  0.00    +0.000 A 
ATOM     21  C   UNL     1      47.303   4.349  15.619  0.00  0.00    +0.000 A 
ATOM     22  N   UNL     1      46.419   4.303  14.535  0.00  0.00    +0.000 N 
ATOM     23  N   UNL     1      48.223   5.330  15.705  0.00  0.00    +0.000 NA
ATOM     24  C   UNL     1      49.023   5.358  16.804  0.00  0.00    +0.000 A 
ATOM     25  H   UNL     1      46.350   3.359  14.162  0.00  0.00    +0.000 HD
BRANCH  18  27
ATOM     26  N   UNL     1      49.431   4.240  20.210  0.00  0.00    +0.000 N 
ATOM     27  C   UNL     1      49.903   4.558  18.967  0.00  0.00    +0.000 C 
ATOM     28  O   UNL     1      51.065   4.899  18.801  0.00  0.00    +0.000 OA
ATOM     29  H   UNL     1      50.110   4.234  20.961  0.00  0.00    +0.000 HD
ATOM     30  H   UNL     1      48.572   3.729  20.356  0.00  0.00    +0.000 HD
ENDBRANCH  18  27
ENDBRANCH  17  22
ENDBRANCH   1  17
TORSDOF 5
ENDMDL
MODEL 6
REMARK VINA RESULT:    -7.739      3.255      6.761
REMARK INTER + INTRA:         -11.008
REMARK INTER:                 -10.034
REMARK INTRA:                  -0.975
REMARK UNBOUND:                -1.007
REMARK  Name = 
REMARK  5 active torsions:
REMARK  status: ('A' for Active; 'I' for Inactive)
REMARK    1  A    between atoms: C_2  and  C_4
REMARK    2  A    between atoms: N_8  and  C_9
REMARK    3  A    between atoms: C_9  and  C_10
REMARK    4  A    between atoms: C_10  and  C_13
REMARK    5  A    between atoms: C_17  and  C_18
REMARK                            x       y       z     vdW  Elec       q    Type
REMARK                         _______ _______ _______ _____ _____    ______ ____
ROOT
ATOM      1  C   UNL     1      43.635   6.126  11.639  0.00  0.00    +0.000 C 
ATOM      2  F   UNL     1      42.337   6.318  12.038  0.00  0.00    +0.000 F 
ATOM      3  F   UNL     1      43.831   7.044  10.644  0.00  0.00    +0.000 F 
ENDROOT
BRANCH   1   4
ATOM      4  C   UNL     1      43.874   4.712  11.146  0.00  0.00    +0.000 A 
ATOM      5  C   UNL     1      43.262   3.634  11.797  0.00  0.00    +0.000 A 
ATOM      6  C   UNL     1      43.472   2.334  11.353  0.00  0.00    +0.000 A 
ATOM      7  C   UNL     1      44.291   2.095  10.247  0.00  0.00    +0.000 A 
ATOM      8  C   UNL     1      44.909   3.148   9.547  0.00  0.00    +0.000 A 
ATOM      9  C   UNL     1      44.693   4.457  10.027  0.00  0.00    +0.000 A 
BRANCH   8  10
ATOM     10  C   UNL     1      45.730   2.886   8.342  0.00  0.00    +0.000 A 
ATOM     11  C   UNL     1      46.313   1.638   8.077  0.00  0.00    +0.000 A 
ATOM     12  C   UNL     1      47.100   1.450   6.939  0.00  0.00    +0.000 A 
ATOM     13  C   UNL     1      47.281   2.517   6.079  0.00  0.00    +0.000 A 
ATOM     14  F   UNL     1      48.037   2.339   4.986  0.00  0.00    +0.000 F 
ATOM     15  N   UNL     1      46.743   3.733   6.275  0.00  0.00    +0.000 NA
ATOM     16  C   UNL     1      45.992   3.884   7.395  0.00  0.00    +0.000 A 
ENDBRANCH   8  10
ENDBRANCH   1   4
BRANCH   1  17
ATOM     17  C   UNL     1      44.553   6.479  12.838  0.00  0.00    +0.000 C 
BRANCH  17  22
ATOM     18  C   UNL     1      49.035   8.418  11.763  0.00  0.00    +0.000 A 
ATOM     19  C   UNL     1      48.255   9.520  12.101  0.00  0.00    +0.000 A 
ATOM     20  C   UNL     1      46.916   9.322  12.448  0.00  0.00    +0.000 A 
ATOM     21  C   UNL     1      46.383   8.032  12.465  0.00  0.00    +0.000 A 
ATOM     22  N   UNL     1      45.029   7.880  12.784  0.00  0.00    +0.000 N 
ATOM     23  N   UNL     1      47.124   6.963  12.116  0.00  0.00    +0.000 NA
ATOM     24  C   UNL     1      48.422   7.174  11.765  0.00  0.00    +0.000 A 
ATOM     25  H   UNL     1      44.794   8.396  13.629  0.00  0.00    +0.000 HD
BRANCH  18  27
ATOM     26  N   UNL     1      51.172   7.352  11.317  0.00  0.00    +0.000 N 
ATOM     27  C   UNL     1      50.457   8.515  11.379  0.00  0.00    +0.000 C 
ATOM     28  O   UNL     1      50.969   9.588  11.090  0.00  0.00    +0.000 OA
ATOM     29  H   UNL     1      52.115   7.423  10.954  0.00  0.00    +0.000 HD
ATOM     30  H   UNL     1      50.736   6.441  11.306  0.00  0.00    +0.000 HD
ENDBRANCH  18  27
ENDBRANCH  17  22
ENDBRANCH   1  17
TORSDOF 5
ENDMDL
MODEL 7
REMARK VINA RESULT:    -7.330      3.747      7.326
REMARK INTER + INTRA:         -10.480
REMARK INTER:                  -9.668
REMARK INTRA:                  -0.812
REMARK UNBOUND:                -1.007
REMARK  Name = 
REMARK  5 active torsions:
REMARK  status: ('A' for Active; 'I' for Inactive)
REMARK    1  A    between atoms: C_2  and  C_4
REMARK    2  A    between atoms: N_8  and  C_9
REMARK    3  A    between atoms: C_9  and  C_10
REMARK    4  A    between atoms: C_10  and  C_13
REMARK    5  A    between atoms: C_17  and  C_18
REMARK                            x       y       z     vdW  Elec       q    Type
REMARK                         _______ _______ _______ _____ _____    ______ ____
ROOT
ATOM      1  C   UNL     1      44.353   6.373  11.786  0.00  0.00    +0.000 C 
ATOM      2  F   UNL     1      44.258   6.363  13.154  0.00  0.00    +0.000 F 
ATOM      3  F   UNL     1      43.290   7.126  11.369  0.00  0.00    +0.000 F 
ENDROOT
BRANCH   1   4
ATOM      4  C   UNL     1      44.304   4.973  11.204  0.00  0.00    +0.000 A 
ATOM      5  C   UNL     1      43.461   4.011  11.773  0.00  0.00    +0.000 A 
ATOM      6  C   UNL     1      43.406   2.725  11.248  0.00  0.00    +0.000 A 
ATOM      7  C   UNL     1      44.188   2.388  10.141  0.00  0.00    +0.000 A 
ATOM      8  C   UNL     1      45.034   3.326   9.522  0.00  0.00    +0.000 A 
ATOM      9  C   UNL     1      45.083   4.619  10.084  0.00  0.00    +0.000 A 
BRANCH   8  10
ATOM     10  C   UNL     1      45.816   2.971   8.315  0.00  0.00    +0.000 A 
ATOM     11  C   UNL     1      46.333   1.685   8.097  0.00  0.00    +0.000 A 
ATOM     12  C   UNL     1      47.086   1.409   6.954  0.00  0.00    +0.000 A 
ATOM     13  C   UNL     1      47.300   2.425   6.043  0.00  0.00    +0.000 A 
ATOM     14  F   UNL     1      48.024   2.162   4.945  0.00  0.00    +0.000 F 
ATOM     15  N   UNL     1      46.825   3.674   6.193  0.00  0.00    +0.000 NA
ATOM     16  C   UNL     1      46.106   3.911   7.319  0.00  0.00    +0.000 A 
ENDBRANCH   8  10
ENDBRANCH   1   4
BRANCH   1  17
ATOM     17  C   UNL     1      45.668   7.106  11.410  0.00  0.00    +0.000 C 
BRANCH  17  22
ATOM     18  C   UNL     1      49.465   7.675  14.612  0.00  0.00    +0.000 A 
ATOM     19  C   UNL     1      48.655   8.784  14.837  0.00  0.00    +0.000 A 
ATOM     20  C   UNL     1      47.492   8.939  14.080  0.00  0.00    +0.000 A 
ATOM     21  C   UNL     1      47.149   7.982  13.124  0.00  0.00    +0.000 A 
ATOM     22  N   UNL     1      45.994   8.191  12.362  0.00  0.00    +0.000 N 
ATOM     23  N   UNL     1      47.941   6.919  12.882  0.00  0.00    +0.000 NA
ATOM     24  C   UNL     1      49.078   6.791  13.617  0.00  0.00    +0.000 A 
ATOM     25  H   UNL     1      45.204   8.429  12.957  0.00  0.00    +0.000 HD
BRANCH  18  27
ATOM     26  N   UNL     1      50.698   6.421  16.288  0.00  0.00    +0.000 N 
ATOM     27  C   UNL     1      50.716   7.417  15.353  0.00  0.00    +0.000 C 
ATOM     28  O   UNL     1      51.740   8.044  15.117  0.00  0.00    +0.000 OA
ATOM     29  H   UNL     1      51.587   6.187  16.715  0.00  0.00    +0.000 HD
ATOM     30  H   UNL     1      49.963   5.730  16.339  0.00  0.00    +0.000 HD
ENDBRANCH  18  27
ENDBRANCH  17  22
ENDBRANCH   1  17
TORSDOF 5
ENDMDL
MODEL 8
REMARK VINA RESULT:    -7.213      6.530      8.066
REMARK INTER + INTRA:         -10.328
REMARK INTER:                  -9.626
REMARK INTRA:                  -0.702
REMARK UNBOUND:                -1.007
REMARK  Name = 
REMARK  5 active torsions:
REMARK  status: ('A' for Active; 'I' for Inactive)
REMARK    1  A    between atoms: C_2  and  C_4
REMARK    2  A    between atoms: N_8  and  C_9
REMARK    3  A    between atoms: C_9  and  C_10
REMARK    4  A    between atoms: C_10  and  C_13
REMARK    5  A    between atoms: C_17  and  C_18
REMARK                            x       y       z     vdW  Elec       q    Type
REMARK                         _______ _______ _______ _____ _____    ______ ____
ROOT
ATOM      1  C   UNL     1      47.739   3.909  17.213  0.00  0.00    +0.000 C 
ATOM      2  F   UNL     1      46.964   4.952  17.651  0.00  0.00    +0.000 F 
ATOM      3  F   UNL     1      47.338   2.839  17.965  0.00  0.00    +0.000 F 
ENDROOT
BRANCH   1   4
ATOM      4  C   UNL     1      49.219   4.189  17.388  0.00  0.00    +0.000 A 
ATOM      5  C   UNL     1      49.685   5.509  17.369  0.00  0.00    +0.000 A 
ATOM      6  C   UNL     1      51.039   5.778  17.530  0.00  0.00    +0.000 A 
ATOM      7  C   UNL     1      51.943   4.731  17.721  0.00  0.00    +0.000 A 
ATOM      8  C   UNL     1      51.519   3.390  17.770  0.00  0.00    +0.000 A 
ATOM      9  C   UNL     1      50.142   3.143  17.588  0.00  0.00    +0.000 A 
BRANCH   8  10
ATOM     10  C   UNL     1      52.480   2.293  18.028  0.00  0.00    +0.000 A 
ATOM     11  C   UNL     1      52.352   1.021  17.452  0.00  0.00    +0.000 A 
ATOM     12  C   UNL     1      53.272   0.013  17.749  0.00  0.00    +0.000 A 
ATOM     13  C   UNL     1      54.312   0.301  18.612  0.00  0.00    +0.000 A 
ATOM     14  F   UNL     1      55.196  -0.666  18.898  0.00  0.00    +0.000 F 
ATOM     15  N   UNL     1      54.492   1.502  19.188  0.00  0.00    +0.000 NA
ATOM     16  C   UNL     1      53.575   2.456  18.887  0.00  0.00    +0.000 A 
ENDBRANCH   8  10
ENDBRANCH   1   4
BRANCH   1  17
ATOM     17  C   UNL     1      47.376   3.645  15.728  0.00  0.00    +0.000 C 
BRANCH  17  22
ATOM     18  C   UNL     1      44.896   4.174  11.419  0.00  0.00    +0.000 A 
ATOM     19  C   UNL     1      45.002   5.469  11.917  0.00  0.00    +0.000 A 
ATOM     20  C   UNL     1      45.644   5.675  13.140  0.00  0.00    +0.000 A 
ATOM     21  C   UNL     1      46.179   4.591  13.838  0.00  0.00    +0.000 A 
ATOM     22  N   UNL     1      46.783   4.834  15.077  0.00  0.00    +0.000 N 
ATOM     23  N   UNL     1      46.058   3.332  13.376  0.00  0.00    +0.000 NA
ATOM     24  C   UNL     1      45.417   3.147  12.191  0.00  0.00    +0.000 A 
ATOM     25  H   UNL     1      47.443   5.605  15.014  0.00  0.00    +0.000 HD
BRANCH  18  27
ATOM     26  N   UNL     1      44.197   4.823   9.184  0.00  0.00    +0.000 N 
ATOM     27  C   UNL     1      44.236   3.846  10.139  0.00  0.00    +0.000 C 
ATOM     28  O   UNL     1      43.774   2.734   9.925  0.00  0.00    +0.000 OA
ATOM     29  H   UNL     1      43.834   4.553   8.278  0.00  0.00    +0.000 HD
ATOM     30  H   UNL     1      44.771   5.653   9.226  0.00  0.00    +0.000 HD
ENDBRANCH  18  27
ENDBRANCH  17  22
ENDBRANCH   1  17
TORSDOF 5
ENDMDL
MODEL 9
REMARK VINA RESULT:    -7.134      3.801      7.737
REMARK INTER + INTRA:         -10.226
REMARK INTER:                  -9.123
REMARK INTRA:                  -1.103
REMARK UNBOUND:                -1.007
REMARK  Name = 
REMARK  5 active torsions:
REMARK  status: ('A' for Active; 'I' for Inactive)
REMARK    1  A    between atoms: C_2  and  C_4
REMARK    2  A    between atoms: N_8  and  C_9
REMARK    3  A    between atoms: C_9  and  C_10
REMARK    4  A    between atoms: C_10  and  C_13
REMARK    5  A    between atoms: C_17  and  C_18
REMARK                            x       y       z     vdW  Elec       q    Type
REMARK                         _______ _______ _______ _____ _____    ______ ____
ROOT
ATOM      1  C   UNL     1      48.744   9.018  12.437  0.00  0.00    +0.000 C 
ATOM      2  F   UNL     1      48.980  10.005  13.359  0.00  0.00    +0.000 F 
ATOM      3  F   UNL     1      49.394   9.435  11.308  0.00  0.00    +0.000 F 
ENDROOT
BRANCH   1   4
ATOM      4  C   UNL     1      47.261   8.821  12.184  0.00  0.00    +0.000 A 
ATOM      5  C   UNL     1      46.440   9.933  11.961  0.00  0.00    +0.000 A 
ATOM      6  C   UNL     1      45.080   9.765  11.727  0.00  0.00    +0.000 A 
ATOM      7  C   UNL     1      44.526   8.483  11.704  0.00  0.00    +0.000 A 
ATOM      8  C   UNL     1      45.316   7.335  11.900  0.00  0.00    +0.000 A 
ATOM      9  C   UNL     1      46.690   7.533  12.152  0.00  0.00    +0.000 A 
BRANCH   8  10
ATOM     10  C   UNL     1      44.727   5.979  11.818  0.00  0.00    +0.000 A 
ATOM     11  C   UNL     1      44.829   5.174  10.673  0.00  0.00    +0.000 A 
ATOM     12  C   UNL     1      44.234   3.912  10.638  0.00  0.00    +0.000 A 
ATOM     13  C   UNL     1      43.553   3.472  11.757  0.00  0.00    +0.000 A 
ATOM     14  F   UNL     1      42.979   2.261  11.725  0.00  0.00    +0.000 F 
ATOM     15  N   UNL     1      43.427   4.193  12.885  0.00  0.00    +0.000 NA
ATOM     16  C   UNL     1      44.009   5.419  12.882  0.00  0.00    +0.000 A 
ENDBRANCH   8  10
ENDBRANCH   1   4
BRANCH   1  17
ATOM     17  C   UNL     1      49.416   7.719  12.954  0.00  0.00    +0.000 C 
BRANCH  17  22
ATOM     18  C   UNL     1      48.027   4.872  16.823  0.00  0.00    +0.000 A 
ATOM     19  C   UNL     1      48.791   5.883  17.396  0.00  0.00    +0.000 A 
ATOM     20  C   UNL     1      49.353   6.860  16.571  0.00  0.00    +0.000 A 
ATOM     21  C   UNL     1      49.134   6.819  15.193  0.00  0.00    +0.000 A 
ATOM     22  N   UNL     1      49.743   7.795  14.396  0.00  0.00    +0.000 N 
ATOM     23  N   UNL     1      48.416   5.830  14.627  0.00  0.00    +0.000 NA
ATOM     24  C   UNL     1      47.888   4.878  15.443  0.00  0.00    +0.000 A 
ATOM     25  H   UNL     1      49.585   8.725  14.776  0.00  0.00    +0.000 HD
BRANCH  18  27
ATOM     26  N   UNL     1      47.911   3.518  18.836  0.00  0.00    +0.000 N 
ATOM     27  C   UNL     1      47.391   3.791  17.603  0.00  0.00    +0.000 C 
ATOM     28  O   UNL     1      46.414   3.188  17.181  0.00  0.00    +0.000 OA
ATOM     29  H   UNL     1      47.403   2.846  19.400  0.00  0.00    +0.000 HD
ATOM     30  H   UNL     1      48.545   4.142  19.315  0.00  0.00    +0.000 HD
ENDBRANCH  18  27
ENDBRANCH  17  22
ENDBRANCH   1  17
TORSDOF 5
ENDMDL
