MODEL 1
REMARK VINA RESULT:    -8.584      0.000      0.000
REMARK INTER + INTRA:         -12.020
REMARK INTER:                 -11.093
REMARK INTRA:                  -0.928
REMARK UNBOUND:                -0.928
REMARK  Name = 
REMARK  5 active torsions:
REMARK  status: ('A' for Active; 'I' for Inactive)
REMARK    1  A    between atoms: C_2  and  C_4
REMARK    2  A    between atoms: C_7  and  N_8
REMARK    3  A    between atoms: N_8  and  C_9
REMARK    4  A    between atoms: C_9  and  C_10
REMARK    5  A    between atoms: C_14  and  C_15
REMARK                            x       y       z     vdW  Elec       q    Type
REMARK                         _______ _______ _______ _____ _____    ______ ____
ROOT
ATOM      1  N   UNL     1      43.785   4.806  10.019  0.00  0.00    +0.000 N 
ATOM      2  H   UNL     1      42.892   5.002   9.570  0.00  0.00    +0.000 HD
ENDROOT
BRANCH   1   6
ATOM      3  C   UNL     1      46.354   2.280   7.819  0.00  0.00    +0.000 A 
ATOM      4  C   UNL     1      45.457   1.717   8.730  0.00  0.00    +0.000 A 
ATOM      5  C   UNL     1      44.588   2.542   9.457  0.00  0.00    +0.000 A 
ATOM      6  C   UNL     1      44.572   3.930   9.270  0.00  0.00    +0.000 A 
ATOM      7  C   UNL     1      45.492   4.476   8.364  0.00  0.00    +0.000 A 
ATOM      8  C   UNL     1      46.380   3.665   7.648  0.00  0.00    +0.000 A 
BRANCH   3  10
ATOM      9  N   UNL     1      48.414   2.077   6.534  0.00  0.00    +0.000 N 
ATOM     10  C   UNL     1      47.321   1.445   7.057  0.00  0.00    +0.000 C 
ATOM     11  O   UNL     1      47.167   0.238   6.930  0.00  0.00    +0.000 OA
ATOM     12  H   UNL     1      49.112   1.480   6.108  0.00  0.00    +0.000 HD
ATOM     13  H   UNL     1      48.703   2.997   6.833  0.00  0.00    +0.000 HD
ENDBRANCH   3  10
ENDBRANCH   1   6
BRANCH   1  14
ATOM     14  C   UNL     1      43.705   4.674  11.462  0.00  0.00    +0.000 C 
BRANCH  14  15
ATOM     15  C   UNL     1      45.061   4.884  12.087  0.00  0.00    +0.000 A 
ATOM     16  C   UNL     1      45.579   3.986  13.018  0.00  0.00    +0.000 A 
ATOM     17  C   UNL     1      46.809   4.265  13.588  0.00  0.00    +0.000 A 
ATOM     18  N   UNL     1      47.538   5.370  13.309  0.00  0.00    +0.000 NA
ATOM     19  C   UNL     1      47.028   6.257  12.418  0.00  0.00    +0.000 A 
ATOM     20  C   UNL     1      45.807   6.028  11.784  0.00  0.00    +0.000 A 
BRANCH  19  21
ATOM     21  C   UNL     1      47.826   7.470  12.176  0.00  0.00    +0.000 A 
ATOM     22  C   UNL     1      49.211   7.433  11.941  0.00  0.00    +0.000 A 
ATOM     23  C   UNL     1      49.933   8.607  11.741  0.00  0.00    +0.000 A 
ATOM     24  C   UNL     1      49.250   9.808  11.767  0.00  0.00    +0.000 A 
ATOM     25  N   UNL     1      47.920   9.904  11.970  0.00  0.00    +0.000 NA
ATOM     26  C   UNL     1      47.245   8.738  12.159  0.00  0.00    +0.000 A 
ENDBRANCH  19  21
ENDBRANCH  14  15
ENDBRANCH   1  14
TORSDOF 5
ENDMDL
MODEL 2
REMARK VINA RESULT:    -8.353      1.789      3.369
REMARK INTER + INTRA:         -11.722
REMARK INTER:                 -10.854
REMARK INTRA:                  -0.868
REMARK UNBOUND:                -0.928
REMARK  Name = 
REMARK  5 active torsions:
REMARK  status: ('A' for Active; 'I' for Inactive)
REMARK    1  A    between atoms: C_2  and  C_4
REMARK    2  A    between atoms: C_7  and  N_8
REMARK    3  A    between atoms: N_8  and  C_9
REMARK    4  A    between atoms: C_9  and  C_10
REMARK    5  A    between atoms: C_14  and  C_15
REMARK                            x       y       z     vdW  Elec       q    Type
REMARK                         _______ _______ _______ _____ _____    ______ ____
ROOT
ATOM      1  N   UNL     1      43.897   5.052   9.866  0.00  0.00    +0.000 N 
ATOM      2  H   UNL     1      43.020   5.275   9.400  0.00  0.00    +0.000 HD
ENDROOT
BRANCH   1   6
ATOM      3  C   UNL     1      46.178   2.026   8.005  0.00  0.00    +0.000 A 
ATOM      4  C   UNL     1      45.225   1.673   8.964  0.00  0.00    +0.000 A 
ATOM      5  C   UNL     1      44.451   2.665   9.580  0.00  0.00    +0.000 A 
ATOM      6  C   UNL     1      44.585   4.015   9.233  0.00  0.00    +0.000 A 
ATOM      7  C   UNL     1      45.557   4.350   8.282  0.00  0.00    +0.000 A 
ATOM      8  C   UNL     1      46.353   3.371   7.675  0.00  0.00    +0.000 A 
BRANCH   3  10
ATOM      9  N   UNL     1      46.765  -0.304   7.605  0.00  0.00    +0.000 N 
ATOM     10  C   UNL     1      47.048   1.010   7.357  0.00  0.00    +0.000 C 
ATOM     11  O   UNL     1      47.960   1.330   6.607  0.00  0.00    +0.000 OA
ATOM     12  H   UNL     1      47.300  -0.982   7.077  0.00  0.00    +0.000 HD
ATOM     13  H   UNL     1      45.883  -0.603   7.996  0.00  0.00    +0.000 HD
ENDBRANCH   3  10
ENDBRANCH   1   6
BRANCH   1  14
ATOM     14  C   UNL     1      43.828   5.114  11.314  0.00  0.00    +0.000 C 
BRANCH  14  15
ATOM     15  C   UNL     1      45.109   5.673  11.880  0.00  0.00    +0.000 A 
ATOM     16  C   UNL     1      45.837   6.651  11.205  0.00  0.00    +0.000 A 
ATOM     17  C   UNL     1      47.029   7.084  11.758  0.00  0.00    +0.000 A 
ATOM     18  N   UNL     1      47.545   6.604  12.913  0.00  0.00    +0.000 NA
ATOM     19  C   UNL     1      46.850   5.638  13.564  0.00  0.00    +0.000 A 
ATOM     20  C   UNL     1      45.627   5.172  13.080  0.00  0.00    +0.000 A 
BRANCH  19  21
ATOM     21  C   UNL     1      47.464   5.106  14.791  0.00  0.00    +0.000 A 
ATOM     22  C   UNL     1      47.180   3.822  15.287  0.00  0.00    +0.000 A 
ATOM     23  C   UNL     1      47.765   3.367  16.466  0.00  0.00    +0.000 A 
ATOM     24  C   UNL     1      48.641   4.205  17.129  0.00  0.00    +0.000 A 
ATOM     25  N   UNL     1      48.965   5.438  16.691  0.00  0.00    +0.000 NA
ATOM     26  C   UNL     1      48.379   5.851  15.535  0.00  0.00    +0.000 A 
ENDBRANCH  19  21
ENDBRANCH  14  15
ENDBRANCH   1  14
TORSDOF 5
ENDMDL
MODEL 3
REMARK VINA RESULT:    -7.909      1.915      2.408
REMARK INTER + INTRA:         -11.149
REMARK INTER:                 -10.340
REMARK INTRA:                  -0.809
REMARK UNBOUND:                -0.928
REMARK  Name = 
REMARK  5 active torsions:
REMARK  status: ('A' for Active; 'I' for Inactive)
REMARK    1  A    between atoms: C_2  and  C_4
REMARK    2  A    between atoms: C_7  and  N_8
REMARK    3  A    between atoms: N_8  and  C_9
REMARK    4  A    between atoms: C_9  and  C_10
REMARK    5  A    between atoms: C_14  and  C_15
REMARK                            x       y       z     vdW  Elec       q    Type
REMARK                         _______ _______ _______ _____ _____    ______ ____
ROOT
ATOM      1  N   UNL     1      43.790   3.676  10.552  0.00  0.00    +0.000 N 
ATOM      2  H   UNL     1      42.829   3.367  10.421  0.00  0.00    +0.000 HD
ENDROOT
BRANCH   1   6
ATOM      3  C   UNL     1      46.480   2.574   7.490  0.00  0.00    +0.000 A 
ATOM      4  C   UNL     1      45.926   1.583   8.305  0.00  0.00    +0.000 A 
ATOM      5  C   UNL     1      45.022   1.932   9.316  0.00  0.00    +0.000 A 
ATOM      6  C   UNL     1      44.627   3.261   9.515  0.00  0.00    +0.000 A 
ATOM      7  C   UNL     1      45.206   4.242   8.699  0.00  0.00    +0.000 A 
ATOM      8  C   UNL     1      46.128   3.908   7.699  0.00  0.00    +0.000 A 
BRANCH   3  10
ATOM      9  N   UNL     1      47.456   3.021   5.304  0.00  0.00    +0.000 N 
ATOM     10  C   UNL     1      47.474   2.251   6.433  0.00  0.00    +0.000 C 
ATOM     11  O   UNL     1      48.298   1.358   6.577  0.00  0.00    +0.000 OA
ATOM     12  H   UNL     1      48.203   2.856   4.641  0.00  0.00    +0.000 HD
ATOM     13  H   UNL     1      46.979   3.910   5.262  0.00  0.00    +0.000 HD
ENDBRANCH   3  10
ENDBRANCH   1   6
BRANCH   1  14
ATOM     14  C   UNL     1      44.245   3.626  11.930  0.00  0.00    +0.000 C 
BRANCH  14  15
ATOM     15  C   UNL     1      45.113   4.817  12.244  0.00  0.00    +0.000 A 
ATOM     16  C   UNL     1      46.263   4.695  13.021  0.00  0.00    +0.000 A 
ATOM     17  C   UNL     1      46.987   5.838  13.311  0.00  0.00    +0.000 A 
ATOM     18  N   UNL     1      46.639   7.078  12.898  0.00  0.00    +0.000 NA
ATOM     19  C   UNL     1      45.509   7.205  12.157  0.00  0.00    +0.000 A 
ATOM     20  C   UNL     1      44.744   6.093  11.804  0.00  0.00    +0.000 A 
BRANCH  19  21
ATOM     21  C   UNL     1      45.135   8.574  11.767  0.00  0.00    +0.000 A 
ATOM     22  C   UNL     1      45.896   9.700  12.126  0.00  0.00    +0.000 A 
ATOM     23  C   UNL     1      45.493  10.981  11.756  0.00  0.00    +0.000 A 
ATOM     24  C   UNL     1      44.333  11.115  11.017  0.00  0.00    +0.000 A 
ATOM     25  N   UNL     1      43.573  10.071  10.629  0.00  0.00    +0.000 NA
ATOM     26  C   UNL     1      43.996   8.834  11.004  0.00  0.00    +0.000 A 
ENDBRANCH  19  21
ENDBRANCH  14  15
ENDBRANCH   1  14
TORSDOF 5
ENDMDL
MODEL 4
REMARK VINA RESULT:    -7.790      2.591      6.510
REMARK INTER + INTRA:         -10.995
REMARK INTER:                 -10.053
REMARK INTRA:                  -0.942
REMARK UNBOUND:                -0.928
REMARK  Name = 
REMARK  5 active torsions:
REMARK  status: ('A' for Active; 'I' for Inactive)
REMARK    1  A    between atoms: C_2  and  C_4
REMARK    2  A    between atoms: C_7  and  N_8
REMARK    3  A    between atoms: N_8  and  C_9
REMARK    4  A    between atoms: C_9  and  C_10
REMARK    5  A    between atoms: C_14  and  C_15
REMARK                            x       y       z     vdW  Elec       q    Type
REMARK                         _______ _______ _______ _____ _____    ______ ____
ROOT
ATOM      1  N   UNL     1      44.045   6.688  12.499  0.00  0.00    +0.000 N 
ATOM      2  H   UNL     1      43.604   7.442  13.022  0.00  0.00    +0.000 HD
ENDROOT
BRANCH   1   6
ATOM      3  C   UNL     1      48.235   7.196  12.608  0.00  0.00    +0.000 A 
ATOM      4  C   UNL     1      47.678   6.003  13.074  0.00  0.00    +0.000 A 
ATOM      5  C   UNL     1      46.290   5.814  13.031  0.00  0.00    +0.000 A 
ATOM      6  C   UNL     1      45.437   6.789  12.498  0.00  0.00    +0.000 A 
ATOM      7  C   UNL     1      46.014   7.985  12.051  0.00  0.00    +0.000 A 
ATOM      8  C   UNL     1      47.397   8.195  12.109  0.00  0.00    +0.000 A 
BRANCH   3  10
ATOM      9  N   UNL     1      50.285   7.409  13.907  0.00  0.00    +0.000 N 
ATOM     10  C   UNL     1      49.698   7.454  12.673  0.00  0.00    +0.000 C 
ATOM     11  O   UNL     1      50.359   7.663  11.665  0.00  0.00    +0.000 OA
ATOM     12  H   UNL     1      51.294   7.485  13.923  0.00  0.00    +0.000 HD
ATOM     13  H   UNL     1      49.833   6.992  14.707  0.00  0.00    +0.000 HD
ENDBRANCH   3  10
ENDBRANCH   1   6
BRANCH   1  14
ATOM     14  C   UNL     1      43.333   6.310  11.292  0.00  0.00    +0.000 C 
BRANCH  14  15
ATOM     15  C   UNL     1      43.595   4.864  10.956  0.00  0.00    +0.000 A 
ATOM     16  C   UNL     1      43.112   3.832  11.757  0.00  0.00    +0.000 A 
ATOM     17  C   UNL     1      43.430   2.529  11.416  0.00  0.00    +0.000 A 
ATOM     18  N   UNL     1      44.199   2.192  10.356  0.00  0.00    +0.000 NA
ATOM     19  C   UNL     1      44.689   3.195   9.584  0.00  0.00    +0.000 A 
ATOM     20  C   UNL     1      44.386   4.530   9.851  0.00  0.00    +0.000 A 
BRANCH  19  21
ATOM     21  C   UNL     1      45.560   2.793   8.468  0.00  0.00    +0.000 A 
ATOM     22  C   UNL     1      45.924   3.674   7.435  0.00  0.00    +0.000 A 
ATOM     23  C   UNL     1      46.732   3.246   6.384  0.00  0.00    +0.000 A 
ATOM     24  C   UNL     1      47.175   1.937   6.389  0.00  0.00    +0.000 A 
ATOM     25  N   UNL     1      46.873   1.053   7.362  0.00  0.00    +0.000 NA
ATOM     26  C   UNL     1      46.086   1.504   8.375  0.00  0.00    +0.000 A 
ENDBRANCH  19  21
ENDBRANCH  14  15
ENDBRANCH   1  14
TORSDOF 5
ENDMDL
MODEL 5
REMARK VINA RESULT:    -7.784      1.792      2.391
REMARK INTER + INTRA:         -10.987
REMARK INTER:                 -10.229
REMARK INTRA:                  -0.759
REMARK UNBOUND:                -0.928
REMARK  Name = 
REMARK  5 active torsions:
REMARK  status: ('A' for Active; 'I' for Inactive)
REMARK    1  A    between atoms: C_2  and  C_4
REMARK    2  A    between atoms: C_7  and  N_8
REMARK    3  A    between atoms: N_8  and  C_9
REMARK    4  A    between atoms: C_9  and  C_10
REMARK    5  A    between atoms: C_14  and  C_15
REMARK                            x       y       z     vdW  Elec       q    Type
REMARK                         _______ _______ _______ _____ _____    ______ ____
ROOT
ATOM      1  N   UNL     1      43.995   3.926  10.592  0.00  0.00    +0.000 N 
ATOM      2  H   UNL     1      43.036   3.588  10.532  0.00  0.00    +0.000 HD
ENDROOT
BRANCH   1   6
ATOM      3  C   UNL     1      46.552   2.697   7.466  0.00  0.00    +0.000 A 
ATOM      4  C   UNL     1      45.970   1.733   8.293  0.00  0.00    +0.000 A 
ATOM      5  C   UNL     1      45.108   2.125   9.326  0.00  0.00    +0.000 A 
ATOM      6  C   UNL     1      44.785   3.472   9.535  0.00  0.00    +0.000 A 
ATOM      7  C   UNL     1      45.392   4.424   8.705  0.00  0.00    +0.000 A 
ATOM      8  C   UNL     1      46.272   4.047   7.684  0.00  0.00    +0.000 A 
BRANCH   3  10
ATOM      9  N   UNL     1      47.407   3.014   5.207  0.00  0.00    +0.000 N 
ATOM     10  C   UNL     1      47.504   2.327   6.385  0.00  0.00    +0.000 C 
ATOM     11  O   UNL     1      48.361   1.470   6.549  0.00  0.00    +0.000 OA
ATOM     12  H   UNL     1      48.125   2.822   4.520  0.00  0.00    +0.000 HD
ATOM     13  H   UNL     1      46.900   3.883   5.127  0.00  0.00    +0.000 HD
ENDBRANCH   3  10
ENDBRANCH   1   6
BRANCH   1  14
ATOM     14  C   UNL     1      44.524   3.966  11.943  0.00  0.00    +0.000 C 
BRANCH  14  15
ATOM     15  C   UNL     1      45.091   5.329  12.249  0.00  0.00    +0.000 A 
ATOM     16  C   UNL     1      44.501   6.490  11.751  0.00  0.00    +0.000 A 
ATOM     17  C   UNL     1      45.101   7.705  12.031  0.00  0.00    +0.000 A 
ATOM     18  N   UNL     1      46.240   7.838  12.748  0.00  0.00    +0.000 NA
ATOM     19  C   UNL     1      46.829   6.710  13.218  0.00  0.00    +0.000 A 
ATOM     20  C   UNL     1      46.266   5.452  12.998  0.00  0.00    +0.000 A 
BRANCH  19  21
ATOM     21  C   UNL     1      48.091   6.889  13.952  0.00  0.00    +0.000 A 
ATOM     22  C   UNL     1      49.114   7.743  13.505  0.00  0.00    +0.000 A 
ATOM     23  C   UNL     1      50.304   7.865  14.218  0.00  0.00    +0.000 A 
ATOM     24  C   UNL     1      50.449   7.134  15.382  0.00  0.00    +0.000 A 
ATOM     25  N   UNL     1      49.495   6.314  15.869  0.00  0.00    +0.000 NA
ATOM     26  C   UNL     1      48.344   6.220  15.150  0.00  0.00    +0.000 A 
ENDBRANCH  19  21
ENDBRANCH  14  15
ENDBRANCH   1  14
TORSDOF 5
ENDMDL
MODEL 6
REMARK VINA RESULT:    -7.434      2.763      6.850
REMARK INTER + INTRA:         -10.535
REMARK INTER:                  -9.747
REMARK INTRA:                  -0.788
REMARK UNBOUND:                -0.928
REMARK  Name = 
REMARK  5 active torsions:
REMARK  status: ('A' for Active; 'I' for Inactive)
REMARK    1  A    between atoms: C_2  and  C_4
REMARK    2  A    between atoms: C_7  and  N_8
REMARK    3  A    between atoms: N_8  and  C_9
REMARK    4  A    between atoms: C_9  and  C_10
REMARK    5  A    between atoms: C_14  and  C_15
REMARK                            x       y       z     vdW  Elec       q    Type
REMARK                         _______ _______ _______ _____ _____    ______ ____
ROOT
ATOM      1  N   UNL     1      44.458   6.817  12.503  0.00  0.00    +0.000 N 
ATOM      2  H   UNL     1      43.980   7.219  13.307  0.00  0.00    +0.000 HD
ENDROOT
BRANCH   1   6
ATOM      3  C   UNL     1      48.194   8.719  12.008  0.00  0.00    +0.000 A 
ATOM      4  C   UNL     1      48.076   7.357  11.720  0.00  0.00    +0.000 A 
ATOM      5  C   UNL     1      46.840   6.715  11.867  0.00  0.00    +0.000 A 
ATOM      6  C   UNL     1      45.696   7.417  12.268  0.00  0.00    +0.000 A 
ATOM      7  C   UNL     1      45.839   8.779  12.567  0.00  0.00    +0.000 A 
ATOM      8  C   UNL     1      47.074   9.427  12.446  0.00  0.00    +0.000 A 
BRANCH   3  10
ATOM      9  N   UNL     1      49.514  10.601  11.201  0.00  0.00    +0.000 N 
ATOM     10  C   UNL     1      49.496   9.430  11.905  0.00  0.00    +0.000 C 
ATOM     11  O   UNL     1      50.504   9.007  12.455  0.00  0.00    +0.000 OA
ATOM     12  H   UNL     1      50.381  11.123  11.227  0.00  0.00    +0.000 HD
ATOM     13  H   UNL     1      48.671  11.103  10.963  0.00  0.00    +0.000 HD
ENDBRANCH   3  10
ENDBRANCH   1   6
BRANCH   1  14
ATOM     14  C   UNL     1      43.579   6.484  11.398  0.00  0.00    +0.000 C 
BRANCH  14  15
ATOM     15  C   UNL     1      43.716   5.028  11.033  0.00  0.00    +0.000 A 
ATOM     16  C   UNL     1      43.137   4.026  11.809  0.00  0.00    +0.000 A 
ATOM     17  C   UNL     1      43.344   2.707  11.443  0.00  0.00    +0.000 A 
ATOM     18  N   UNL     1      44.090   2.326  10.382  0.00  0.00    +0.000 NA
ATOM     19  C   UNL     1      44.672   3.297   9.635  0.00  0.00    +0.000 A 
ATOM     20  C   UNL     1      44.486   4.648   9.928  0.00  0.00    +0.000 A 
BRANCH  19  21
ATOM     21  C   UNL     1      45.516   2.844   8.517  0.00  0.00    +0.000 A 
ATOM     22  C   UNL     1      45.898   3.690   7.463  0.00  0.00    +0.000 A 
ATOM     23  C   UNL     1      46.677   3.214   6.411  0.00  0.00    +0.000 A 
ATOM     24  C   UNL     1      47.075   1.891   6.437  0.00  0.00    +0.000 A 
ATOM     25  N   UNL     1      46.753   1.037   7.431  0.00  0.00    +0.000 NA
ATOM     26  C   UNL     1      45.995   1.535   8.444  0.00  0.00    +0.000 A 
ENDBRANCH  19  21
ENDBRANCH  14  15
ENDBRANCH   1  14
TORSDOF 5
ENDMDL
MODEL 7
REMARK VINA RESULT:    -6.958      3.495      7.426
REMARK INTER + INTRA:          -9.919
REMARK INTER:                  -9.187
REMARK INTRA:                  -0.731
REMARK UNBOUND:                -0.928
REMARK  Name = 
REMARK  5 active torsions:
REMARK  status: ('A' for Active; 'I' for Inactive)
REMARK    1  A    between atoms: C_2  and  C_4
REMARK    2  A    between atoms: C_7  and  N_8
REMARK    3  A    between atoms: N_8  and  C_9
REMARK    4  A    between atoms: C_9  and  C_10
REMARK    5  A    between atoms: C_14  and  C_15
REMARK                            x       y       z     vdW  Elec       q    Type
REMARK                         _______ _______ _______ _____ _____    ______ ____
ROOT
ATOM      1  N   UNL     1      47.072   6.460  12.893  0.00  0.00    +0.000 N 
ATOM      2  H   UNL     1      47.468   5.986  12.084  0.00  0.00    +0.000 HD
ENDROOT
BRANCH   1   6
ATOM      3  C   UNL     1      48.084   4.787  16.635  0.00  0.00    +0.000 A 
ATOM      4  C   UNL     1      47.172   4.122  15.812  0.00  0.00    +0.000 A 
ATOM      5  C   UNL     1      46.836   4.658  14.562  0.00  0.00    +0.000 A 
ATOM      6  C   UNL     1      47.423   5.841  14.094  0.00  0.00    +0.000 A 
ATOM      7  C   UNL     1      48.323   6.501  14.941  0.00  0.00    +0.000 A 
ATOM      8  C   UNL     1      48.650   5.987  16.202  0.00  0.00    +0.000 A 
BRANCH   3  10
ATOM      9  N   UNL     1      47.870   3.092  18.371  0.00  0.00    +0.000 N 
ATOM     10  C   UNL     1      48.436   4.274  17.985  0.00  0.00    +0.000 C 
ATOM     11  O   UNL     1      49.225   4.864  18.711  0.00  0.00    +0.000 OA
ATOM     12  H   UNL     1      48.198   2.706  19.248  0.00  0.00    +0.000 HD
ATOM     13  H   UNL     1      47.433   2.461  17.715  0.00  0.00    +0.000 HD
ENDBRANCH   3  10
ENDBRANCH   1   6
BRANCH   1  14
ATOM     14  C   UNL     1      45.724   6.957  12.687  0.00  0.00    +0.000 C 
BRANCH  14  15
ATOM     15  C   UNL     1      44.930   5.993  11.843  0.00  0.00    +0.000 A 
ATOM     16  C   UNL     1      43.575   5.767  12.078  0.00  0.00    +0.000 A 
ATOM     17  C   UNL     1      42.918   4.833  11.295  0.00  0.00    +0.000 A 
ATOM     18  N   UNL     1      43.515   4.111  10.320  0.00  0.00    +0.000 NA
ATOM     19  C   UNL     1      44.838   4.314  10.101  0.00  0.00    +0.000 A 
ATOM     20  C   UNL     1      45.558   5.258  10.832  0.00  0.00    +0.000 A 
BRANCH  19  21
ATOM     21  C   UNL     1      45.464   3.476   9.065  0.00  0.00    +0.000 A 
ATOM     22  C   UNL     1      46.049   4.013   7.906  0.00  0.00    +0.000 A 
ATOM     23  C   UNL     1      46.609   3.182   6.938  0.00  0.00    +0.000 A 
ATOM     24  C   UNL     1      46.585   1.817   7.153  0.00  0.00    +0.000 A 
ATOM     25  N   UNL     1      46.054   1.247   8.254  0.00  0.00    +0.000 NA
ATOM     26  C   UNL     1      45.518   2.086   9.180  0.00  0.00    +0.000 A 
ENDBRANCH  19  21
ENDBRANCH  14  15
ENDBRANCH   1  14
TORSDOF 5
ENDMDL
MODEL 8
REMARK VINA RESULT:    -6.944      2.721      6.694
REMARK INTER + INTRA:          -9.901
REMARK INTER:                  -9.121
REMARK INTRA:                  -0.781
REMARK UNBOUND:                -0.928
REMARK  Name = 
REMARK  5 active torsions:
REMARK  status: ('A' for Active; 'I' for Inactive)
REMARK    1  A    between atoms: C_2  and  C_4
REMARK    2  A    between atoms: C_7  and  N_8
REMARK    3  A    between atoms: N_8  and  C_9
REMARK    4  A    between atoms: C_9  and  C_10
REMARK    5  A    between atoms: C_14  and  C_15
REMARK                            x       y       z     vdW  Elec       q    Type
REMARK                         _______ _______ _______ _____ _____    ______ ____
ROOT
ATOM      1  N   UNL     1      45.736   5.991  13.431  0.00  0.00    +0.000 N 
ATOM      2  H   UNL     1      44.934   6.362  12.925  0.00  0.00    +0.000 HD
ENDROOT
BRANCH   1   6
ATOM      3  C   UNL     1      49.441   7.768  12.461  0.00  0.00    +0.000 A 
ATOM      4  C   UNL     1      48.387   7.838  11.545  0.00  0.00    +0.000 A 
ATOM      5  C   UNL     1      47.148   7.265  11.859  0.00  0.00    +0.000 A 
ATOM      6  C   UNL     1      46.923   6.644  13.094  0.00  0.00    +0.000 A 
ATOM      7  C   UNL     1      47.996   6.570  13.991  0.00  0.00    +0.000 A 
ATOM      8  C   UNL     1      49.246   7.119  13.681  0.00  0.00    +0.000 A 
BRANCH   3  10
ATOM      9  N   UNL     1      51.772   8.120  13.072  0.00  0.00    +0.000 N 
ATOM     10  C   UNL     1      50.784   8.326  12.151  0.00  0.00    +0.000 C 
ATOM     11  O   UNL     1      51.008   8.917  11.104  0.00  0.00    +0.000 OA
ATOM     12  H   UNL     1      52.702   8.416  12.801  0.00  0.00    +0.000 HD
ATOM     13  H   UNL     1      51.694   7.430  13.805  0.00  0.00    +0.000 HD
ENDBRANCH   3  10
ENDBRANCH   1   6
BRANCH   1  14
ATOM     14  C   UNL     1      45.712   4.550  13.603  0.00  0.00    +0.000 C 
BRANCH  14  15
ATOM     15  C   UNL     1      45.002   3.892  12.447  0.00  0.00    +0.000 A 
ATOM     16  C   UNL     1      43.743   3.314  12.601  0.00  0.00    +0.000 A 
ATOM     17  C   UNL     1      43.170   2.684  11.510  0.00  0.00    +0.000 A 
ATOM     18  N   UNL     1      43.765   2.579  10.300  0.00  0.00    +0.000 NA
ATOM     19  C   UNL     1      44.999   3.123  10.151  0.00  0.00    +0.000 A 
ATOM     20  C   UNL     1      45.626   3.797  11.199  0.00  0.00    +0.000 A 
BRANCH  19  21
ATOM     21  C   UNL     1      45.635   2.948   8.835  0.00  0.00    +0.000 A 
ATOM     22  C   UNL     1      46.073   1.698   8.364  0.00  0.00    +0.000 A 
ATOM     23  C   UNL     1      46.693   1.581   7.123  0.00  0.00    +0.000 A 
ATOM     24  C   UNL     1      46.855   2.722   6.361  0.00  0.00    +0.000 A 
ATOM     25  N   UNL     1      46.439   3.943   6.752  0.00  0.00    +0.000 NA
ATOM     26  C   UNL     1      45.835   4.023   7.968  0.00  0.00    +0.000 A 
ENDBRANCH  19  21
ENDBRANCH  14  15
ENDBRANCH   1  14
TORSDOF 5
ENDMDL
MODEL 9
REMARK VINA RESULT:    -6.683      4.147      8.087
REMARK INTER + INTRA:          -9.564
REMARK INTER:                  -9.094
REMARK INTRA:                  -0.471
REMARK UNBOUND:                -0.928
REMARK  Name = 
REMARK  5 active torsions:
REMARK  status: ('A' for Active; 'I' for Inactive)
REMARK    1  A    between atoms: C_2  and  C_4
REMARK    2  A    between atoms: C_7  and  N_8
REMARK    3  A    between atoms: N_8  and  C_9
REMARK    4  A    between atoms: C_9  and  C_10
REMARK    5  A    between atoms: C_14  and  C_15
REMARK                            x       y       z     vdW  Elec       q    Type
REMARK                         _______ _______ _______ _____ _____    ______ ____
ROOT
ATOM      1  N   UNL     1      46.438   3.950  14.487  0.00  0.00    +0.000 N 
ATOM      2  H   UNL     1      45.889   3.119  14.698  0.00  0.00    +0.000 HD
ENDROOT
BRANCH   1   6
ATOM      3  C   UNL     1      48.789   5.054  17.814  0.00  0.00    +0.000 A 
ATOM      4  C   UNL     1      48.813   5.849  16.665  0.00  0.00    +0.000 A 
ATOM      5  C   UNL     1      48.027   5.503  15.558  0.00  0.00    +0.000 A 
ATOM      6  C   UNL     1      47.183   4.385  15.583  0.00  0.00    +0.000 A 
ATOM      7  C   UNL     1      47.187   3.592  16.739  0.00  0.00    +0.000 A 
ATOM      8  C   UNL     1      47.984   3.915  17.843  0.00  0.00    +0.000 A 
BRANCH   3  10
ATOM      9  N   UNL     1      49.648   4.449  20.012  0.00  0.00    +0.000 N 
ATOM     10  C   UNL     1      49.638   5.363  18.995  0.00  0.00    +0.000 C 
ATOM     11  O   UNL     1      50.326   6.373  19.046  0.00  0.00    +0.000 OA
ATOM     12  H   UNL     1      50.308   4.623  20.760  0.00  0.00    +0.000 HD
ATOM     13  H   UNL     1      49.309   3.505  19.895  0.00  0.00    +0.000 HD
ENDBRANCH   3  10
ENDBRANCH   1   6
BRANCH   1  14
ATOM     14  C   UNL     1      45.758   4.905  13.632  0.00  0.00    +0.000 C 
BRANCH  14  15
ATOM     15  C   UNL     1      45.023   4.195  12.524  0.00  0.00    +0.000 A 
ATOM     16  C   UNL     1      43.769   3.624  12.733  0.00  0.00    +0.000 A 
ATOM     17  C   UNL     1      43.172   2.945  11.685  0.00  0.00    +0.000 A 
ATOM     18  N   UNL     1      43.739   2.785  10.468  0.00  0.00    +0.000 NA
ATOM     19  C   UNL     1      44.968   3.321  10.266  0.00  0.00    +0.000 A 
ATOM     20  C   UNL     1      45.618   4.043  11.268  0.00  0.00    +0.000 A 
BRANCH  19  21
ATOM     21  C   UNL     1      45.574   3.086   8.946  0.00  0.00    +0.000 A 
ATOM     22  C   UNL     1      45.977   1.811   8.512  0.00  0.00    +0.000 A 
ATOM     23  C   UNL     1      46.570   1.636   7.264  0.00  0.00    +0.000 A 
ATOM     24  C   UNL     1      46.741   2.745   6.459  0.00  0.00    +0.000 A 
ATOM     25  N   UNL     1      46.358   3.989   6.814  0.00  0.00    +0.000 NA
ATOM     26  C   UNL     1      45.780   4.124   8.038  0.00  0.00    +0.000 A 
ENDBRANCH  19  21
ENDBRANCH  14  15
ENDBRANCH   1  14
TORSDOF 5
ENDMDL
