MODEL 1
REMARK VINA RESULT:    -7.627      0.000      0.000
REMARK INTER + INTRA:          -9.969
REMARK INTER:                  -9.633
REMARK INTRA:                  -0.335
REMARK UNBOUND:                -0.335
REMARK  Name = 
REMARK  5 active torsions:
REMARK  status: ('A' for Active; 'I' for Inactive)
REMARK    1  A    between atoms: N_1  and  C_2
REMARK    2  A    between atoms: C_2  and  C_3
REMARK    3  A    between atoms: C_6  and  C_7
REMARK    4  A    between atoms: C_7  and  N_8
REMARK    5  A    between atoms: C_13  and  C_14
REMARK                            x       y       z     vdW  Elec       q    Type
REMARK                         _______ _______ _______ _____ _____    ______ ____
ROOT
ATOM      1  N   UNL     1      43.996   4.287  10.702  0.00  0.00    +0.000 N 
ATOM      2  C   UNL     1      43.452   3.097  11.107  0.00  0.00    +0.000 A 
ATOM      3  N   UNL     1      43.907   2.087  10.404  0.00  0.00    +0.000 NA
ATOM      4  C   UNL     1      44.767   2.644   9.494  0.00  0.00    +0.000 A 
ATOM      5  C   UNL     1      45.474   2.017   8.454  0.00  0.00    +0.000 A 
ATOM      6  C   UNL     1      46.273   2.803   7.613  0.00  0.00    +0.000 A 
ATOM      7  C   UNL     1      46.394   4.182   7.851  0.00  0.00    +0.000 A 
ATOM      8  C   UNL     1      45.705   4.821   8.890  0.00  0.00    +0.000 A 
ATOM      9  C   UNL     1      44.875   4.021   9.679  0.00  0.00    +0.000 A 
ENDROOT
BRANCH   6  10
ATOM     10  C   UNL     1      46.990   2.241   6.430  0.00  0.00    +0.000 C 
ATOM     11  N   UNL     1      47.159   3.029   5.327  0.00  0.00    +0.000 N 
ATOM     12  O   UNL     1      47.442   1.100   6.438  0.00  0.00    +0.000 OA
ATOM     13  H   UNL     1      46.846   3.983   5.235  0.00  0.00    +0.000 HD
ATOM     14  H   UNL     1      47.684   2.630   4.559  0.00  0.00    +0.000 HD
ENDBRANCH   6  10
BRANCH   1  15
ATOM     15  C   UNL     1      43.544   5.592  11.145  0.00  0.00    +0.000 C 
BRANCH  15  19
ATOM     16  C   UNL     1      47.065   7.231  13.237  0.00  0.00    +0.000 C 
ATOM     17  C   UNL     1      45.931   8.187  12.842  0.00  0.00    +0.000 C 
ATOM     18  C   UNL     1      44.981   7.595  11.804  0.00  0.00    +0.000 C 
ATOM     19  C   UNL     1      44.393   6.247  12.250  0.00  0.00    +0.000 C 
ATOM     20  C   UNL     1      45.515   5.276  12.666  0.00  0.00    +0.000 C 
ATOM     21  C   UNL     1      46.473   5.886  13.688  0.00  0.00    +0.000 C 
BRANCH  16  22
ATOM     22  C   UNL     1      48.121   7.037  12.128  0.00  0.00    +0.000 C 
BRANCH  22  23
ATOM     23  N   UNL     1      49.414   6.640  12.675  0.00  0.00    +0.000 NA
ATOM     24  H   UNL     1      49.651   7.241  13.464  0.00  0.00    +0.000 HD
ATOM     25  H   UNL     1      50.144   6.784  11.978  0.00  0.00    +0.000 HD
ENDBRANCH  22  23
ENDBRANCH  16  22
ENDBRANCH  15  19
ENDBRANCH   1  15
TORSDOF 5
ENDMDL
MODEL 2
REMARK VINA RESULT:    -5.999      2.945      5.079
REMARK INTER + INTRA:          -7.912
REMARK INTER:                  -7.483
REMARK INTRA:                  -0.429
REMARK UNBOUND:                -0.335
REMARK  Name = 
REMARK  5 active torsions:
REMARK  status: ('A' for Active; 'I' for Inactive)
REMARK    1  A    between atoms: N_1  and  C_2
REMARK    2  A    between atoms: C_2  and  C_3
REMARK    3  A    between atoms: C_6  and  C_7
REMARK    4  A    between atoms: C_7  and  N_8
REMARK    5  A    between atoms: C_13  and  C_14
REMARK                            x       y       z     vdW  Elec       q    Type
REMARK                         _______ _______ _______ _____ _____    ______ ____
ROOT
ATOM      1  N   UNL     1      47.440   6.648  13.396  0.00  0.00    +0.000 N 
ATOM      2  C   UNL     1      47.766   5.886  14.487  0.00  0.00    +0.000 A 
ATOM      3  N   UNL     1      47.235   4.688  14.423  0.00  0.00    +0.000 NA
ATOM      4  C   UNL     1      46.520   4.676  13.253  0.00  0.00    +0.000 A 
ATOM      5  C   UNL     1      45.701   3.661  12.733  0.00  0.00    +0.000 A 
ATOM      6  C   UNL     1      45.028   3.889  11.526  0.00  0.00    +0.000 A 
ATOM      7  C   UNL     1      45.222   5.096  10.834  0.00  0.00    +0.000 A 
ATOM      8  C   UNL     1      46.045   6.115  11.332  0.00  0.00    +0.000 A 
ATOM      9  C   UNL     1      46.660   5.880  12.565  0.00  0.00    +0.000 A 
ENDROOT
BRANCH   6  10
ATOM     10  C   UNL     1      44.070   2.905  10.942  0.00  0.00    +0.000 C 
ATOM     11  N   UNL     1      44.470   2.146   9.879  0.00  0.00    +0.000 N 
ATOM     12  O   UNL     1      42.944   2.755  11.406  0.00  0.00    +0.000 OA
ATOM     13  H   UNL     1      45.380   2.180   9.445  0.00  0.00    +0.000 HD
ATOM     14  H   UNL     1      43.809   1.462   9.533  0.00  0.00    +0.000 HD
ENDBRANCH   6  10
BRANCH   1  15
ATOM     15  C   UNL     1      47.707   8.069  13.275  0.00  0.00    +0.000 C 
BRANCH  15  19
ATOM     16  C   UNL     1      51.554   9.166  11.417  0.00  0.00    +0.000 C 
ATOM     17  C   UNL     1      50.904   7.830  11.032  0.00  0.00    +0.000 C 
ATOM     18  C   UNL     1      49.814   7.390  12.006  0.00  0.00    +0.000 C 
ATOM     19  C   UNL     1      48.728   8.462  12.193  0.00  0.00    +0.000 C 
ATOM     20  C   UNL     1      49.361   9.816  12.565  0.00  0.00    +0.000 C 
ATOM     21  C   UNL     1      50.466  10.237  11.596  0.00  0.00    +0.000 C 
BRANCH  16  22
ATOM     22  C   UNL     1      52.462   9.074  12.661  0.00  0.00    +0.000 C 
BRANCH  22  23
ATOM     23  N   UNL     1      53.315   7.890  12.621  0.00  0.00    +0.000 NA
ATOM     24  H   UNL     1      53.186   7.405  11.734  0.00  0.00    +0.000 HD
ATOM     25  H   UNL     1      53.030   7.234  13.348  0.00  0.00    +0.000 HD
ENDBRANCH  22  23
ENDBRANCH  16  22
ENDBRANCH  15  19
ENDBRANCH   1  15
TORSDOF 5
ENDMDL
MODEL 3
REMARK VINA RESULT:    -5.952      3.074      5.040
REMARK INTER + INTRA:          -7.853
REMARK INTER:                  -7.320
REMARK INTRA:                  -0.533
REMARK UNBOUND:                -0.335
REMARK  Name = 
REMARK  5 active torsions:
REMARK  status: ('A' for Active; 'I' for Inactive)
REMARK    1  A    between atoms: N_1  and  C_2
REMARK    2  A    between atoms: C_2  and  C_3
REMARK    3  A    between atoms: C_6  and  C_7
REMARK    4  A    between atoms: C_7  and  N_8
REMARK    5  A    between atoms: C_13  and  C_14
REMARK                            x       y       z     vdW  Elec       q    Type
REMARK                         _______ _______ _______ _____ _____    ______ ____
ROOT
ATOM      1  N   UNL     1      45.997   7.838  12.503  0.00  0.00    +0.000 N 
ATOM      2  C   UNL     1      45.083   8.609  11.834  0.00  0.00    +0.000 A 
ATOM      3  N   UNL     1      44.151   7.881  11.266  0.00  0.00    +0.000 NA
ATOM      4  C   UNL     1      44.482   6.583  11.561  0.00  0.00    +0.000 A 
ATOM      5  C   UNL     1      43.858   5.398  11.139  0.00  0.00    +0.000 A 
ATOM      6  C   UNL     1      44.403   4.170  11.537  0.00  0.00    +0.000 A 
ATOM      7  C   UNL     1      45.522   4.143  12.386  0.00  0.00    +0.000 A 
ATOM      8  C   UNL     1      46.150   5.316  12.827  0.00  0.00    +0.000 A 
ATOM      9  C   UNL     1      45.617   6.524  12.369  0.00  0.00    +0.000 A 
ENDROOT
BRANCH   6  10
ATOM     10  C   UNL     1      43.862   2.861  11.067  0.00  0.00    +0.000 C 
ATOM     11  N   UNL     1      44.433   2.265   9.978  0.00  0.00    +0.000 N 
ATOM     12  O   UNL     1      42.934   2.305  11.647  0.00  0.00    +0.000 OA
ATOM     13  H   UNL     1      45.212   2.630   9.451  0.00  0.00    +0.000 HD
ATOM     14  H   UNL     1      44.068   1.360   9.710  0.00  0.00    +0.000 HD
ENDBRANCH   6  10
BRANCH   1  15
ATOM     15  C   UNL     1      47.243   8.333  13.055  0.00  0.00    +0.000 C 
BRANCH  15  19
ATOM     16  C   UNL     1      51.290   9.063  11.458  0.00  0.00    +0.000 C 
ATOM     17  C   UNL     1      50.617   7.714  11.171  0.00  0.00    +0.000 C 
ATOM     18  C   UNL     1      49.423   7.434  12.081  0.00  0.00    +0.000 C 
ATOM     19  C   UNL     1      48.376   8.558  12.037  0.00  0.00    +0.000 C 
ATOM     20  C   UNL     1      49.035   9.924  12.308  0.00  0.00    +0.000 C 
ATOM     21  C   UNL     1      50.241  10.186  11.407  0.00  0.00    +0.000 C 
BRANCH  16  22
ATOM     22  C   UNL     1      52.077   9.088  12.786  0.00  0.00    +0.000 C 
BRANCH  22  23
ATOM     23  N   UNL     1      52.987   7.953  12.897  0.00  0.00    +0.000 NA
ATOM     24  H   UNL     1      52.568   7.134  12.460  0.00  0.00    +0.000 HD
ATOM     25  H   UNL     1      53.124   7.714  13.879  0.00  0.00    +0.000 HD
ENDBRANCH  22  23
ENDBRANCH  16  22
ENDBRANCH  15  19
ENDBRANCH   1  15
TORSDOF 5
ENDMDL
MODEL 4
REMARK VINA RESULT:    -5.654      3.752      5.814
REMARK INTER + INTRA:          -7.477
REMARK INTER:                  -7.030
REMARK INTRA:                  -0.447
REMARK UNBOUND:                -0.335
REMARK  Name = 
REMARK  5 active torsions:
REMARK  status: ('A' for Active; 'I' for Inactive)
REMARK    1  A    between atoms: N_1  and  C_2
REMARK    2  A    between atoms: C_2  and  C_3
REMARK    3  A    between atoms: C_6  and  C_7
REMARK    4  A    between atoms: C_7  and  N_8
REMARK    5  A    between atoms: C_13  and  C_14
REMARK                            x       y       z     vdW  Elec       q    Type
REMARK                         _______ _______ _______ _____ _____    ______ ____
ROOT
ATOM      1  N   UNL     1      47.472   6.949  13.790  0.00  0.00    +0.000 N 
ATOM      2  C   UNL     1      47.001   8.205  13.513  0.00  0.00    +0.000 A 
ATOM      3  N   UNL     1      45.929   8.171  12.758  0.00  0.00    +0.000 NA
ATOM      4  C   UNL     1      45.703   6.840  12.518  0.00  0.00    +0.000 A 
ATOM      5  C   UNL     1      44.722   6.247  11.707  0.00  0.00    +0.000 A 
ATOM      6  C   UNL     1      44.707   4.852  11.578  0.00  0.00    +0.000 A 
ATOM      7  C   UNL     1      45.631   4.073  12.295  0.00  0.00    +0.000 A 
ATOM      8  C   UNL     1      46.609   4.648  13.117  0.00  0.00    +0.000 A 
ATOM      9  C   UNL     1      46.633   6.043  13.184  0.00  0.00    +0.000 A 
ENDROOT
BRANCH   6  10
ATOM     10  C   UNL     1      43.760   4.138  10.671  0.00  0.00    +0.000 C 
ATOM     11  N   UNL     1      43.724   4.487   9.351  0.00  0.00    +0.000 N 
ATOM     12  O   UNL     1      43.033   3.240  11.083  0.00  0.00    +0.000 OA
ATOM     13  H   UNL     1      44.298   5.192   8.915  0.00  0.00    +0.000 HD
ATOM     14  H   UNL     1      43.099   3.956   8.756  0.00  0.00    +0.000 HD
ENDBRANCH   6  10
BRANCH   1  15
ATOM     15  C   UNL     1      48.744   6.668  14.425  0.00  0.00    +0.000 C 
BRANCH  15  19
ATOM     16  C   UNL     1      49.594   5.036  18.435  0.00  0.00    +0.000 C 
ATOM     17  C   UNL     1      50.058   6.462  18.106  0.00  0.00    +0.000 C 
ATOM     18  C   UNL     1      50.062   6.761  16.609  0.00  0.00    +0.000 C 
ATOM     19  C   UNL     1      48.697   6.494  15.954  0.00  0.00    +0.000 C 
ATOM     20  C   UNL     1      48.205   5.072  16.285  0.00  0.00    +0.000 C 
ATOM     21  C   UNL     1      48.225   4.775  17.784  0.00  0.00    +0.000 C 
BRANCH  16  22
ATOM     22  C   UNL     1      50.618   3.949  18.045  0.00  0.00    +0.000 C 
BRANCH  22  23
ATOM     23  N   UNL     1      50.030   2.614  18.079  0.00  0.00    +0.000 NA
ATOM     24  H   UNL     1      49.601   2.406  17.178  0.00  0.00    +0.000 HD
ATOM     25  H   UNL     1      49.277   2.585  18.767  0.00  0.00    +0.000 HD
ENDBRANCH  22  23
ENDBRANCH  16  22
ENDBRANCH  15  19
ENDBRANCH   1  15
TORSDOF 5
ENDMDL
MODEL 5
REMARK VINA RESULT:    -5.573      3.433      5.385
REMARK INTER + INTRA:          -7.374
REMARK INTER:                  -6.885
REMARK INTRA:                  -0.489
REMARK UNBOUND:                -0.335
REMARK  Name = 
REMARK  5 active torsions:
REMARK  status: ('A' for Active; 'I' for Inactive)
REMARK    1  A    between atoms: N_1  and  C_2
REMARK    2  A    between atoms: C_2  and  C_3
REMARK    3  A    between atoms: C_6  and  C_7
REMARK    4  A    between atoms: C_7  and  N_8
REMARK    5  A    between atoms: C_13  and  C_14
REMARK                            x       y       z     vdW  Elec       q    Type
REMARK                         _______ _______ _______ _____ _____    ______ ____
ROOT
ATOM      1  N   UNL     1      47.640   5.975  14.172  0.00  0.00    +0.000 N 
ATOM      2  C   UNL     1      47.532   4.956  15.082  0.00  0.00    +0.000 A 
ATOM      3  N   UNL     1      46.736   4.004  14.657  0.00  0.00    +0.000 NA
ATOM      4  C   UNL     1      46.293   4.427  13.431  0.00  0.00    +0.000 A 
ATOM      5  C   UNL     1      45.364   3.818  12.572  0.00  0.00    +0.000 A 
ATOM      6  C   UNL     1      45.030   4.461  11.373  0.00  0.00    +0.000 A 
ATOM      7  C   UNL     1      45.663   5.667  11.027  0.00  0.00    +0.000 A 
ATOM      8  C   UNL     1      46.601   6.283  11.867  0.00  0.00    +0.000 A 
ATOM      9  C   UNL     1      46.873   5.645  13.080  0.00  0.00    +0.000 A 
ENDROOT
BRANCH   6  10
ATOM     10  C   UNL     1      43.990   3.936  10.441  0.00  0.00    +0.000 C 
ATOM     11  N   UNL     1      43.959   4.403   9.158  0.00  0.00    +0.000 N 
ATOM     12  O   UNL     1      43.181   3.085  10.798  0.00  0.00    +0.000 OA
ATOM     13  H   UNL     1      44.594   5.082   8.766  0.00  0.00    +0.000 HD
ATOM     14  H   UNL     1      43.266   3.997   8.542  0.00  0.00    +0.000 HD
ENDBRANCH   6  10
BRANCH   1  15
ATOM     15  C   UNL     1      48.280   7.249  14.436  0.00  0.00    +0.000 C 
BRANCH  15  19
ATOM     16  C   UNL     1      52.323   8.918  13.863  0.00  0.00    +0.000 C 
ATOM     17  C   UNL     1      52.095   7.913  15.000  0.00  0.00    +0.000 C 
ATOM     18  C   UNL     1      50.619   7.717  15.341  0.00  0.00    +0.000 C 
ATOM     19  C   UNL     1      49.784   7.314  14.115  0.00  0.00    +0.000 C 
ATOM     20  C   UNL     1      50.011   8.302  12.955  0.00  0.00    +0.000 C 
ATOM     21  C   UNL     1      51.491   8.508  12.637  0.00  0.00    +0.000 C 
BRANCH  16  22
ATOM     22  C   UNL     1      52.043  10.381  14.268  0.00  0.00    +0.000 C 
BRANCH  22  23
ATOM     23  N   UNL     1      52.658  10.714  15.549  0.00  0.00    +0.000 NA
ATOM     24  H   UNL     1      52.010  11.271  16.105  0.00  0.00    +0.000 HD
ATOM     25  H   UNL     1      53.479  11.299  15.397  0.00  0.00    +0.000 HD
ENDBRANCH  22  23
ENDBRANCH  16  22
ENDBRANCH  15  19
ENDBRANCH   1  15
TORSDOF 5
ENDMDL
MODEL 6
REMARK VINA RESULT:    -5.517      3.741      6.954
REMARK INTER + INTRA:          -7.303
REMARK INTER:                  -6.965
REMARK INTRA:                  -0.338
REMARK UNBOUND:                -0.335
REMARK  Name = 
REMARK  5 active torsions:
REMARK  status: ('A' for Active; 'I' for Inactive)
REMARK    1  A    between atoms: N_1  and  C_2
REMARK    2  A    between atoms: C_2  and  C_3
REMARK    3  A    between atoms: C_6  and  C_7
REMARK    4  A    between atoms: C_7  and  N_8
REMARK    5  A    between atoms: C_13  and  C_14
REMARK                            x       y       z     vdW  Elec       q    Type
REMARK                         _______ _______ _______ _____ _____    ______ ____
ROOT
ATOM      1  N   UNL     1      46.478   8.392  12.336  0.00  0.00    +0.000 N 
ATOM      2  C   UNL     1      45.913   9.636  12.224  0.00  0.00    +0.000 A 
ATOM      3  N   UNL     1      46.789  10.540  11.857  0.00  0.00    +0.000 NA
ATOM      4  C   UNL     1      47.976   9.862  11.743  0.00  0.00    +0.000 A 
ATOM      5  C   UNL     1      49.252  10.367  11.444  0.00  0.00    +0.000 A 
ATOM      6  C   UNL     1      50.338   9.483  11.421  0.00  0.00    +0.000 A 
ATOM      7  C   UNL     1      50.129   8.111  11.643  0.00  0.00    +0.000 A 
ATOM      8  C   UNL     1      48.861   7.589  11.931  0.00  0.00    +0.000 A 
ATOM      9  C   UNL     1      47.806   8.503  12.000  0.00  0.00    +0.000 A 
ENDROOT
BRANCH   6  10
ATOM     10  C   UNL     1      51.742   9.939  11.200  0.00  0.00    +0.000 C 
ATOM     11  N   UNL     1      52.246   9.930   9.931  0.00  0.00    +0.000 N 
ATOM     12  O   UNL     1      52.439  10.337  12.128  0.00  0.00    +0.000 OA
ATOM     13  H   UNL     1      51.745   9.645   9.103  0.00  0.00    +0.000 HD
ATOM     14  H   UNL     1      53.188  10.283   9.811  0.00  0.00    +0.000 HD
ENDBRANCH   6  10
BRANCH   1  15
ATOM     15  C   UNL     1      45.818   7.238  12.914  0.00  0.00    +0.000 C 
BRANCH  15  19
ATOM     16  C   UNL     1      44.854   3.337  11.093  0.00  0.00    +0.000 C 
ATOM     17  C   UNL     1      45.229   4.508  10.173  0.00  0.00    +0.000 C 
ATOM     18  C   UNL     1      45.153   5.865  10.868  0.00  0.00    +0.000 C 
ATOM     19  C   UNL     1      46.004   5.916  12.147  0.00  0.00    +0.000 C 
ATOM     20  C   UNL     1      45.654   4.740  13.079  0.00  0.00    +0.000 C 
ATOM     21  C   UNL     1      45.711   3.388  12.368  0.00  0.00    +0.000 C 
BRANCH  16  22
ATOM     22  C   UNL     1      43.349   3.275  11.429  0.00  0.00    +0.000 C 
BRANCH  22  23
ATOM     23  N   UNL     1      42.922   1.917  11.749  0.00  0.00    +0.000 NA
ATOM     24  H   UNL     1      42.035   1.946  12.249  0.00  0.00    +0.000 HD
ATOM     25  H   UNL     1      43.592   1.484  12.383  0.00  0.00    +0.000 HD
ENDBRANCH  22  23
ENDBRANCH  16  22
ENDBRANCH  15  19
ENDBRANCH   1  15
TORSDOF 5
ENDMDL
MODEL 7
REMARK VINA RESULT:    -5.409      3.891      5.543
REMARK INTER + INTRA:          -7.168
REMARK INTER:                  -6.778
REMARK INTRA:                  -0.390
REMARK UNBOUND:                -0.335
REMARK  Name = 
REMARK  5 active torsions:
REMARK  status: ('A' for Active; 'I' for Inactive)
REMARK    1  A    between atoms: N_1  and  C_2
REMARK    2  A    between atoms: C_2  and  C_3
REMARK    3  A    between atoms: C_6  and  C_7
REMARK    4  A    between atoms: C_7  and  N_8
REMARK    5  A    between atoms: C_13  and  C_14
REMARK                            x       y       z     vdW  Elec       q    Type
REMARK                         _______ _______ _______ _____ _____    ______ ____
ROOT
ATOM      1  N   UNL     1      47.650   5.889  14.275  0.00  0.00    +0.000 N 
ATOM      2  C   UNL     1      47.481   4.883  15.188  0.00  0.00    +0.000 A 
ATOM      3  N   UNL     1      46.637   3.972  14.764  0.00  0.00    +0.000 NA
ATOM      4  C   UNL     1      46.226   4.413  13.532  0.00  0.00    +0.000 A 
ATOM      5  C   UNL     1      45.270   3.851  12.671  0.00  0.00    +0.000 A 
ATOM      6  C   UNL     1      44.979   4.506  11.467  0.00  0.00    +0.000 A 
ATOM      7  C   UNL     1      45.678   5.674  11.119  0.00  0.00    +0.000 A 
ATOM      8  C   UNL     1      46.643   6.242  11.961  0.00  0.00    +0.000 A 
ATOM      9  C   UNL     1      46.873   5.596  13.179  0.00  0.00    +0.000 A 
ENDROOT
BRANCH   6  10
ATOM     10  C   UNL     1      43.917   4.033  10.531  0.00  0.00    +0.000 C 
ATOM     11  N   UNL     1      43.907   4.510   9.251  0.00  0.00    +0.000 N 
ATOM     12  O   UNL     1      43.071   3.215  10.882  0.00  0.00    +0.000 OA
ATOM     13  H   UNL     1      44.571   5.163   8.864  0.00  0.00    +0.000 HD
ATOM     14  H   UNL     1      43.197   4.139   8.631  0.00  0.00    +0.000 HD
ENDBRANCH   6  10
BRANCH   1  15
ATOM     15  C   UNL     1      48.356   7.128  14.536  0.00  0.00    +0.000 C 
BRANCH  15  19
ATOM     16  C   UNL     1      50.773   8.683  17.884  0.00  0.00    +0.000 C 
ATOM     17  C   UNL     1      49.246   8.834  17.944  0.00  0.00    +0.000 C 
ATOM     18  C   UNL     1      48.569   8.626  16.591  0.00  0.00    +0.000 C 
ATOM     19  C   UNL     1      48.933   7.274  15.957  0.00  0.00    +0.000 C 
ATOM     20  C   UNL     1      50.462   7.095  15.901  0.00  0.00    +0.000 C 
ATOM     21  C   UNL     1      51.133   7.327  17.254  0.00  0.00    +0.000 C 
BRANCH  16  22
ATOM     22  C   UNL     1      51.480   9.846  17.156  0.00  0.00    +0.000 C 
BRANCH  22  23
ATOM     23  N   UNL     1      52.906   9.591  16.987  0.00  0.00    +0.000 NA
ATOM     24  H   UNL     1      53.323  10.334  16.428  0.00  0.00    +0.000 HD
ATOM     25  H   UNL     1      53.044   8.727  16.463  0.00  0.00    +0.000 HD
ENDBRANCH  22  23
ENDBRANCH  16  22
ENDBRANCH  15  19
ENDBRANCH   1  15
TORSDOF 5
ENDMDL
MODEL 8
REMARK VINA RESULT:    -5.379      4.431      8.350
REMARK INTER + INTRA:          -7.129
REMARK INTER:                  -6.575
REMARK INTRA:                  -0.554
REMARK UNBOUND:                -0.335
REMARK  Name = 
REMARK  5 active torsions:
REMARK  status: ('A' for Active; 'I' for Inactive)
REMARK    1  A    between atoms: N_1  and  C_2
REMARK    2  A    between atoms: C_2  and  C_3
REMARK    3  A    between atoms: C_6  and  C_7
REMARK    4  A    between atoms: C_7  and  N_8
REMARK    5  A    between atoms: C_13  and  C_14
REMARK                            x       y       z     vdW  Elec       q    Type
REMARK                         _______ _______ _______ _____ _____    ______ ____
ROOT
ATOM      1  N   UNL     1      47.996   6.693  13.762  0.00  0.00    +0.000 N 
ATOM      2  C   UNL     1      48.380   8.007  13.719  0.00  0.00    +0.000 A 
ATOM      3  N   UNL     1      48.762   8.445  14.895  0.00  0.00    +0.000 NA
ATOM      4  C   UNL     1      48.602   7.379  15.742  0.00  0.00    +0.000 A 
ATOM      5  C   UNL     1      48.797   7.323  17.132  0.00  0.00    +0.000 A 
ATOM      6  C   UNL     1      48.528   6.122  17.802  0.00  0.00    +0.000 A 
ATOM      7  C   UNL     1      48.123   4.990  17.075  0.00  0.00    +0.000 A 
ATOM      8  C   UNL     1      47.935   5.025  15.687  0.00  0.00    +0.000 A 
ATOM      9  C   UNL     1      48.158   6.251  15.054  0.00  0.00    +0.000 A 
ENDROOT
BRANCH   6  10
ATOM     10  C   UNL     1      48.622   5.992  19.286  0.00  0.00    +0.000 C 
ATOM     11  N   UNL     1      47.806   5.099  19.922  0.00  0.00    +0.000 N 
ATOM     12  O   UNL     1      49.424   6.653  19.938  0.00  0.00    +0.000 OA
ATOM     13  H   UNL     1      47.134   4.496  19.472  0.00  0.00    +0.000 HD
ATOM     14  H   UNL     1      47.923   5.008  20.923  0.00  0.00    +0.000 HD
ENDBRANCH   6  10
BRANCH   1  15
ATOM     15  C   UNL     1      47.340   5.991  12.676  0.00  0.00    +0.000 C 
BRANCH  15  19
ATOM     16  C   UNL     1      43.166   4.855  11.810  0.00  0.00    +0.000 C 
ATOM     17  C   UNL     1      43.698   4.675  13.239  0.00  0.00    +0.000 C 
ATOM     18  C   UNL     1      45.221   4.724  13.323  0.00  0.00    +0.000 C 
ATOM     19  C   UNL     1      45.801   6.009  12.710  0.00  0.00    +0.000 C 
ATOM     20  C   UNL     1      45.267   6.216  11.280  0.00  0.00    +0.000 C 
ATOM     21  C   UNL     1      43.743   6.144  11.203  0.00  0.00    +0.000 C 
BRANCH  16  22
ATOM     22  C   UNL     1      43.428   3.638  10.898  0.00  0.00    +0.000 C 
BRANCH  22  23
ATOM     23  N   UNL     1      43.042   2.387  11.541  0.00  0.00    +0.000 NA
ATOM     24  H   UNL     1      43.867   1.933  11.931  0.00  0.00    +0.000 HD
ATOM     25  H   UNL     1      42.664   1.742  10.847  0.00  0.00    +0.000 HD
ENDBRANCH  22  23
ENDBRANCH  16  22
ENDBRANCH  15  19
ENDBRANCH   1  15
TORSDOF 5
ENDMDL
MODEL 9
REMARK VINA RESULT:    -5.258      3.844      6.166
REMARK INTER + INTRA:          -6.976
REMARK INTER:                  -6.587
REMARK INTRA:                  -0.389
REMARK UNBOUND:                -0.335
REMARK  Name = 
REMARK  5 active torsions:
REMARK  status: ('A' for Active; 'I' for Inactive)
REMARK    1  A    between atoms: N_1  and  C_2
REMARK    2  A    between atoms: C_2  and  C_3
REMARK    3  A    between atoms: C_6  and  C_7
REMARK    4  A    between atoms: C_7  and  N_8
REMARK    5  A    between atoms: C_13  and  C_14
REMARK                            x       y       z     vdW  Elec       q    Type
REMARK                         _______ _______ _______ _____ _____    ______ ____
ROOT
ATOM      1  N   UNL     1      47.825   7.334  13.420  0.00  0.00    +0.000 N 
ATOM      2  C   UNL     1      47.129   8.499  13.228  0.00  0.00    +0.000 A 
ATOM      3  N   UNL     1      45.869   8.274  12.941  0.00  0.00    +0.000 NA
ATOM      4  C   UNL     1      45.744   6.909  12.927  0.00  0.00    +0.000 A 
ATOM      5  C   UNL     1      44.619   6.132  12.606  0.00  0.00    +0.000 A 
ATOM      6  C   UNL     1      44.736   4.736  12.620  0.00  0.00    +0.000 A 
ATOM      7  C   UNL     1      45.950   4.140  13.002  0.00  0.00    +0.000 A 
ATOM      8  C   UNL     1      47.079   4.900  13.337  0.00  0.00    +0.000 A 
ATOM      9  C   UNL     1      46.946   6.289  13.261  0.00  0.00    +0.000 A 
ENDROOT
BRANCH   6  10
ATOM     10  C   UNL     1      43.623   3.832  12.208  0.00  0.00    +0.000 C 
ATOM     11  N   UNL     1      43.683   2.512  12.557  0.00  0.00    +0.000 N 
ATOM     12  O   UNL     1      42.654   4.252  11.584  0.00  0.00    +0.000 OA
ATOM     13  H   UNL     1      44.423   2.080  13.089  0.00  0.00    +0.000 HD
ATOM     14  H   UNL     1      42.893   1.935  12.297  0.00  0.00    +0.000 HD
ENDBRANCH   6  10
BRANCH   1  15
ATOM     15  C   UNL     1      49.267   7.249  13.549  0.00  0.00    +0.000 C 
BRANCH  15  19
ATOM     16  C   UNL     1      49.478   8.201  17.851  0.00  0.00    +0.000 C 
ATOM     17  C   UNL     1      49.370   6.730  17.426  0.00  0.00    +0.000 C 
ATOM     18  C   UNL     1      48.915   6.556  15.980  0.00  0.00    +0.000 C 
ATOM     19  C   UNL     1      49.808   7.319  14.989  0.00  0.00    +0.000 C 
ATOM     20  C   UNL     1      49.943   8.796  15.406  0.00  0.00    +0.000 C 
ATOM     21  C   UNL     1      50.377   8.960  16.862  0.00  0.00    +0.000 C 
BRANCH  16  22
ATOM     22  C   UNL     1      48.110   8.897  18.016  0.00  0.00    +0.000 C 
BRANCH  22  23
ATOM     23  N   UNL     1      47.160   8.059  18.739  0.00  0.00    +0.000 NA
ATOM     24  H   UNL     1      47.337   7.078  18.525  0.00  0.00    +0.000 HD
ATOM     25  H   UNL     1      46.212   8.254  18.419  0.00  0.00    +0.000 HD
ENDBRANCH  22  23
ENDBRANCH  16  22
ENDBRANCH  15  19
ENDBRANCH   1  15
TORSDOF 5
ENDMDL
