MODEL 1
REMARK VINA RESULT:    -7.681      0.000      0.000
REMARK INTER + INTRA:         -11.720
REMARK INTER:                 -10.824
REMARK INTRA:                  -0.896
REMARK UNBOUND:                -0.896
REMARK  Name = 
REMARK  7 active torsions:
REMARK  status: ('A' for Active; 'I' for Inactive)
REMARK    1  A    between atoms: C_2  and  C_3
REMARK    2  A    between atoms: C_7  and  C_8
REMARK    3  A    between atoms: N_10  and  C_11
REMARK    4  A    between atoms: C_11  and  C_12
REMARK    5  A    between atoms: C_15  and  C_16
REMARK    6  A    between atoms: C_16  and  N_17
REMARK    7  A    between atoms: C_18  and  C_20
REMARK                            x       y       z     vdW  Elec       q    Type
REMARK                         _______ _______ _______ _____ _____    ______ ____
ROOT
ATOM      1  C   UNL     1      46.356   5.071  13.806  0.00  0.00    +0.000 A 
ATOM      2  C   UNL     1      46.755   4.529  15.037  0.00  0.00    +0.000 A 
ATOM      3  C   UNL     1      47.780   5.122  15.788  0.00  0.00    +0.000 A 
ATOM      4  C   UNL     1      48.418   6.284  15.334  0.00  0.00    +0.000 A 
ATOM      5  C   UNL     1      48.032   6.815  14.096  0.00  0.00    +0.000 A 
ATOM      6  C   UNL     1      47.006   6.224  13.348  0.00  0.00    +0.000 A 
ENDROOT
BRANCH   1   7
ATOM      7  C   UNL     1      45.265   4.416  12.994  0.00  0.00    +0.000 C 
BRANCH   7  10
ATOM      8  C   UNL     1      44.841   3.447  10.764  0.00  0.00    +0.000 C 
ATOM      9  O   UNL     1      43.694   3.107  11.035  0.00  0.00    +0.000 OA
ATOM     10  N   UNL     1      45.682   4.093  11.650  0.00  0.00    +0.000 N 
ATOM     11  H   UNL     1      46.625   4.303  11.339  0.00  0.00    +0.000 HD
BRANCH   8  16
ATOM     12  C   UNL     1      46.259   1.621   7.914  0.00  0.00    +0.000 A 
ATOM     13  C   UNL     1      46.505   2.598   6.956  0.00  0.00    +0.000 A 
ATOM     14  C   UNL     1      46.188   3.919   7.263  0.00  0.00    +0.000 A 
ATOM     15  C   UNL     1      45.641   4.216   8.508  0.00  0.00    +0.000 A 
ATOM     16  C   UNL     1      45.427   3.175   9.407  0.00  0.00    +0.000 A 
ATOM     17  N   UNL     1      45.722   1.873   9.137  0.00  0.00    +0.000 NA
BRANCH  12  19
ATOM     18  N   UNL     1      46.797  -0.878   7.443  0.00  0.00    +0.000 NA
ATOM     19  C   UNL     1      46.573   0.247   7.646  0.00  0.00    +0.000 C 
ENDBRANCH  12  19
ENDBRANCH   8  16
ENDBRANCH   7  10
ENDBRANCH   1   7
BRANCH   4  20
ATOM     20  C   UNL     1      49.507   6.950  16.143  0.00  0.00    +0.000 C 
BRANCH  20  21
ATOM     21  N   UNL     1      50.499   6.004  16.585  0.00  0.00    +0.000 N 
ATOM     22  C   UNL     1      50.588   5.624  17.904  0.00  0.00    +0.000 C 
ATOM     23  O   UNL     1      49.809   6.038  18.757  0.00  0.00    +0.000 OA
ATOM     24  H   UNL     1      51.301   5.866  15.981  0.00  0.00    +0.000 HD
BRANCH  22  25
ATOM     25  C   UNL     1      51.627   4.639  18.228  0.00  0.00    +0.000 A 
ATOM     26  C   UNL     1      52.769   5.035  18.914  0.00  0.00    +0.000 A 
ATOM     27  S   UNL     1      53.840   3.751  19.256  0.00  0.00    +0.000 S 
ATOM     28  C   UNL     1      52.842   2.631  18.451  0.00  0.00    +0.000 A 
ATOM     29  N   UNL     1      53.197   1.322  18.350  0.00  0.00    +0.000 NA
ATOM     30  C   UNL     1      52.361   0.593  17.686  0.00  0.00    +0.000 A 
ATOM     31  N   UNL     1      51.200   1.054  17.122  0.00  0.00    +0.000 N 
ATOM     32  C   UNL     1      50.787   2.360  17.224  0.00  0.00    +0.000 A 
ATOM     33  O   UNL     1      49.721   2.730  16.746  0.00  0.00    +0.000 OA
ATOM     34  C   UNL     1      51.699   3.225  17.948  0.00  0.00    +0.000 A 
ATOM     35  H   UNL     1      50.582   0.431  16.625  0.00  0.00    +0.000 HD
ENDBRANCH  22  25
ENDBRANCH  20  21
ENDBRANCH   4  20
TORSDOF 7
ENDMDL
MODEL 2
REMARK VINA RESULT:    -7.518      2.603      3.018
REMARK INTER + INTRA:         -11.491
REMARK INTER:                 -10.532
REMARK INTRA:                  -0.959
REMARK UNBOUND:                -0.896
REMARK  Name = 
REMARK  7 active torsions:
REMARK  status: ('A' for Active; 'I' for Inactive)
REMARK    1  A    between atoms: C_2  and  C_3
REMARK    2  A    between atoms: C_7  and  C_8
REMARK    3  A    between atoms: N_10  and  C_11
REMARK    4  A    between atoms: C_11  and  C_12
REMARK    5  A    between atoms: C_15  and  C_16
REMARK    6  A    between atoms: C_16  and  N_17
REMARK    7  A    between atoms: C_18  and  C_20
REMARK                            x       y       z     vdW  Elec       q    Type
REMARK                         _______ _______ _______ _____ _____    ______ ____
ROOT
ATOM      1  C   UNL     1      45.179   6.806  11.862  0.00  0.00    +0.000 A 
ATOM      2  C   UNL     1      46.271   6.158  12.457  0.00  0.00    +0.000 A 
ATOM      3  C   UNL     1      47.181   6.866  13.257  0.00  0.00    +0.000 A 
ATOM      4  C   UNL     1      47.008   8.235  13.496  0.00  0.00    +0.000 A 
ATOM      5  C   UNL     1      45.926   8.886  12.887  0.00  0.00    +0.000 A 
ATOM      6  C   UNL     1      45.016   8.178  12.091  0.00  0.00    +0.000 A 
ENDROOT
BRANCH   1   7
ATOM      7  C   UNL     1      44.215   6.041  10.986  0.00  0.00    +0.000 C 
BRANCH   7  10
ATOM      8  C   UNL     1      44.890   3.964   9.838  0.00  0.00    +0.000 C 
ATOM      9  O   UNL     1      44.361   3.232  10.668  0.00  0.00    +0.000 OA
ATOM     10  N   UNL     1      44.869   5.344   9.905  0.00  0.00    +0.000 N 
ATOM     11  H   UNL     1      45.366   5.860   9.185  0.00  0.00    +0.000 HD
BRANCH   8  16
ATOM     12  C   UNL     1      46.442   1.515   7.590  0.00  0.00    +0.000 A 
ATOM     13  C   UNL     1      46.944   2.270   6.537  0.00  0.00    +0.000 A 
ATOM     14  C   UNL     1      46.763   3.651   6.569  0.00  0.00    +0.000 A 
ATOM     15  C   UNL     1      46.091   4.224   7.644  0.00  0.00    +0.000 A 
ATOM     16  C   UNL     1      45.620   3.391   8.656  0.00  0.00    +0.000 A 
ATOM     17  N   UNL     1      45.777   2.039   8.653  0.00  0.00    +0.000 NA
BRANCH  12  19
ATOM     18  N   UNL     1      46.772  -1.063   7.592  0.00  0.00    +0.000 NA
ATOM     19  C   UNL     1      46.609   0.090   7.604  0.00  0.00    +0.000 C 
ENDBRANCH  12  19
ENDBRANCH   8  16
ENDBRANCH   7  10
ENDBRANCH   1   7
BRANCH   4  20
ATOM     20  C   UNL     1      47.964   9.007  14.375  0.00  0.00    +0.000 C 
BRANCH  20  21
ATOM     21  N   UNL     1      48.195   8.339  15.629  0.00  0.00    +0.000 N 
ATOM     22  C   UNL     1      49.336   7.603  15.848  0.00  0.00    +0.000 C 
ATOM     23  O   UNL     1      50.225   7.509  15.007  0.00  0.00    +0.000 OA
ATOM     24  H   UNL     1      47.385   8.172  16.215  0.00  0.00    +0.000 HD
BRANCH  22  25
ATOM     25  C   UNL     1      49.467   6.985  17.173  0.00  0.00    +0.000 A 
ATOM     26  C   UNL     1      50.074   7.683  18.209  0.00  0.00    +0.000 A 
ATOM     27  S   UNL     1      50.086   6.836  19.691  0.00  0.00    +0.000 S 
ATOM     28  C   UNL     1      49.329   5.484  18.986  0.00  0.00    +0.000 A 
ATOM     29  N   UNL     1      49.064   4.368  19.718  0.00  0.00    +0.000 NA
ATOM     30  C   UNL     1      48.516   3.409  19.047  0.00  0.00    +0.000 A 
ATOM     31  N   UNL     1      48.203   3.467  17.714  0.00  0.00    +0.000 N 
ATOM     32  C   UNL     1      48.425   4.583  16.944  0.00  0.00    +0.000 A 
ATOM     33  O   UNL     1      48.091   4.618  15.765  0.00  0.00    +0.000 OA
ATOM     34  C   UNL     1      49.053   5.685  17.646  0.00  0.00    +0.000 A 
ATOM     35  H   UNL     1      47.764   2.687  17.249  0.00  0.00    +0.000 HD
ENDBRANCH  22  25
ENDBRANCH  20  21
ENDBRANCH   4  20
TORSDOF 7
ENDMDL
MODEL 3
REMARK VINA RESULT:    -6.981      2.745      3.520
REMARK INTER + INTRA:         -10.734
REMARK INTER:                  -9.919
REMARK INTRA:                  -0.815
REMARK UNBOUND:                -0.896
REMARK  Name = 
REMARK  7 active torsions:
REMARK  status: ('A' for Active; 'I' for Inactive)
REMARK    1  A    between atoms: C_2  and  C_3
REMARK    2  A    between atoms: C_7  and  C_8
REMARK    3  A    between atoms: N_10  and  C_11
REMARK    4  A    between atoms: C_11  and  C_12
REMARK    5  A    between atoms: C_15  and  C_16
REMARK    6  A    between atoms: C_16  and  N_17
REMARK    7  A    between atoms: C_18  and  C_20
REMARK                            x       y       z     vdW  Elec       q    Type
REMARK                         _______ _______ _______ _____ _____    ______ ____
ROOT
ATOM      1  C   UNL     1      45.434   6.726  11.689  0.00  0.00    +0.000 A 
ATOM      2  C   UNL     1      45.371   8.083  12.034  0.00  0.00    +0.000 A 
ATOM      3  C   UNL     1      46.240   8.625  12.993  0.00  0.00    +0.000 A 
ATOM      4  C   UNL     1      47.207   7.823  13.614  0.00  0.00    +0.000 A 
ATOM      5  C   UNL     1      47.258   6.463  13.282  0.00  0.00    +0.000 A 
ATOM      6  C   UNL     1      46.392   5.924  12.322  0.00  0.00    +0.000 A 
ENDROOT
BRANCH   1   7
ATOM      7  C   UNL     1      44.482   6.145  10.670  0.00  0.00    +0.000 C 
BRANCH   7  10
ATOM      8  C   UNL     1      44.913   4.041   9.455  0.00  0.00    +0.000 C 
ATOM      9  O   UNL     1      44.121   3.390  10.129  0.00  0.00    +0.000 OA
ATOM     10  N   UNL     1      45.154   5.388   9.640  0.00  0.00    +0.000 N 
ATOM     11  H   UNL     1      45.854   5.829   9.051  0.00  0.00    +0.000 HD
BRANCH   8  16
ATOM     12  C   UNL     1      46.548   1.454   7.430  0.00  0.00    +0.000 A 
ATOM     13  C   UNL     1      47.122   2.145   6.370  0.00  0.00    +0.000 A 
ATOM     14  C   UNL     1      46.962   3.527   6.320  0.00  0.00    +0.000 A 
ATOM     15  C   UNL     1      46.240   4.166   7.323  0.00  0.00    +0.000 A 
ATOM     16  C   UNL     1      45.698   3.396   8.348  0.00  0.00    +0.000 A 
ATOM     17  N   UNL     1      45.833   2.042   8.425  0.00  0.00    +0.000 NA
BRANCH  12  19
ATOM     18  N   UNL     1      46.771  -1.131   7.594  0.00  0.00    +0.000 NA
ATOM     19  C   UNL     1      46.689   0.029   7.528  0.00  0.00    +0.000 C 
ENDBRANCH  12  19
ENDBRANCH   8  16
ENDBRANCH   7  10
ENDBRANCH   1   7
BRANCH   4  20
ATOM     20  C   UNL     1      48.167   8.397  14.631  0.00  0.00    +0.000 C 
BRANCH  20  21
ATOM     21  N   UNL     1      48.255   7.572  15.808  0.00  0.00    +0.000 N 
ATOM     22  C   UNL     1      49.340   6.756  16.030  0.00  0.00    +0.000 C 
ATOM     23  O   UNL     1      50.296   6.716  15.262  0.00  0.00    +0.000 OA
ATOM     24  H   UNL     1      47.389   7.379  16.298  0.00  0.00    +0.000 HD
BRANCH  22  25
ATOM     25  C   UNL     1      49.323   5.978  17.275  0.00  0.00    +0.000 A 
ATOM     26  C   UNL     1      48.644   4.767  17.328  0.00  0.00    +0.000 A 
ATOM     27  S   UNL     1      48.780   3.973  18.833  0.00  0.00    +0.000 S 
ATOM     28  C   UNL     1      49.706   5.245  19.482  0.00  0.00    +0.000 A 
ATOM     29  N   UNL     1      50.140   5.209  20.772  0.00  0.00    +0.000 NA
ATOM     30  C   UNL     1      50.805   6.255  21.139  0.00  0.00    +0.000 A 
ATOM     31  N   UNL     1      51.081   7.328  20.332  0.00  0.00    +0.000 N 
ATOM     32  C   UNL     1      50.689   7.394  19.017  0.00  0.00    +0.000 A 
ATOM     33  O   UNL     1      50.992   8.349  18.310  0.00  0.00    +0.000 OA
ATOM     34  C   UNL     1      49.926   6.250  18.558  0.00  0.00    +0.000 A 
ATOM     35  H   UNL     1      51.616   8.111  20.676  0.00  0.00    +0.000 HD
ENDBRANCH  22  25
ENDBRANCH  20  21
ENDBRANCH   4  20
TORSDOF 7
ENDMDL
MODEL 4
REMARK VINA RESULT:    -6.955      3.892      9.370
REMARK INTER + INTRA:         -10.697
REMARK INTER:                  -9.543
REMARK INTRA:                  -1.155
REMARK UNBOUND:                -0.896
REMARK  Name = 
REMARK  7 active torsions:
REMARK  status: ('A' for Active; 'I' for Inactive)
REMARK    1  A    between atoms: C_2  and  C_3
REMARK    2  A    between atoms: C_7  and  C_8
REMARK    3  A    between atoms: N_10  and  C_11
REMARK    4  A    between atoms: C_11  and  C_12
REMARK    5  A    between atoms: C_15  and  C_16
REMARK    6  A    between atoms: C_16  and  N_17
REMARK    7  A    between atoms: C_18  and  C_20
REMARK                            x       y       z     vdW  Elec       q    Type
REMARK                         _______ _______ _______ _____ _____    ______ ____
ROOT
ATOM      1  C   UNL     1      49.651   4.564  17.606  0.00  0.00    +0.000 A 
ATOM      2  C   UNL     1      50.416   5.673  17.215  0.00  0.00    +0.000 A 
ATOM      3  C   UNL     1      49.979   6.526  16.191  0.00  0.00    +0.000 A 
ATOM      4  C   UNL     1      48.756   6.299  15.545  0.00  0.00    +0.000 A 
ATOM      5  C   UNL     1      48.001   5.181  15.923  0.00  0.00    +0.000 A 
ATOM      6  C   UNL     1      48.436   4.332  16.949  0.00  0.00    +0.000 A 
ENDROOT
BRANCH   1   7
ATOM      7  C   UNL     1      50.137   3.640  18.697  0.00  0.00    +0.000 C 
BRANCH   7  10
ATOM      8  C   UNL     1      51.716   2.026  17.701  0.00  0.00    +0.000 C 
ATOM      9  O   UNL     1      50.834   1.366  17.160  0.00  0.00    +0.000 OA
ATOM     10  N   UNL     1      51.476   3.151  18.464  0.00  0.00    +0.000 N 
ATOM     11  H   UNL     1      52.273   3.609  18.896  0.00  0.00    +0.000 HD
BRANCH   8  16
ATOM     12  C   UNL     1      54.711   0.085  16.846  0.00  0.00    +0.000 A 
ATOM     13  C   UNL     1      55.774   0.869  17.278  0.00  0.00    +0.000 A 
ATOM     14  C   UNL     1      55.492   2.094  17.877  0.00  0.00    +0.000 A 
ATOM     15  C   UNL     1      54.166   2.490  18.024  0.00  0.00    +0.000 A 
ATOM     16  C   UNL     1      53.162   1.642  17.562  0.00  0.00    +0.000 A 
ATOM     17  N   UNL     1      53.405   0.441  16.968  0.00  0.00    +0.000 NA
BRANCH  12  19
ATOM     18  N   UNL     1      55.182  -2.215  15.731  0.00  0.00    +0.000 NA
ATOM     19  C   UNL     1      54.951  -1.186  16.227  0.00  0.00    +0.000 C 
ENDBRANCH  12  19
ENDBRANCH   8  16
ENDBRANCH   7  10
ENDBRANCH   1   7
BRANCH   4  20
ATOM     20  C   UNL     1      48.259   7.222  14.457  0.00  0.00    +0.000 C 
BRANCH  20  21
ATOM     21  N   UNL     1      47.016   6.763  13.893  0.00  0.00    +0.000 N 
ATOM     22  C   UNL     1      46.812   6.741  12.533  0.00  0.00    +0.000 C 
ATOM     23  O   UNL     1      47.684   7.074  11.736  0.00  0.00    +0.000 OA
ATOM     24  H   UNL     1      46.211   6.749  14.508  0.00  0.00    +0.000 HD
BRANCH  22  25
ATOM     25  C   UNL     1      45.512   6.235  12.078  0.00  0.00    +0.000 A 
ATOM     26  C   UNL     1      44.585   7.104  11.517  0.00  0.00    +0.000 A 
ATOM     27  S   UNL     1      43.155   6.334  10.993  0.00  0.00    +0.000 S 
ATOM     28  C   UNL     1      43.702   4.820  11.547  0.00  0.00    +0.000 A 
ATOM     29  N   UNL     1      42.928   3.708  11.428  0.00  0.00    +0.000 NA
ATOM     30  C   UNL     1      43.456   2.636  11.919  0.00  0.00    +0.000 A 
ATOM     31  N   UNL     1      44.690   2.574  12.513  0.00  0.00    +0.000 N 
ATOM     32  C   UNL     1      45.517   3.665  12.629  0.00  0.00    +0.000 A 
ATOM     33  O   UNL     1      46.634   3.566  13.125  0.00  0.00    +0.000 OA
ATOM     34  C   UNL     1      44.965   4.899  12.105  0.00  0.00    +0.000 A 
ATOM     35  H   UNL     1      45.052   1.703  12.868  0.00  0.00    +0.000 HD
ENDBRANCH  22  25
ENDBRANCH  20  21
ENDBRANCH   4  20
TORSDOF 7
ENDMDL
MODEL 5
REMARK VINA RESULT:    -6.839      5.062      5.634
REMARK INTER + INTRA:         -10.533
REMARK INTER:                  -9.255
REMARK INTRA:                  -1.278
REMARK UNBOUND:                -0.896
REMARK  Name = 
REMARK  7 active torsions:
REMARK  status: ('A' for Active; 'I' for Inactive)
REMARK    1  A    between atoms: C_2  and  C_3
REMARK    2  A    between atoms: C_7  and  C_8
REMARK    3  A    between atoms: N_10  and  C_11
REMARK    4  A    between atoms: C_11  and  C_12
REMARK    5  A    between atoms: C_15  and  C_16
REMARK    6  A    between atoms: C_16  and  N_17
REMARK    7  A    between atoms: C_18  and  C_20
REMARK                            x       y       z     vdW  Elec       q    Type
REMARK                         _______ _______ _______ _____ _____    ______ ____
ROOT
ATOM      1  C   UNL     1      45.326   6.795  12.119  0.00  0.00    +0.000 A 
ATOM      2  C   UNL     1      45.244   8.192  12.209  0.00  0.00    +0.000 A 
ATOM      3  C   UNL     1      46.148   8.917  13.000  0.00  0.00    +0.000 A 
ATOM      4  C   UNL     1      47.167   8.262  13.703  0.00  0.00    +0.000 A 
ATOM      5  C   UNL     1      47.238   6.865  13.626  0.00  0.00    +0.000 A 
ATOM      6  C   UNL     1      46.337   6.141  12.834  0.00  0.00    +0.000 A 
ENDROOT
BRANCH   1   7
ATOM      7  C   UNL     1      44.337   6.019  11.281  0.00  0.00    +0.000 C 
BRANCH   7  10
ATOM      8  C   UNL     1      44.932   3.981  10.023  0.00  0.00    +0.000 C 
ATOM      9  O   UNL     1      44.397   3.225  10.827  0.00  0.00    +0.000 OA
ATOM     10  N   UNL     1      44.952   5.356  10.156  0.00  0.00    +0.000 N 
ATOM     11  H   UNL     1      45.450   5.892   9.452  0.00  0.00    +0.000 HD
BRANCH   8  16
ATOM     12  C   UNL     1      46.429   1.606   7.660  0.00  0.00    +0.000 A 
ATOM     13  C   UNL     1      46.882   2.393   6.608  0.00  0.00    +0.000 A 
ATOM     14  C   UNL     1      46.684   3.769   6.679  0.00  0.00    +0.000 A 
ATOM     15  C   UNL     1      46.046   4.308   7.792  0.00  0.00    +0.000 A 
ATOM     16  C   UNL     1      45.624   3.446   8.801  0.00  0.00    +0.000 A 
ATOM     17  N   UNL     1      45.799   2.096   8.759  0.00  0.00    +0.000 NA
BRANCH  12  19
ATOM     18  N   UNL     1      46.793  -0.968   7.636  0.00  0.00    +0.000 NA
ATOM     19  C   UNL     1      46.615   0.184   7.634  0.00  0.00    +0.000 C 
ENDBRANCH  12  19
ENDBRANCH   8  16
ENDBRANCH   7  10
ENDBRANCH   1   7
BRANCH   4  20
ATOM     20  C   UNL     1      48.165   9.031  14.539  0.00  0.00    +0.000 C 
BRANCH  20  21
ATOM     21  N   UNL     1      49.473   9.039  13.938  0.00  0.00    +0.000 N 
ATOM     22  C   UNL     1      49.874  10.063  13.111  0.00  0.00    +0.000 C 
ATOM     23  O   UNL     1      49.158  11.031  12.876  0.00  0.00    +0.000 OA
ATOM     24  H   UNL     1      49.960   8.152  13.889  0.00  0.00    +0.000 HD
BRANCH  22  25
ATOM     25  C   UNL     1      51.237   9.968  12.574  0.00  0.00    +0.000 A 
ATOM     26  C   UNL     1      52.164  10.964  12.852  0.00  0.00    +0.000 A 
ATOM     27  S   UNL     1      53.711  10.662  12.196  0.00  0.00    +0.000 S 
ATOM     28  C   UNL     1      53.180   9.216  11.471  0.00  0.00    +0.000 A 
ATOM     29  N   UNL     1      54.024   8.458  10.720  0.00  0.00    +0.000 NA
ATOM     30  C   UNL     1      53.479   7.405  10.206  0.00  0.00    +0.000 A 
ATOM     31  N   UNL     1      52.169   7.039  10.381  0.00  0.00    +0.000 N 
ATOM     32  C   UNL     1      51.290   7.757  11.154  0.00  0.00    +0.000 A 
ATOM     33  O   UNL     1      50.138   7.377  11.327  0.00  0.00    +0.000 OA
ATOM     34  C   UNL     1      51.849   8.958  11.744  0.00  0.00    +0.000 A 
ATOM     35  H   UNL     1      51.806   6.197   9.961  0.00  0.00    +0.000 HD
ENDBRANCH  22  25
ENDBRANCH  20  21
ENDBRANCH   4  20
TORSDOF 7
ENDMDL
MODEL 6
REMARK VINA RESULT:    -6.701      5.940      9.126
REMARK INTER + INTRA:         -10.339
REMARK INTER:                  -9.381
REMARK INTRA:                  -0.958
REMARK UNBOUND:                -0.896
REMARK  Name = 
REMARK  7 active torsions:
REMARK  status: ('A' for Active; 'I' for Inactive)
REMARK    1  A    between atoms: C_2  and  C_3
REMARK    2  A    between atoms: C_7  and  C_8
REMARK    3  A    between atoms: N_10  and  C_11
REMARK    4  A    between atoms: C_11  and  C_12
REMARK    5  A    between atoms: C_15  and  C_16
REMARK    6  A    between atoms: C_16  and  N_17
REMARK    7  A    between atoms: C_18  and  C_20
REMARK                            x       y       z     vdW  Elec       q    Type
REMARK                         _______ _______ _______ _____ _____    ______ ____
ROOT
ATOM      1  C   UNL     1      50.296   9.001  11.314  0.00  0.00    +0.000 A 
ATOM      2  C   UNL     1      49.313   9.996  11.419  0.00  0.00    +0.000 A 
ATOM      3  C   UNL     1      48.034   9.697  11.912  0.00  0.00    +0.000 A 
ATOM      4  C   UNL     1      47.715   8.398  12.329  0.00  0.00    +0.000 A 
ATOM      5  C   UNL     1      48.691   7.401  12.207  0.00  0.00    +0.000 A 
ATOM      6  C   UNL     1      49.969   7.700  11.718  0.00  0.00    +0.000 A 
ENDROOT
BRANCH   1   7
ATOM      7  C   UNL     1      51.665   9.326  10.764  0.00  0.00    +0.000 C 
BRANCH   7  10
ATOM      8  C   UNL     1      53.619   7.820  10.731  0.00  0.00    +0.000 C 
ATOM      9  O   UNL     1      54.230   8.454  11.585  0.00  0.00    +0.000 OA
ATOM     10  N   UNL     1      52.363   8.163  10.270  0.00  0.00    +0.000 N 
ATOM     11  H   UNL     1      51.955   7.591   9.537  0.00  0.00    +0.000 HD
BRANCH   8  16
ATOM     12  C   UNL     1      54.364   5.207   8.265  0.00  0.00    +0.000 A 
ATOM     13  C   UNL     1      55.251   4.354   8.912  0.00  0.00    +0.000 A 
ATOM     14  C   UNL     1      55.621   4.654  10.220  0.00  0.00    +0.000 A 
ATOM     15  C   UNL     1      55.096   5.787  10.833  0.00  0.00    +0.000 A 
ATOM     16  C   UNL     1      54.214   6.587  10.111  0.00  0.00    +0.000 A 
ATOM     17  N   UNL     1      53.835   6.324   8.830  0.00  0.00    +0.000 NA
BRANCH  12  19
ATOM     18  N   UNL     1      53.648   4.718   5.815  0.00  0.00    +0.000 NA
ATOM     19  C   UNL     1      53.950   4.937   6.919  0.00  0.00    +0.000 C 
ENDBRANCH  12  19
ENDBRANCH   8  16
ENDBRANCH   7  10
ENDBRANCH   1   7
BRANCH   4  20
ATOM     20  C   UNL     1      46.350   8.065  12.886  0.00  0.00    +0.000 C 
BRANCH  20  21
ATOM     21  N   UNL     1      45.932   6.737  12.517  0.00  0.00    +0.000 N 
ATOM     22  C   UNL     1      44.812   6.529  11.745  0.00  0.00    +0.000 C 
ATOM     23  O   UNL     1      44.140   7.456  11.305  0.00  0.00    +0.000 OA
ATOM     24  H   UNL     1      46.290   5.972  13.076  0.00  0.00    +0.000 HD
BRANCH  22  25
ATOM     25  C   UNL     1      44.499   5.132  11.420  0.00  0.00    +0.000 A 
ATOM     26  C   UNL     1      43.750   4.364  12.303  0.00  0.00    +0.000 A 
ATOM     27  S   UNL     1      43.433   2.785  11.736  0.00  0.00    +0.000 S 
ATOM     28  C   UNL     1      44.331   3.056  10.316  0.00  0.00    +0.000 A 
ATOM     29  N   UNL     1      44.485   2.075   9.386  0.00  0.00    +0.000 NA
ATOM     30  C   UNL     1      45.216   2.409   8.374  0.00  0.00    +0.000 A 
ATOM     31  N   UNL     1      45.800   3.637   8.205  0.00  0.00    +0.000 N 
ATOM     32  C   UNL     1      45.648   4.666   9.103  0.00  0.00    +0.000 A 
ATOM     33  O   UNL     1      46.147   5.767   8.899  0.00  0.00    +0.000 OA
ATOM     34  C   UNL     1      44.847   4.338  10.266  0.00  0.00    +0.000 A 
ATOM     35  H   UNL     1      46.352   3.841   7.386  0.00  0.00    +0.000 HD
ENDBRANCH  22  25
ENDBRANCH  20  21
ENDBRANCH   4  20
TORSDOF 7
ENDMDL
MODEL 7
REMARK VINA RESULT:    -6.629      6.512      8.164
REMARK INTER + INTRA:         -10.238
REMARK INTER:                  -9.227
REMARK INTRA:                  -1.010
REMARK UNBOUND:                -0.896
REMARK  Name = 
REMARK  7 active torsions:
REMARK  status: ('A' for Active; 'I' for Inactive)
REMARK    1  A    between atoms: C_2  and  C_3
REMARK    2  A    between atoms: C_7  and  C_8
REMARK    3  A    between atoms: N_10  and  C_11
REMARK    4  A    between atoms: C_11  and  C_12
REMARK    5  A    between atoms: C_15  and  C_16
REMARK    6  A    between atoms: C_16  and  N_17
REMARK    7  A    between atoms: C_18  and  C_20
REMARK                            x       y       z     vdW  Elec       q    Type
REMARK                         _______ _______ _______ _____ _____    ______ ____
ROOT
ATOM      1  C   UNL     1      48.586   8.312  12.090  0.00  0.00    +0.000 A 
ATOM      2  C   UNL     1      48.836   9.675  11.877  0.00  0.00    +0.000 A 
ATOM      3  C   UNL     1      50.062  10.110  11.353  0.00  0.00    +0.000 A 
ATOM      4  C   UNL     1      51.061   9.189  11.012  0.00  0.00    +0.000 A 
ATOM      5  C   UNL     1      50.818   7.829  11.242  0.00  0.00    +0.000 A 
ATOM      6  C   UNL     1      49.592   7.394  11.762  0.00  0.00    +0.000 A 
ENDROOT
BRANCH   1   7
ATOM      7  C   UNL     1      47.271   7.851  12.672  0.00  0.00    +0.000 C 
BRANCH   7  10
ATOM      8  C   UNL     1      45.499   6.687  11.410  0.00  0.00    +0.000 C 
ATOM      9  O   UNL     1      44.759   7.665  11.379  0.00  0.00    +0.000 OA
ATOM     10  N   UNL     1      46.743   6.681  12.012  0.00  0.00    +0.000 N 
ATOM     11  H   UNL     1      47.264   5.810  12.012  0.00  0.00    +0.000 HD
BRANCH   8  16
ATOM     12  C   UNL     1      45.247   3.966   8.962  0.00  0.00    +0.000 A 
ATOM     13  C   UNL     1      44.387   3.043   9.546  0.00  0.00    +0.000 A 
ATOM     14  C   UNL     1      43.867   3.330  10.805  0.00  0.00    +0.000 A 
ATOM     15  C   UNL     1      44.221   4.521  11.432  0.00  0.00    +0.000 A 
ATOM     16  C   UNL     1      45.090   5.388  10.774  0.00  0.00    +0.000 A 
ATOM     17  N   UNL     1      45.619   5.135   9.545  0.00  0.00    +0.000 NA
BRANCH  12  19
ATOM     18  N   UNL     1      46.270   3.547   6.609  0.00  0.00    +0.000 NA
ATOM     19  C   UNL     1      45.805   3.716   7.663  0.00  0.00    +0.000 C 
ENDBRANCH  12  19
ENDBRANCH   8  16
ENDBRANCH   7  10
ENDBRANCH   1   7
BRANCH   4  20
ATOM     20  C   UNL     1      52.378   9.640  10.423  0.00  0.00    +0.000 C 
BRANCH  20  21
ATOM     21  N   UNL     1      52.682   8.945   9.199  0.00  0.00    +0.000 N 
ATOM     22  C   UNL     1      53.974   8.840   8.739  0.00  0.00    +0.000 C 
ATOM     23  O   UNL     1      54.929   9.297   9.360  0.00  0.00    +0.000 OA
ATOM     24  H   UNL     1      51.918   8.808   8.548  0.00  0.00    +0.000 HD
BRANCH  22  25
ATOM     25  C   UNL     1      54.160   8.092   7.490  0.00  0.00    +0.000 A 
ATOM     26  C   UNL     1      54.521   8.760   6.327  0.00  0.00    +0.000 A 
ATOM     27  S   UNL     1      54.750   7.727   4.987  0.00  0.00    +0.000 S 
ATOM     28  C   UNL     1      54.322   6.357   5.902  0.00  0.00    +0.000 A 
ATOM     29  N   UNL     1      54.287   5.119   5.337  0.00  0.00    +0.000 NA
ATOM     30  C   UNL     1      53.915   4.177   6.140  0.00  0.00    +0.000 A 
ATOM     31  N   UNL     1      53.582   4.360   7.457  0.00  0.00    +0.000 N 
ATOM     32  C   UNL     1      53.631   5.585   8.076  0.00  0.00    +0.000 A 
ATOM     33  O   UNL     1      53.369   5.707   9.268  0.00  0.00    +0.000 OA
ATOM     34  C   UNL     1      54.029   6.681   7.214  0.00  0.00    +0.000 A 
ATOM     35  H   UNL     1      53.310   3.581   8.036  0.00  0.00    +0.000 HD
ENDBRANCH  22  25
ENDBRANCH  20  21
ENDBRANCH   4  20
TORSDOF 7
ENDMDL
MODEL 8
REMARK VINA RESULT:    -6.480      2.267      2.996
REMARK INTER + INTRA:         -10.027
REMARK INTER:                  -8.925
REMARK INTRA:                  -1.103
REMARK UNBOUND:                -0.896
REMARK  Name = 
REMARK  7 active torsions:
REMARK  status: ('A' for Active; 'I' for Inactive)
REMARK    1  A    between atoms: C_2  and  C_3
REMARK    2  A    between atoms: C_7  and  C_8
REMARK    3  A    between atoms: N_10  and  C_11
REMARK    4  A    between atoms: C_11  and  C_12
REMARK    5  A    between atoms: C_15  and  C_16
REMARK    6  A    between atoms: C_16  and  N_17
REMARK    7  A    between atoms: C_18  and  C_20
REMARK                            x       y       z     vdW  Elec       q    Type
REMARK                         _______ _______ _______ _____ _____    ______ ____
ROOT
ATOM      1  C   UNL     1      46.443   7.825  12.314  0.00  0.00    +0.000 A 
ATOM      2  C   UNL     1      46.465   8.784  13.337  0.00  0.00    +0.000 A 
ATOM      3  C   UNL     1      47.581   8.918  14.176  0.00  0.00    +0.000 A 
ATOM      4  C   UNL     1      48.710   8.108  13.998  0.00  0.00    +0.000 A 
ATOM      5  C   UNL     1      48.681   7.138  12.987  0.00  0.00    +0.000 A 
ATOM      6  C   UNL     1      47.568   7.006  12.147  0.00  0.00    +0.000 A 
ENDROOT
BRANCH   1   7
ATOM      7  C   UNL     1      45.230   7.673  11.426  0.00  0.00    +0.000 C 
BRANCH   7  10
ATOM      8  C   UNL     1      44.547   5.335  11.029  0.00  0.00    +0.000 C 
ATOM      9  O   UNL     1      43.850   5.277  12.036  0.00  0.00    +0.000 OA
ATOM     10  N   UNL     1      45.254   6.459  10.646  0.00  0.00    +0.000 N 
ATOM     11  H   UNL     1      45.829   6.394   9.811  0.00  0.00    +0.000 HD
BRANCH   8  16
ATOM     12  C   UNL     1      45.496   3.300   8.127  0.00  0.00    +0.000 A 
ATOM     13  C   UNL     1      44.969   2.042   8.390  0.00  0.00    +0.000 A 
ATOM     14  C   UNL     1      44.269   1.854   9.579  0.00  0.00    +0.000 A 
ATOM     15  C   UNL     1      44.121   2.924  10.457  0.00  0.00    +0.000 A 
ATOM     16  C   UNL     1      44.683   4.151  10.114  0.00  0.00    +0.000 A 
ATOM     17  N   UNL     1      45.376   4.365   8.961  0.00  0.00    +0.000 NA
BRANCH  12  19
ATOM     18  N   UNL     1      46.813   3.704   5.922  0.00  0.00    +0.000 NA
ATOM     19  C   UNL     1      46.221   3.543   6.912  0.00  0.00    +0.000 C 
ENDBRANCH  12  19
ENDBRANCH   8  16
ENDBRANCH   7  10
ENDBRANCH   1   7
BRANCH   4  20
ATOM     20  C   UNL     1      49.930   8.257  14.877  0.00  0.00    +0.000 C 
BRANCH  20  21
ATOM     21  N   UNL     1      50.334   6.999  15.448  0.00  0.00    +0.000 N 
ATOM     22  C   UNL     1      49.782   6.536  16.621  0.00  0.00    +0.000 C 
ATOM     23  O   UNL     1      48.899   7.147  17.214  0.00  0.00    +0.000 OA
ATOM     24  H   UNL     1      51.225   6.622  15.145  0.00  0.00    +0.000 HD
BRANCH  22  25
ATOM     25  C   UNL     1      50.262   5.231  17.093  0.00  0.00    +0.000 A 
ATOM     26  C   UNL     1      49.358   4.203  17.328  0.00  0.00    +0.000 A 
ATOM     27  S   UNL     1      50.095   2.743  17.817  0.00  0.00    +0.000 S 
ATOM     28  C   UNL     1      51.643   3.450  17.784  0.00  0.00    +0.000 A 
ATOM     29  N   UNL     1      52.749   2.735  18.129  0.00  0.00    +0.000 NA
ATOM     30  C   UNL     1      53.852   3.407  18.088  0.00  0.00    +0.000 A 
ATOM     31  N   UNL     1      53.950   4.726  17.728  0.00  0.00    +0.000 N 
ATOM     32  C   UNL     1      52.866   5.478  17.344  0.00  0.00    +0.000 A 
ATOM     33  O   UNL     1      52.995   6.643  16.984  0.00  0.00    +0.000 OA
ATOM     34  C   UNL     1      51.599   4.774  17.386  0.00  0.00    +0.000 A 
ATOM     35  H   UNL     1      54.844   5.192  17.705  0.00  0.00    +0.000 HD
ENDBRANCH  22  25
ENDBRANCH  20  21
ENDBRANCH   4  20
TORSDOF 7
ENDMDL
MODEL 9
REMARK VINA RESULT:    -6.326      2.936      3.662
REMARK INTER + INTRA:          -9.810
REMARK INTER:                  -8.949
REMARK INTRA:                  -0.861
REMARK UNBOUND:                -0.896
REMARK  Name = 
REMARK  7 active torsions:
REMARK  status: ('A' for Active; 'I' for Inactive)
REMARK    1  A    between atoms: C_2  and  C_3
REMARK    2  A    between atoms: C_7  and  C_8
REMARK    3  A    between atoms: N_10  and  C_11
REMARK    4  A    between atoms: C_11  and  C_12
REMARK    5  A    between atoms: C_15  and  C_16
REMARK    6  A    between atoms: C_16  and  N_17
REMARK    7  A    between atoms: C_18  and  C_20
REMARK                            x       y       z     vdW  Elec       q    Type
REMARK                         _______ _______ _______ _____ _____    ______ ____
ROOT
ATOM      1  C   UNL     1      46.100   8.010  12.220  0.00  0.00    +0.000 A 
ATOM      2  C   UNL     1      46.544   9.331  12.383  0.00  0.00    +0.000 A 
ATOM      3  C   UNL     1      47.648   9.624  13.197  0.00  0.00    +0.000 A 
ATOM      4  C   UNL     1      48.345   8.600  13.852  0.00  0.00    +0.000 A 
ATOM      5  C   UNL     1      47.890   7.283  13.703  0.00  0.00    +0.000 A 
ATOM      6  C   UNL     1      46.789   6.990  12.887  0.00  0.00    +0.000 A 
ENDROOT
BRANCH   1   7
ATOM      7  C   UNL     1      44.899   7.704  11.357  0.00  0.00    +0.000 C 
BRANCH   7  10
ATOM      8  C   UNL     1      44.172   5.401  10.850  0.00  0.00    +0.000 C 
ATOM      9  O   UNL     1      43.244   5.425  11.652  0.00  0.00    +0.000 OA
ATOM     10  N   UNL     1      45.029   6.462  10.632  0.00  0.00    +0.000 N 
ATOM     11  H   UNL     1      45.787   6.329   9.970  0.00  0.00    +0.000 HD
BRANCH   8  16
ATOM     12  C   UNL     1      45.435   3.269   8.143  0.00  0.00    +0.000 A 
ATOM     13  C   UNL     1      44.984   1.993   8.459  0.00  0.00    +0.000 A 
ATOM     14  C   UNL     1      44.231   1.826   9.618  0.00  0.00    +0.000 A 
ATOM     15  C   UNL     1      43.955   2.933  10.415  0.00  0.00    +0.000 A 
ATOM     16  C   UNL     1      44.446   4.176  10.023  0.00  0.00    +0.000 A 
ATOM     17  N   UNL     1      45.189   4.371   8.899  0.00  0.00    +0.000 NA
BRANCH  12  19
ATOM     18  N   UNL     1      46.835   3.707   5.997  0.00  0.00    +0.000 NA
ATOM     19  C   UNL     1      46.210   3.491   6.957  0.00  0.00    +0.000 C 
ENDBRANCH  12  19
ENDBRANCH   8  16
ENDBRANCH   7  10
ENDBRANCH   1   7
BRANCH   4  20
ATOM     20  C   UNL     1      49.551   8.897  14.713  0.00  0.00    +0.000 C 
BRANCH  20  21
ATOM     21  N   UNL     1      49.556   8.107  15.917  0.00  0.00    +0.000 N 
ATOM     22  C   UNL     1      48.789   8.456  17.004  0.00  0.00    +0.000 C 
ATOM     23  O   UNL     1      48.039   9.428  16.991  0.00  0.00    +0.000 OA
ATOM     24  H   UNL     1      50.344   7.485  16.054  0.00  0.00    +0.000 HD
BRANCH  22  25
ATOM     25  C   UNL     1      48.864   7.562  18.166  0.00  0.00    +0.000 A 
ATOM     26  C   UNL     1      49.013   8.092  19.442  0.00  0.00    +0.000 A 
ATOM     27  S   UNL     1      49.023   6.912  20.675  0.00  0.00    +0.000 S 
ATOM     28  C   UNL     1      48.882   5.649  19.543  0.00  0.00    +0.000 A 
ATOM     29  N   UNL     1      48.859   4.348  19.943  0.00  0.00    +0.000 NA
ATOM     30  C   UNL     1      48.780   3.495  18.976  0.00  0.00    +0.000 A 
ATOM     31  N   UNL     1      48.716   3.824  17.647  0.00  0.00    +0.000 N 
ATOM     32  C   UNL     1      48.707   5.123  17.200  0.00  0.00    +0.000 A 
ATOM     33  O   UNL     1      48.603   5.384  16.006  0.00  0.00    +0.000 OA
ATOM     34  C   UNL     1      48.808   6.122  18.246  0.00  0.00    +0.000 A 
ATOM     35  H   UNL     1      48.644   3.110  16.938  0.00  0.00    +0.000 HD
ENDBRANCH  22  25
ENDBRANCH  20  21
ENDBRANCH   4  20
TORSDOF 7
ENDMDL
