MODEL 1
REMARK VINA RESULT:    -8.083      0.000      0.000
REMARK INTER + INTRA:         -14.101
REMARK INTER:                 -12.100
REMARK INTRA:                  -2.001
REMARK UNBOUND:                -2.001
REMARK  Name = 
REMARK  11 active torsions:
REMARK  status: ('A' for Active; 'I' for Inactive)
REMARK    1  A    between atoms: C_1  and  C_2
REMARK    2  A    between atoms: C_2  and  C_3
REMARK    3  A    between atoms: C_3  and  C_4
REMARK    4  A    between atoms: C_4  and  N_5
REMARK    5  A    between atoms: C_4  and  C_18
REMARK    6  A    between atoms: C_6  and  C_8
REMARK    7  A    between atoms: C_21  and  C_22
REMARK    8  A    between atoms: C_22  and  C_23
REMARK    9  A    between atoms: C_22  and  N_24
REMARK   10  A    between atoms: N_24  and  C_25
REMARK   11  A    between atoms: C_28  and  O_29
REMARK                            x       y       z     vdW  Elec       q    Type
REMARK                         _______ _______ _______ _____ _____    ______ ____
ROOT
ATOM      1  C   UNL     1      47.785   7.296  12.729  0.00  0.00    +0.000 C 
ENDROOT
BRANCH   1   2
ATOM      2  C   UNL     1      46.525   6.491  12.444  0.00  0.00    +0.000 A 
ATOM      3  C   UNL     1      45.574   6.965  11.531  0.00  0.00    +0.000 A 
ATOM      4  C   UNL     1      44.574   6.119  11.039  0.00  0.00    +0.000 A 
ATOM      5  C   UNL     1      44.498   4.781  11.459  0.00  0.00    +0.000 A 
ATOM      6  C   UNL     1      45.388   4.346  12.452  0.00  0.00    +0.000 A 
ATOM      7  C   UNL     1      46.379   5.191  12.949  0.00  0.00    +0.000 A 
BRANCH   5   8
ATOM      8  C   UNL     1      43.482   3.822  10.833  0.00  0.00    +0.000 C 
ATOM      9  C   UNL     1      43.438   2.533  11.659  0.00  0.00    +0.000 C 
BRANCH   8  10
ATOM     10  N   UNL     1      43.816   3.611   9.415  0.00  0.00    +0.000 NA
ATOM     11  H   UNL     1      43.642   4.471   8.898  0.00  0.00    +0.000 HD
BRANCH  10  12
ATOM     12  C   UNL     1      45.147   3.094   9.078  0.00  0.00    +0.000 C 
ATOM     13  C   UNL     1      45.123   1.609   8.680  0.00  0.00    +0.000 C 
ATOM     14  C   UNL     1      46.446   1.136   8.075  0.00  0.00    +0.000 C 
ATOM     15  C   UNL     1      46.850   2.000   6.885  0.00  0.00    +0.000 C 
ATOM     16  C   UNL     1      46.989   3.455   7.319  0.00  0.00    +0.000 C 
ATOM     17  C   UNL     1      45.692   3.975   7.928  0.00  0.00    +0.000 C 
BRANCH  15  18
ATOM     18  O   UNL     1      48.072   1.528   6.332  0.00  0.00    +0.000 OA
ATOM     19  H   UNL     1      48.076   0.557   6.365  0.00  0.00    +0.000 HD
ENDBRANCH  15  18
ENDBRANCH  10  12
ENDBRANCH   8  10
ENDBRANCH   5   8
ENDBRANCH   1   2
BRANCH   1  20
ATOM     20  N   UNL     1      48.552   6.705  13.815  0.00  0.00    +0.000 N 
ATOM     21  C   UNL     1      48.768   7.377  14.994  0.00  0.00    +0.000 C 
ATOM     22  O   UNL     1      48.279   8.482  15.216  0.00  0.00    +0.000 OA
ATOM     23  H   UNL     1      49.122   5.894  13.600  0.00  0.00    +0.000 HD
BRANCH  21  24
ATOM     24  C   UNL     1      49.567   6.688  16.016  0.00  0.00    +0.000 A 
ATOM     25  C   UNL     1      50.797   7.213  16.390  0.00  0.00    +0.000 A 
ATOM     26  S   UNL     1      51.599   6.298  17.584  0.00  0.00    +0.000 S 
ATOM     27  C   UNL     1      50.359   5.133  17.599  0.00  0.00    +0.000 A 
ATOM     28  N   UNL     1      50.453   4.024  18.381  0.00  0.00    +0.000 NA
ATOM     29  C   UNL     1      49.471   3.197  18.251  0.00  0.00    +0.000 A 
ATOM     30  N   UNL     1      48.392   3.390  17.426  0.00  0.00    +0.000 N 
ATOM     31  C   UNL     1      48.219   4.529  16.674  0.00  0.00    +0.000 A 
ATOM     32  O   UNL     1      47.189   4.726  16.031  0.00  0.00    +0.000 OA
ATOM     33  C   UNL     1      49.326   5.464  16.738  0.00  0.00    +0.000 A 
ATOM     34  H   UNL     1      47.644   2.713  17.393  0.00  0.00    +0.000 HD
ENDBRANCH  21  24
ENDBRANCH   1  20
BRANCH   1  35
ATOM     35  C   UNL     1      48.648   7.425  11.447  0.00  0.00    +0.000 C 
BRANCH  35  37
ATOM     36  C   UNL     1      48.729   9.947  11.646  0.00  0.00    +0.000 C 
ATOM     37  C   UNL     1      49.540   8.675  11.449  0.00  0.00    +0.000 C 
ENDBRANCH  35  37
ENDBRANCH   1  35
TORSDOF 9
ENDMDL
MODEL 2
REMARK VINA RESULT:    -7.962      2.651      4.074
REMARK INTER + INTRA:         -13.919
REMARK INTER:                 -11.990
REMARK INTRA:                  -1.929
REMARK UNBOUND:                -2.001
REMARK  Name = 
REMARK  11 active torsions:
REMARK  status: ('A' for Active; 'I' for Inactive)
REMARK    1  A    between atoms: C_1  and  C_2
REMARK    2  A    between atoms: C_2  and  C_3
REMARK    3  A    between atoms: C_3  and  C_4
REMARK    4  A    between atoms: C_4  and  N_5
REMARK    5  A    between atoms: C_4  and  C_18
REMARK    6  A    between atoms: C_6  and  C_8
REMARK    7  A    between atoms: C_21  and  C_22
REMARK    8  A    between atoms: C_22  and  C_23
REMARK    9  A    between atoms: C_22  and  N_24
REMARK   10  A    between atoms: N_24  and  C_25
REMARK   11  A    between atoms: C_28  and  O_29
REMARK                            x       y       z     vdW  Elec       q    Type
REMARK                         _______ _______ _______ _____ _____    ______ ____
ROOT
ATOM      1  C   UNL     1      47.800   4.851  15.131  0.00  0.00    +0.000 C 
ENDROOT
BRANCH   1   2
ATOM      2  C   UNL     1      47.144   4.703  13.765  0.00  0.00    +0.000 A 
ATOM      3  C   UNL     1      46.505   3.508  13.413  0.00  0.00    +0.000 A 
ATOM      4  C   UNL     1      45.654   3.454  12.303  0.00  0.00    +0.000 A 
ATOM      5  C   UNL     1      45.433   4.596  11.515  0.00  0.00    +0.000 A 
ATOM      6  C   UNL     1      46.159   5.759  11.813  0.00  0.00    +0.000 A 
ATOM      7  C   UNL     1      47.014   5.810  12.914  0.00  0.00    +0.000 A 
BRANCH   5   8
ATOM      8  C   UNL     1      44.412   4.572  10.374  0.00  0.00    +0.000 C 
ATOM      9  C   UNL     1      43.091   5.163  10.874  0.00  0.00    +0.000 C 
BRANCH   8  10
ATOM     10  N   UNL     1      44.293   3.201   9.852  0.00  0.00    +0.000 NA
ATOM     11  H   UNL     1      43.311   2.932   9.836  0.00  0.00    +0.000 HD
BRANCH  10  12
ATOM     12  C   UNL     1      44.912   2.886   8.559  0.00  0.00    +0.000 C 
ATOM     13  C   UNL     1      45.815   4.019   8.043  0.00  0.00    +0.000 C 
ATOM     14  C   UNL     1      46.665   3.599   6.843  0.00  0.00    +0.000 C 
ATOM     15  C   UNL     1      47.494   2.359   7.160  0.00  0.00    +0.000 C 
ATOM     16  C   UNL     1      46.578   1.204   7.555  0.00  0.00    +0.000 C 
ATOM     17  C   UNL     1      45.709   1.574   8.751  0.00  0.00    +0.000 C 
BRANCH  15  18
ATOM     18  O   UNL     1      48.286   2.000   6.035  0.00  0.00    +0.000 OA
ATOM     19  H   UNL     1      47.993   2.520   5.268  0.00  0.00    +0.000 HD
ENDBRANCH  15  18
ENDBRANCH  10  12
ENDBRANCH   8  10
ENDBRANCH   5   8
ENDBRANCH   1   2
BRANCH   1  20
ATOM     20  N   UNL     1      47.813   6.241  15.561  0.00  0.00    +0.000 N 
ATOM     21  C   UNL     1      48.978   6.871  15.925  0.00  0.00    +0.000 C 
ATOM     22  O   UNL     1      50.072   6.317  15.853  0.00  0.00    +0.000 OA
ATOM     23  H   UNL     1      46.926   6.662  15.814  0.00  0.00    +0.000 HD
BRANCH  21  24
ATOM     24  C   UNL     1      48.870   8.272  16.354  0.00  0.00    +0.000 A 
ATOM     25  C   UNL     1      49.413   9.274  15.560  0.00  0.00    +0.000 A 
ATOM     26  S   UNL     1      49.205  10.841  16.196  0.00  0.00    +0.000 S 
ATOM     27  C   UNL     1      48.435  10.233  17.586  0.00  0.00    +0.000 A 
ATOM     28  N   UNL     1      48.044  11.066  18.588  0.00  0.00    +0.000 NA
ATOM     29  C   UNL     1      47.526  10.465  19.606  0.00  0.00    +0.000 A 
ATOM     30  N   UNL     1      47.344   9.108  19.703  0.00  0.00    +0.000 N 
ATOM     31  C   UNL     1      47.657   8.237  18.686  0.00  0.00    +0.000 A 
ATOM     32  O   UNL     1      47.379   7.040  18.755  0.00  0.00    +0.000 OA
ATOM     33  C   UNL     1      48.298   8.855  17.542  0.00  0.00    +0.000 A 
ATOM     34  H   UNL     1      46.908   8.707  20.520  0.00  0.00    +0.000 HD
ENDBRANCH  21  24
ENDBRANCH   1  20
BRANCH   1  35
ATOM     35  C   UNL     1      47.086   3.954  16.175  0.00  0.00    +0.000 C 
BRANCH  35  37
ATOM     36  C   UNL     1      48.934   2.297  16.668  0.00  0.00    +0.000 C 
ATOM     37  C   UNL     1      48.043   3.391  17.236  0.00  0.00    +0.000 C 
ENDBRANCH  35  37
ENDBRANCH   1  35
TORSDOF 9
ENDMDL
MODEL 3
REMARK VINA RESULT:    -7.598      1.455      2.121
REMARK INTER + INTRA:         -13.374
REMARK INTER:                 -11.743
REMARK INTRA:                  -1.631
REMARK UNBOUND:                -2.001
REMARK  Name = 
REMARK  11 active torsions:
REMARK  status: ('A' for Active; 'I' for Inactive)
REMARK    1  A    between atoms: C_1  and  C_2
REMARK    2  A    between atoms: C_2  and  C_3
REMARK    3  A    between atoms: C_3  and  C_4
REMARK    4  A    between atoms: C_4  and  N_5
REMARK    5  A    between atoms: C_4  and  C_18
REMARK    6  A    between atoms: C_6  and  C_8
REMARK    7  A    between atoms: C_21  and  C_22
REMARK    8  A    between atoms: C_22  and  C_23
REMARK    9  A    between atoms: C_22  and  N_24
REMARK   10  A    between atoms: N_24  and  C_25
REMARK   11  A    between atoms: C_28  and  O_29
REMARK                            x       y       z     vdW  Elec       q    Type
REMARK                         _______ _______ _______ _____ _____    ______ ____
ROOT
ATOM      1  C   UNL     1      47.922   6.963  13.634  0.00  0.00    +0.000 C 
ENDROOT
BRANCH   1   2
ATOM      2  C   UNL     1      47.023   6.095  12.765  0.00  0.00    +0.000 A 
ATOM      3  C   UNL     1      46.611   4.833  13.211  0.00  0.00    +0.000 A 
ATOM      4  C   UNL     1      45.565   4.157  12.573  0.00  0.00    +0.000 A 
ATOM      5  C   UNL     1      44.914   4.728  11.466  0.00  0.00    +0.000 A 
ATOM      6  C   UNL     1      45.403   5.942  10.962  0.00  0.00    +0.000 A 
ATOM      7  C   UNL     1      46.452   6.612  11.593  0.00  0.00    +0.000 A 
BRANCH   5   8
ATOM      8  C   UNL     1      43.693   4.048  10.842  0.00  0.00    +0.000 C 
ATOM      9  C   UNL     1      43.330   2.814  11.672  0.00  0.00    +0.000 C 
BRANCH   8  10
ATOM     10  N   UNL     1      43.967   3.754   9.425  0.00  0.00    +0.000 NA
ATOM     11  H   UNL     1      43.827   4.599   8.875  0.00  0.00    +0.000 HD
BRANCH  10  12
ATOM     12  C   UNL     1      45.254   3.142   9.072  0.00  0.00    +0.000 C 
ATOM     13  C   UNL     1      45.123   1.653   8.714  0.00  0.00    +0.000 C 
ATOM     14  C   UNL     1      46.398   1.079   8.093  0.00  0.00    +0.000 C 
ATOM     15  C   UNL     1      46.828   1.885   6.872  0.00  0.00    +0.000 C 
ATOM     16  C   UNL     1      47.072   3.339   7.264  0.00  0.00    +0.000 C 
ATOM     17  C   UNL     1      45.827   3.957   7.888  0.00  0.00    +0.000 C 
BRANCH  15  18
ATOM     18  O   UNL     1      48.004   1.321   6.304  0.00  0.00    +0.000 OA
ATOM     19  H   UNL     1      48.770   1.594   6.836  0.00  0.00    +0.000 HD
ENDBRANCH  15  18
ENDBRANCH  10  12
ENDBRANCH   8  10
ENDBRANCH   5   8
ENDBRANCH   1   2
BRANCH   1  20
ATOM     20  N   UNL     1      48.342   6.252  14.832  0.00  0.00    +0.000 N 
ATOM     21  C   UNL     1      48.746   6.919  15.963  0.00  0.00    +0.000 C 
ATOM     22  O   UNL     1      48.719   8.145  16.043  0.00  0.00    +0.000 OA
ATOM     23  H   UNL     1      48.558   5.265  14.740  0.00  0.00    +0.000 HD
BRANCH  21  24
ATOM     24  C   UNL     1      49.159   6.098  17.108  0.00  0.00    +0.000 A 
ATOM     25  C   UNL     1      48.195   5.585  17.965  0.00  0.00    +0.000 A 
ATOM     26  S   UNL     1      48.836   4.655  19.241  0.00  0.00    +0.000 S 
ATOM     27  C   UNL     1      50.431   4.956  18.730  0.00  0.00    +0.000 A 
ATOM     28  N   UNL     1      51.491   4.483  19.438  0.00  0.00    +0.000 NA
ATOM     29  C   UNL     1      52.641   4.835  18.970  0.00  0.00    +0.000 A 
ATOM     30  N   UNL     1      52.827   5.597  17.845  0.00  0.00    +0.000 N 
ATOM     31  C   UNL     1      51.787   6.034  17.058  0.00  0.00    +0.000 A 
ATOM     32  O   UNL     1      51.986   6.619  15.993  0.00  0.00    +0.000 OA
ATOM     33  C   UNL     1      50.470   5.717  17.574  0.00  0.00    +0.000 A 
ATOM     34  H   UNL     1      53.758   5.813  17.519  0.00  0.00    +0.000 HD
ENDBRANCH  21  24
ENDBRANCH   1  20
BRANCH   1  35
ATOM     35  C   UNL     1      49.148   7.455  12.823  0.00  0.00    +0.000 C 
BRANCH  35  37
ATOM     36  C   UNL     1      47.848   9.611  13.080  0.00  0.00    +0.000 C 
ATOM     37  C   UNL     1      49.124   8.968  12.559  0.00  0.00    +0.000 C 
ENDBRANCH  35  37
ENDBRANCH   1  35
TORSDOF 9
ENDMDL
MODEL 4
REMARK VINA RESULT:    -7.384      1.066      1.701
REMARK INTER + INTRA:         -13.055
REMARK INTER:                 -11.894
REMARK INTRA:                  -1.161
REMARK UNBOUND:                -2.001
REMARK  Name = 
REMARK  11 active torsions:
REMARK  status: ('A' for Active; 'I' for Inactive)
REMARK    1  A    between atoms: C_1  and  C_2
REMARK    2  A    between atoms: C_2  and  C_3
REMARK    3  A    between atoms: C_3  and  C_4
REMARK    4  A    between atoms: C_4  and  N_5
REMARK    5  A    between atoms: C_4  and  C_18
REMARK    6  A    between atoms: C_6  and  C_8
REMARK    7  A    between atoms: C_21  and  C_22
REMARK    8  A    between atoms: C_22  and  C_23
REMARK    9  A    between atoms: C_22  and  N_24
REMARK   10  A    between atoms: N_24  and  C_25
REMARK   11  A    between atoms: C_28  and  O_29
REMARK                            x       y       z     vdW  Elec       q    Type
REMARK                         _______ _______ _______ _____ _____    ______ ____
ROOT
ATOM      1  C   UNL     1      47.326   7.361  13.182  0.00  0.00    +0.000 C 
ENDROOT
BRANCH   1   2
ATOM      2  C   UNL     1      46.757   6.214  12.359  0.00  0.00    +0.000 A 
ATOM      3  C   UNL     1      46.464   4.986  12.965  0.00  0.00    +0.000 A 
ATOM      4  C   UNL     1      45.677   4.035  12.304  0.00  0.00    +0.000 A 
ATOM      5  C   UNL     1      45.176   4.290  11.017  0.00  0.00    +0.000 A 
ATOM      6  C   UNL     1      45.563   5.477  10.378  0.00  0.00    +0.000 A 
ATOM      7  C   UNL     1      46.354   6.421  11.032  0.00  0.00    +0.000 A 
BRANCH   5   8
ATOM      8  C   UNL     1      44.219   3.304  10.342  0.00  0.00    +0.000 C 
ATOM      9  C   UNL     1      43.131   2.901  11.342  0.00  0.00    +0.000 C 
BRANCH   8  10
ATOM     10  N   UNL     1      44.985   2.168   9.804  0.00  0.00    +0.000 NA
ATOM     11  H   UNL     1      44.489   1.303  10.007  0.00  0.00    +0.000 HD
BRANCH  10  12
ATOM     12  C   UNL     1      45.375   2.192   8.389  0.00  0.00    +0.000 C 
ATOM     13  C   UNL     1      45.938   3.555   7.953  0.00  0.00    +0.000 C 
ATOM     14  C   UNL     1      46.588   3.512   6.569  0.00  0.00    +0.000 C 
ATOM     15  C   UNL     1      47.672   2.441   6.501  0.00  0.00    +0.000 C 
ATOM     16  C   UNL     1      47.077   1.073   6.818  0.00  0.00    +0.000 C 
ATOM     17  C   UNL     1      46.416   1.064   8.192  0.00  0.00    +0.000 C 
BRANCH  15  18
ATOM     18  O   UNL     1      48.271   2.433   5.212  0.00  0.00    +0.000 OA
ATOM     19  H   UNL     1      47.758   1.846   4.632  0.00  0.00    +0.000 HD
ENDBRANCH  15  18
ENDBRANCH  10  12
ENDBRANCH   8  10
ENDBRANCH   5   8
ENDBRANCH   1   2
BRANCH   1  20
ATOM     20  N   UNL     1      48.382   6.900  14.070  0.00  0.00    +0.000 N 
ATOM     21  C   UNL     1      48.760   7.621  15.176  0.00  0.00    +0.000 C 
ATOM     22  O   UNL     1      48.192   8.658  15.506  0.00  0.00    +0.000 OA
ATOM     23  H   UNL     1      48.992   6.164  13.730  0.00  0.00    +0.000 HD
BRANCH  21  24
ATOM     24  C   UNL     1      49.847   7.064  15.993  0.00  0.00    +0.000 A 
ATOM     25  C   UNL     1      51.031   7.776  16.133  0.00  0.00    +0.000 A 
ATOM     26  S   UNL     1      52.189   6.997  17.109  0.00  0.00    +0.000 S 
ATOM     27  C   UNL     1      51.174   5.650  17.332  0.00  0.00    +0.000 A 
ATOM     28  N   UNL     1      51.594   4.568  18.040  0.00  0.00    +0.000 NA
ATOM     29  C   UNL     1      50.745   3.597  18.081  0.00  0.00    +0.000 A 
ATOM     30  N   UNL     1      49.505   3.619  17.495  0.00  0.00    +0.000 N 
ATOM     31  C   UNL     1      49.010   4.717  16.833  0.00  0.00    +0.000 A 
ATOM     32  O   UNL     1      47.853   4.751  16.415  0.00  0.00    +0.000 OA
ATOM     33  C   UNL     1      49.949   5.815  16.707  0.00  0.00    +0.000 A 
ATOM     34  H   UNL     1      48.880   2.832  17.589  0.00  0.00    +0.000 HD
ENDBRANCH  21  24
ENDBRANCH   1  20
BRANCH   1  35
ATOM     35  C   UNL     1      47.836   8.493  12.254  0.00  0.00    +0.000 C 
BRANCH  35  37
ATOM     36  C   UNL     1      45.531   9.486  12.577  0.00  0.00    +0.000 C 
ATOM     37  C   UNL     1      47.009   9.782  12.369  0.00  0.00    +0.000 C 
ENDBRANCH  35  37
ENDBRANCH   1  35
TORSDOF 9
ENDMDL
MODEL 5
REMARK VINA RESULT:    -7.220      2.378      4.351
REMARK INTER + INTRA:         -12.808
REMARK INTER:                 -11.378
REMARK INTRA:                  -1.430
REMARK UNBOUND:                -2.001
REMARK  Name = 
REMARK  11 active torsions:
REMARK  status: ('A' for Active; 'I' for Inactive)
REMARK    1  A    between atoms: C_1  and  C_2
REMARK    2  A    between atoms: C_2  and  C_3
REMARK    3  A    between atoms: C_3  and  C_4
REMARK    4  A    between atoms: C_4  and  N_5
REMARK    5  A    between atoms: C_4  and  C_18
REMARK    6  A    between atoms: C_6  and  C_8
REMARK    7  A    between atoms: C_21  and  C_22
REMARK    8  A    between atoms: C_22  and  C_23
REMARK    9  A    between atoms: C_22  and  N_24
REMARK   10  A    between atoms: N_24  and  C_25
REMARK   11  A    between atoms: C_28  and  O_29
REMARK                            x       y       z     vdW  Elec       q    Type
REMARK                         _______ _______ _______ _____ _____    ______ ____
ROOT
ATOM      1  C   UNL     1      47.872   4.927  15.124  0.00  0.00    +0.000 C 
ENDROOT
BRANCH   1   2
ATOM      2  C   UNL     1      46.860   4.861  13.989  0.00  0.00    +0.000 A 
ATOM      3  C   UNL     1      46.585   5.998  13.218  0.00  0.00    +0.000 A 
ATOM      4  C   UNL     1      45.896   5.888  12.005  0.00  0.00    +0.000 A 
ATOM      5  C   UNL     1      45.458   4.636  11.542  0.00  0.00    +0.000 A 
ATOM      6  C   UNL     1      45.644   3.520  12.371  0.00  0.00    +0.000 A 
ATOM      7  C   UNL     1      46.323   3.630  13.584  0.00  0.00    +0.000 A 
BRANCH   5   8
ATOM      8  C   UNL     1      44.811   4.496  10.162  0.00  0.00    +0.000 C 
ATOM      9  C   UNL     1      43.401   5.091  10.209  0.00  0.00    +0.000 C 
BRANCH   8  10
ATOM     10  N   UNL     1      44.850   3.085   9.743  0.00  0.00    +0.000 NA
ATOM     11  H   UNL     1      43.928   2.673   9.871  0.00  0.00    +0.000 HD
BRANCH  10  12
ATOM     12  C   UNL     1      45.352   2.765   8.402  0.00  0.00    +0.000 C 
ATOM     13  C   UNL     1      46.249   3.873   7.825  0.00  0.00    +0.000 C 
ATOM     14  C   UNL     1      46.986   3.438   6.557  0.00  0.00    +0.000 C 
ATOM     15  C   UNL     1      47.796   2.168   6.797  0.00  0.00    +0.000 C 
ATOM     16  C   UNL     1      46.876   1.040   7.254  0.00  0.00    +0.000 C 
ATOM     17  C   UNL     1      46.118   1.425   8.519  0.00  0.00    +0.000 C 
BRANCH  15  18
ATOM     18  O   UNL     1      48.484   1.796   5.609  0.00  0.00    +0.000 OA
ATOM     19  H   UNL     1      48.383   2.507   4.955  0.00  0.00    +0.000 HD
ENDBRANCH  15  18
ENDBRANCH  10  12
ENDBRANCH   8  10
ENDBRANCH   5   8
ENDBRANCH   1   2
BRANCH   1  20
ATOM     20  N   UNL     1      48.098   6.300  15.549  0.00  0.00    +0.000 N 
ATOM     21  C   UNL     1      49.289   6.695  16.109  0.00  0.00    +0.000 C 
ATOM     22  O   UNL     1      50.241   5.928  16.227  0.00  0.00    +0.000 OA
ATOM     23  H   UNL     1      47.286   6.901  15.645  0.00  0.00    +0.000 HD
BRANCH  21  24
ATOM     24  C   UNL     1      49.400   8.103  16.511  0.00  0.00    +0.000 A 
ATOM     25  C   UNL     1      48.458   8.642  17.379  0.00  0.00    +0.000 A 
ATOM     26  S   UNL     1      48.727  10.284  17.748  0.00  0.00    +0.000 S 
ATOM     27  C   UNL     1      50.076  10.351  16.714  0.00  0.00    +0.000 A 
ATOM     28  N   UNL     1      50.751  11.516  16.521  0.00  0.00    +0.000 NA
ATOM     29  C   UNL     1      51.716  11.436  15.668  0.00  0.00    +0.000 A 
ATOM     30  N   UNL     1      52.082  10.291  15.008  0.00  0.00    +0.000 N 
ATOM     31  C   UNL     1      51.477   9.075  15.226  0.00  0.00    +0.000 A 
ATOM     32  O   UNL     1      51.898   8.043  14.706  0.00  0.00    +0.000 OA
ATOM     33  C   UNL     1      50.345   9.123  16.132  0.00  0.00    +0.000 A 
ATOM     34  H   UNL     1      52.867  10.294  14.372  0.00  0.00    +0.000 HD
ENDBRANCH  21  24
ENDBRANCH   1  20
BRANCH   1  35
ATOM     35  C   UNL     1      47.409   4.047  16.314  0.00  0.00    +0.000 C 
BRANCH  35  37
ATOM     36  C   UNL     1      49.252   2.916  17.630  0.00  0.00    +0.000 C 
ATOM     37  C   UNL     1      48.257   2.778  16.487  0.00  0.00    +0.000 C 
ENDBRANCH  35  37
ENDBRANCH   1  35
TORSDOF 9
ENDMDL
MODEL 6
REMARK VINA RESULT:    -6.884      2.471      3.903
REMARK INTER + INTRA:         -12.305
REMARK INTER:                 -11.176
REMARK INTRA:                  -1.129
REMARK UNBOUND:                -2.001
REMARK  Name = 
REMARK  11 active torsions:
REMARK  status: ('A' for Active; 'I' for Inactive)
REMARK    1  A    between atoms: C_1  and  C_2
REMARK    2  A    between atoms: C_2  and  C_3
REMARK    3  A    between atoms: C_3  and  C_4
REMARK    4  A    between atoms: C_4  and  N_5
REMARK    5  A    between atoms: C_4  and  C_18
REMARK    6  A    between atoms: C_6  and  C_8
REMARK    7  A    between atoms: C_21  and  C_22
REMARK    8  A    between atoms: C_22  and  C_23
REMARK    9  A    between atoms: C_22  and  N_24
REMARK   10  A    between atoms: N_24  and  C_25
REMARK   11  A    between atoms: C_28  and  O_29
REMARK                            x       y       z     vdW  Elec       q    Type
REMARK                         _______ _______ _______ _____ _____    ______ ____
ROOT
ATOM      1  C   UNL     1      46.998   7.702  13.217  0.00  0.00    +0.000 C 
ENDROOT
BRANCH   1   2
ATOM      2  C   UNL     1      46.539   6.470  12.451  0.00  0.00    +0.000 A 
ATOM      3  C   UNL     1      46.119   5.324  13.139  0.00  0.00    +0.000 A 
ATOM      4  C   UNL     1      45.425   4.307  12.474  0.00  0.00    +0.000 A 
ATOM      5  C   UNL     1      45.146   4.410  11.101  0.00  0.00    +0.000 A 
ATOM      6  C   UNL     1      45.663   5.510  10.400  0.00  0.00    +0.000 A 
ATOM      7  C   UNL     1      46.362   6.519  11.061  0.00  0.00    +0.000 A 
BRANCH   5   8
ATOM      8  C   UNL     1      44.285   3.358  10.398  0.00  0.00    +0.000 C 
ATOM      9  C   UNL     1      43.221   2.850  11.375  0.00  0.00    +0.000 C 
BRANCH   8  10
ATOM     10  N   UNL     1      45.152   2.298   9.856  0.00  0.00    +0.000 NA
ATOM     11  H   UNL     1      44.767   1.390  10.106  0.00  0.00    +0.000 HD
BRANCH  10  12
ATOM     12  C   UNL     1      45.475   2.320   8.424  0.00  0.00    +0.000 C 
ATOM     13  C   UNL     1      46.095   3.653   7.977  0.00  0.00    +0.000 C 
ATOM     14  C   UNL     1      46.675   3.592   6.563  0.00  0.00    +0.000 C 
ATOM     15  C   UNL     1      47.690   2.461   6.431  0.00  0.00    +0.000 C 
ATOM     16  C   UNL     1      47.031   1.126   6.761  0.00  0.00    +0.000 C 
ATOM     17  C   UNL     1      46.437   1.136   8.165  0.00  0.00    +0.000 C 
BRANCH  15  18
ATOM     18  O   UNL     1      48.226   2.437   5.114  0.00  0.00    +0.000 OA
ATOM     19  H   UNL     1      49.106   2.848   5.127  0.00  0.00    +0.000 HD
ENDBRANCH  15  18
ENDBRANCH  10  12
ENDBRANCH   8  10
ENDBRANCH   5   8
ENDBRANCH   1   2
BRANCH   1  20
ATOM     20  N   UNL     1      48.437   7.686  13.428  0.00  0.00    +0.000 N 
ATOM     21  C   UNL     1      49.002   8.180  14.579  0.00  0.00    +0.000 C 
ATOM     22  O   UNL     1      48.324   8.606  15.510  0.00  0.00    +0.000 OA
ATOM     23  H   UNL     1      49.028   7.526  12.619  0.00  0.00    +0.000 HD
BRANCH  21  24
ATOM     24  C   UNL     1      50.466   8.123  14.678  0.00  0.00    +0.000 A 
ATOM     25  C   UNL     1      51.055   7.619  15.831  0.00  0.00    +0.000 A 
ATOM     26  S   UNL     1      52.758   7.621  15.789  0.00  0.00    +0.000 S 
ATOM     27  C   UNL     1      52.773   8.352  14.253  0.00  0.00    +0.000 A 
ATOM     28  N   UNL     1      53.945   8.689  13.651  0.00  0.00    +0.000 NA
ATOM     29  C   UNL     1      53.807   9.288  12.516  0.00  0.00    +0.000 A 
ATOM     30  N   UNL     1      52.603   9.560  11.918  0.00  0.00    +0.000 N 
ATOM     31  C   UNL     1      51.397   9.172  12.454  0.00  0.00    +0.000 A 
ATOM     32  O   UNL     1      50.340   9.328  11.843  0.00  0.00    +0.000 OA
ATOM     33  C   UNL     1      51.493   8.549  13.759  0.00  0.00    +0.000 A 
ATOM     34  H   UNL     1      52.569  10.009  11.014  0.00  0.00    +0.000 HD
ENDBRANCH  21  24
ENDBRANCH   1  20
BRANCH   1  35
ATOM     35  C   UNL     1      46.560   8.993  12.477  0.00  0.00    +0.000 C 
BRANCH  35  37
ATOM     36  C   UNL     1      44.591  10.297  11.566  0.00  0.00    +0.000 C 
ATOM     37  C   UNL     1      45.051   9.262  12.582  0.00  0.00    +0.000 C 
ENDBRANCH  35  37
ENDBRANCH   1  35
TORSDOF 9
ENDMDL
MODEL 7
REMARK VINA RESULT:    -6.494      3.518      4.658
REMARK INTER + INTRA:         -11.722
REMARK INTER:                 -10.399
REMARK INTRA:                  -1.324
REMARK UNBOUND:                -2.001
REMARK  Name = 
REMARK  11 active torsions:
REMARK  status: ('A' for Active; 'I' for Inactive)
REMARK    1  A    between atoms: C_1  and  C_2
REMARK    2  A    between atoms: C_2  and  C_3
REMARK    3  A    between atoms: C_3  and  C_4
REMARK    4  A    between atoms: C_4  and  N_5
REMARK    5  A    between atoms: C_4  and  C_18
REMARK    6  A    between atoms: C_6  and  C_8
REMARK    7  A    between atoms: C_21  and  C_22
REMARK    8  A    between atoms: C_22  and  C_23
REMARK    9  A    between atoms: C_22  and  N_24
REMARK   10  A    between atoms: N_24  and  C_25
REMARK   11  A    between atoms: C_28  and  O_29
REMARK                            x       y       z     vdW  Elec       q    Type
REMARK                         _______ _______ _______ _____ _____    ______ ____
ROOT
ATOM      1  C   UNL     1      44.692   8.724  11.844  0.00  0.00    +0.000 C 
ENDROOT
BRANCH   1   2
ATOM      2  C   UNL     1      44.532   7.220  11.673  0.00  0.00    +0.000 A 
ATOM      3  C   UNL     1      43.257   6.654  11.546  0.00  0.00    +0.000 A 
ATOM      4  C   UNL     1      43.104   5.337  11.098  0.00  0.00    +0.000 A 
ATOM      5  C   UNL     1      44.226   4.554  10.777  0.00  0.00    +0.000 A 
ATOM      6  C   UNL     1      45.499   5.094  11.010  0.00  0.00    +0.000 A 
ATOM      7  C   UNL     1      45.653   6.404  11.465  0.00  0.00    +0.000 A 
BRANCH   5   8
ATOM      8  C   UNL     1      44.057   3.158  10.174  0.00  0.00    +0.000 C 
ATOM      9  C   UNL     1      43.342   2.260  11.188  0.00  0.00    +0.000 C 
BRANCH   8  10
ATOM     10  N   UNL     1      45.371   2.647   9.747  0.00  0.00    +0.000 NA
ATOM     11  H   UNL     1      45.560   1.768  10.225  0.00  0.00    +0.000 HD
BRANCH  10  12
ATOM     12  C   UNL     1      45.630   2.494   8.311  0.00  0.00    +0.000 C 
ATOM     13  C   UNL     1      46.306   3.730   7.696  0.00  0.00    +0.000 C 
ATOM     14  C   UNL     1      46.818   3.480   6.276  0.00  0.00    +0.000 C 
ATOM     15  C   UNL     1      47.759   2.281   6.231  0.00  0.00    +0.000 C 
ATOM     16  C   UNL     1      47.039   1.032   6.731  0.00  0.00    +0.000 C 
ATOM     17  C   UNL     1      46.510   1.231   8.147  0.00  0.00    +0.000 C 
BRANCH  15  18
ATOM     18  O   UNL     1      48.233   2.082   4.905  0.00  0.00    +0.000 OA
ATOM     19  H   UNL     1      48.355   2.949   4.484  0.00  0.00    +0.000 HD
ENDBRANCH  15  18
ENDBRANCH  10  12
ENDBRANCH   8  10
ENDBRANCH   5   8
ENDBRANCH   1   2
BRANCH   1  20
ATOM     20  N   UNL     1      46.029   9.158  11.471  0.00  0.00    +0.000 N 
ATOM     21  C   UNL     1      47.030   9.292  12.402  0.00  0.00    +0.000 C 
ATOM     22  O   UNL     1      46.866   9.001  13.585  0.00  0.00    +0.000 OA
ATOM     23  H   UNL     1      46.146   9.585  10.558  0.00  0.00    +0.000 HD
BRANCH  21  24
ATOM     24  C   UNL     1      48.337   9.749  11.913  0.00  0.00    +0.000 A 
ATOM     25  C   UNL     1      48.404  10.844  11.061  0.00  0.00    +0.000 A 
ATOM     26  S   UNL     1      49.990  11.246  10.585  0.00  0.00    +0.000 S 
ATOM     27  C   UNL     1      50.640   9.933  11.450  0.00  0.00    +0.000 A 
ATOM     28  N   UNL     1      51.973   9.665  11.414  0.00  0.00    +0.000 NA
ATOM     29  C   UNL     1      52.320   8.608  12.068  0.00  0.00    +0.000 A 
ATOM     30  N   UNL     1      51.458   7.808  12.773  0.00  0.00    +0.000 N 
ATOM     31  C   UNL     1      50.116   8.082  12.898  0.00  0.00    +0.000 A 
ATOM     32  O   UNL     1      49.386   7.412  13.629  0.00  0.00    +0.000 OA
ATOM     33  C   UNL     1      49.663   9.226  12.132  0.00  0.00    +0.000 A 
ATOM     34  H   UNL     1      51.802   7.009  13.286  0.00  0.00    +0.000 HD
ENDBRANCH  21  24
ENDBRANCH   1  20
BRANCH   1  35
ATOM     35  C   UNL     1      43.615   9.480  11.023  0.00  0.00    +0.000 C 
BRANCH  35  37
ATOM     36  C   UNL     1      43.154  11.229   9.253  0.00  0.00    +0.000 C 
ATOM     37  C   UNL     1      44.213  10.363   9.918  0.00  0.00    +0.000 C 
ENDBRANCH  35  37
ENDBRANCH   1  35
TORSDOF 9
ENDMDL
MODEL 8
REMARK VINA RESULT:    -6.324      3.246      7.004
REMARK INTER + INTRA:         -11.467
REMARK INTER:                  -8.903
REMARK INTRA:                  -2.564
REMARK UNBOUND:                -2.001
REMARK  Name = 
REMARK  11 active torsions:
REMARK  status: ('A' for Active; 'I' for Inactive)
REMARK    1  A    between atoms: C_1  and  C_2
REMARK    2  A    between atoms: C_2  and  C_3
REMARK    3  A    between atoms: C_3  and  C_4
REMARK    4  A    between atoms: C_4  and  N_5
REMARK    5  A    between atoms: C_4  and  C_18
REMARK    6  A    between atoms: C_6  and  C_8
REMARK    7  A    between atoms: C_21  and  C_22
REMARK    8  A    between atoms: C_22  and  C_23
REMARK    9  A    between atoms: C_22  and  N_24
REMARK   10  A    between atoms: N_24  and  C_25
REMARK   11  A    between atoms: C_28  and  O_29
REMARK                            x       y       z     vdW  Elec       q    Type
REMARK                         _______ _______ _______ _____ _____    ______ ____
ROOT
ATOM      1  C   UNL     1      46.187   5.511  13.233  0.00  0.00    +0.000 C 
ENDROOT
BRANCH   1   2
ATOM      2  C   UNL     1      46.490   6.888  12.659  0.00  0.00    +0.000 A 
ATOM      3  C   UNL     1      45.616   7.958  12.886  0.00  0.00    +0.000 A 
ATOM      4  C   UNL     1      46.016   9.274  12.627  0.00  0.00    +0.000 A 
ATOM      5  C   UNL     1      47.299   9.546  12.125  0.00  0.00    +0.000 A 
ATOM      6  C   UNL     1      48.128   8.462  11.801  0.00  0.00    +0.000 A 
ATOM      7  C   UNL     1      47.726   7.150  12.050  0.00  0.00    +0.000 A 
BRANCH   5   8
ATOM      8  C   UNL     1      47.782  10.988  11.954  0.00  0.00    +0.000 C 
ATOM      9  C   UNL     1      48.717  11.062  10.744  0.00  0.00    +0.000 C 
BRANCH   8  10
ATOM     10  N   UNL     1      48.394  11.452  13.211  0.00  0.00    +0.000 NA
ATOM     11  H   UNL     1      47.696  11.950  13.760  0.00  0.00    +0.000 HD
BRANCH  10  12
ATOM     12  C   UNL     1      49.082  10.471  14.059  0.00  0.00    +0.000 C 
ATOM     13  C   UNL     1      50.599  10.433  13.810  0.00  0.00    +0.000 C 
ATOM     14  C   UNL     1      51.352   9.618  14.862  0.00  0.00    +0.000 C 
ATOM     15  C   UNL     1      51.055  10.126  16.270  0.00  0.00    +0.000 C 
ATOM     16  C   UNL     1      49.559  10.046  16.551  0.00  0.00    +0.000 C 
ATOM     17  C   UNL     1      48.763  10.846  15.526  0.00  0.00    +0.000 C 
BRANCH  15  18
ATOM     18  O   UNL     1      51.780   9.363  17.227  0.00  0.00    +0.000 OA
ATOM     19  H   UNL     1      52.493   8.886  16.770  0.00  0.00    +0.000 HD
ENDBRANCH  15  18
ENDBRANCH  10  12
ENDBRANCH   8  10
ENDBRANCH   5   8
ENDBRANCH   1   2
BRANCH   1  20
ATOM     20  N   UNL     1      46.763   5.354  14.559  0.00  0.00    +0.000 N 
ATOM     21  C   UNL     1      47.301   4.160  14.975  0.00  0.00    +0.000 C 
ATOM     22  O   UNL     1      47.375   3.183  14.234  0.00  0.00    +0.000 OA
ATOM     23  H   UNL     1      46.549   6.064  15.251  0.00  0.00    +0.000 HD
BRANCH  21  24
ATOM     24  C   UNL     1      47.843   4.114  16.339  0.00  0.00    +0.000 A 
ATOM     25  C   UNL     1      47.373   3.158  17.230  0.00  0.00    +0.000 A 
ATOM     26  S   UNL     1      48.102   3.237  18.768  0.00  0.00    +0.000 S 
ATOM     27  C   UNL     1      49.029   4.591  18.319  0.00  0.00    +0.000 A 
ATOM     28  N   UNL     1      49.846   5.206  19.215  0.00  0.00    +0.000 NA
ATOM     29  C   UNL     1      50.445   6.253  18.756  0.00  0.00    +0.000 A 
ATOM     30  N   UNL     1      50.317   6.728  17.476  0.00  0.00    +0.000 N 
ATOM     31  C   UNL     1      49.560   6.097  16.516  0.00  0.00    +0.000 A 
ATOM     32  O   UNL     1      49.553   6.480  15.346  0.00  0.00    +0.000 OA
ATOM     33  C   UNL     1      48.818   4.948  16.997  0.00  0.00    +0.000 A 
ATOM     34  H   UNL     1      50.837   7.540  17.176  0.00  0.00    +0.000 HD
ENDBRANCH  21  24
ENDBRANCH   1  20
BRANCH   1  35
ATOM     35  C   UNL     1      44.657   5.261  13.260  0.00  0.00    +0.000 C 
BRANCH  35  37
ATOM     36  C   UNL     1      42.825   5.512  11.532  0.00  0.00    +0.000 C 
ATOM     37  C   UNL     1      44.104   4.780  11.910  0.00  0.00    +0.000 C 
ENDBRANCH  35  37
ENDBRANCH   1  35
TORSDOF 9
ENDMDL
MODEL 9
REMARK VINA RESULT:    -6.172      3.956      7.725
REMARK INTER + INTRA:         -11.240
REMARK INTER:                  -9.357
REMARK INTRA:                  -1.883
REMARK UNBOUND:                -2.001
REMARK  Name = 
REMARK  11 active torsions:
REMARK  status: ('A' for Active; 'I' for Inactive)
REMARK    1  A    between atoms: C_1  and  C_2
REMARK    2  A    between atoms: C_2  and  C_3
REMARK    3  A    between atoms: C_3  and  C_4
REMARK    4  A    between atoms: C_4  and  N_5
REMARK    5  A    between atoms: C_4  and  C_18
REMARK    6  A    between atoms: C_6  and  C_8
REMARK    7  A    between atoms: C_21  and  C_22
REMARK    8  A    between atoms: C_22  and  C_23
REMARK    9  A    between atoms: C_22  and  N_24
REMARK   10  A    between atoms: N_24  and  C_25
REMARK   11  A    between atoms: C_28  and  O_29
REMARK                            x       y       z     vdW  Elec       q    Type
REMARK                         _______ _______ _______ _____ _____    ______ ____
ROOT
ATOM      1  C   UNL     1      47.081   8.306  12.478  0.00  0.00    +0.000 C 
ENDROOT
BRANCH   1   2
ATOM      2  C   UNL     1      48.425   8.464  11.782  0.00  0.00    +0.000 A 
ATOM      3  C   UNL     1      49.006   9.730  11.643  0.00  0.00    +0.000 A 
ATOM      4  C   UNL     1      50.352   9.862  11.280  0.00  0.00    +0.000 A 
ATOM      5  C   UNL     1      51.142   8.726  11.038  0.00  0.00    +0.000 A 
ATOM      6  C   UNL     1      50.524   7.468  11.076  0.00  0.00    +0.000 A 
ATOM      7  C   UNL     1      49.182   7.336  11.429  0.00  0.00    +0.000 A 
BRANCH   5   8
ATOM      8  C   UNL     1      52.641   8.863  10.759  0.00  0.00    +0.000 C 
ATOM      9  C   UNL     1      53.205  10.006  11.608  0.00  0.00    +0.000 C 
BRANCH   8  10
ATOM     10  N   UNL     1      52.857   9.032   9.312  0.00  0.00    +0.000 NA
ATOM     11  H   UNL     1      53.311   9.927   9.144  0.00  0.00    +0.000 HD
BRANCH  10  12
ATOM     12  C   UNL     1      53.563   7.974   8.580  0.00  0.00    +0.000 C 
ATOM     13  C   UNL     1      54.477   7.134   9.487  0.00  0.00    +0.000 C 
ATOM     14  C   UNL     1      55.004   5.876   8.795  0.00  0.00    +0.000 C 
ATOM     15  C   UNL     1      53.861   5.024   8.254  0.00  0.00    +0.000 C 
ATOM     16  C   UNL     1      53.030   5.831   7.262  0.00  0.00    +0.000 C 
ATOM     17  C   UNL     1      52.480   7.097   7.907  0.00  0.00    +0.000 C 
BRANCH  15  18
ATOM     18  O   UNL     1      54.377   3.853   7.632  0.00  0.00    +0.000 OA
ATOM     19  H   UNL     1      55.334   3.965   7.501  0.00  0.00    +0.000 HD
ENDBRANCH  15  18
ENDBRANCH  10  12
ENDBRANCH   8  10
ENDBRANCH   5   8
ENDBRANCH   1   2
BRANCH   1  20
ATOM     20  N   UNL     1      46.518   6.985  12.244  0.00  0.00    +0.000 N 
ATOM     21  C   UNL     1      45.264   6.821  11.707  0.00  0.00    +0.000 C 
ATOM     22  O   UNL     1      44.577   7.774  11.346  0.00  0.00    +0.000 OA
ATOM     23  H   UNL     1      46.965   6.197  12.700  0.00  0.00    +0.000 HD
BRANCH  21  24
ATOM     24  C   UNL     1      44.793   5.442  11.526  0.00  0.00    +0.000 A 
ATOM     25  C   UNL     1      44.113   4.811  12.560  0.00  0.00    +0.000 A 
ATOM     26  S   UNL     1      43.635   3.217  12.193  0.00  0.00    +0.000 S 
ATOM     27  C   UNL     1      44.373   3.291  10.662  0.00  0.00    +0.000 A 
ATOM     28  N   UNL     1      44.381   2.209   9.838  0.00  0.00    +0.000 NA
ATOM     29  C   UNL     1      45.024   2.387   8.734  0.00  0.00    +0.000 A 
ATOM     30  N   UNL     1      45.641   3.557   8.369  0.00  0.00    +0.000 N 
ATOM     31  C   UNL     1      45.596   4.697   9.137  0.00  0.00    +0.000 A 
ATOM     32  O   UNL     1      46.061   5.763   8.734  0.00  0.00    +0.000 OA
ATOM     33  C   UNL     1      44.936   4.533  10.417  0.00  0.00    +0.000 A 
ATOM     34  H   UNL     1      46.106   3.635   7.476  0.00  0.00    +0.000 HD
ENDBRANCH  21  24
ENDBRANCH   1  20
BRANCH   1  35
ATOM     35  C   UNL     1      47.221   8.587  13.997  0.00  0.00    +0.000 C 
BRANCH  35  37
ATOM     36  C   UNL     1      49.020   8.458  15.772  0.00  0.00    +0.000 C 
ATOM     37  C   UNL     1      48.282   7.707  14.674  0.00  0.00    +0.000 C 
ENDBRANCH  35  37
ENDBRANCH   1  35
TORSDOF 9
ENDMDL
