MODEL 1
REMARK VINA RESULT:    -7.054      0.000      0.000
REMARK INTER + INTRA:         -12.524
REMARK INTER:                 -10.971
REMARK INTRA:                  -1.553
REMARK UNBOUND:                -1.553
REMARK  Name = 
REMARK  10 active torsions:
REMARK  status: ('A' for Active; 'I' for Inactive)
REMARK    1  A    between atoms: N_1  and  C_2
REMARK    2  A    between atoms: C_2  and  C_3
REMARK    3  A    between atoms: C_3  and  N_4
REMARK    4  A    between atoms: N_4  and  C_5
REMARK    5  A    between atoms: C_5  and  C_6
REMARK    6  A    between atoms: C_9  and  C_10
REMARK    7  A    between atoms: C_10  and  C_11
REMARK    8  A    between atoms: C_11  and  N_12
REMARK    9  A    between atoms: N_12  and  C_13
REMARK   10  A    between atoms: C_20  and  C_22
REMARK                            x       y       z     vdW  Elec       q    Type
REMARK                         _______ _______ _______ _____ _____    ______ ____
ROOT
ATOM      1  N   UNL     1      46.120   6.987  11.891  0.00  0.00    +0.000 N 
ATOM      2  C   UNL     1      44.824   6.587  11.511  0.00  0.00    +0.000 C 
ATOM      3  O   UNL     1      43.963   7.416  11.230  0.00  0.00    +0.000 OA
ENDROOT
BRANCH   2   4
ATOM      4  C   UNL     1      44.490   5.155  11.458  0.00  0.00    +0.000 A 
ATOM      5  C   UNL     1      43.782   4.466  12.432  0.00  0.00    +0.000 A 
ATOM      6  S   UNL     1      43.503   2.826  12.047  0.00  0.00    +0.000 S 
ATOM      7  C   UNL     1      44.194   3.019  10.504  0.00  0.00    +0.000 A 
ATOM      8  N   UNL     1      44.182   2.000   9.599  0.00  0.00    +0.000 NA
ATOM      9  C   UNL     1      44.691   2.317   8.453  0.00  0.00    +0.000 A 
ATOM     10  N   UNL     1      45.232   3.531   8.140  0.00  0.00    +0.000 N 
ATOM     11  C   UNL     1      45.383   4.545   9.064  0.00  0.00    +0.000 A 
ATOM     12  O   UNL     1      46.082   5.521   8.821  0.00  0.00    +0.000 OA
ATOM     13  C   UNL     1      44.719   4.285  10.329  0.00  0.00    +0.000 A 
ATOM     14  H   UNL     1      45.670   3.686   7.245  0.00  0.00    +0.000 HD
ENDBRANCH   2   4
BRANCH   1  15
ATOM     15  C   UNL     1      46.376   8.442  11.938  0.00  0.00    +0.000 C 
BRANCH  15  16
ATOM     16  C   UNL     1      45.676   9.221  13.075  0.00  0.00    +0.000 C 
BRANCH  16  17
ATOM     17  N   UNL     1      44.529  10.028  12.638  0.00  0.00    +0.000 NA
ATOM     18  H   UNL     1      43.680   9.579  12.984  0.00  0.00    +0.000 HD
ATOM     19  H   UNL     1      44.464   9.984  11.622  0.00  0.00    +0.000 HD
ENDBRANCH  16  17
ENDBRANCH  15  16
ENDBRANCH   1  15
BRANCH   1  20
ATOM     20  C   UNL     1      47.200   6.023  12.139  0.00  0.00    +0.000 C 
BRANCH  20  21
ATOM     21  C   UNL     1      47.554   5.730  13.569  0.00  0.00    +0.000 A 
ATOM     22  C   UNL     1      47.024   4.594  14.185  0.00  0.00    +0.000 A 
ATOM     23  C   UNL     1      47.234   4.371  15.540  0.00  0.00    +0.000 A 
ATOM     24  C   UNL     1      47.985   5.271  16.312  0.00  0.00    +0.000 A 
ATOM     25  C   UNL     1      48.564   6.378  15.676  0.00  0.00    +0.000 A 
ATOM     26  C   UNL     1      48.357   6.603  14.313  0.00  0.00    +0.000 A 
BRANCH  24  27
ATOM     27  C   UNL     1      48.111   5.124  17.818  0.00  0.00    +0.000 C 
BRANCH  27  28
ATOM     28  C   UNL     1      48.477   3.699  18.247  0.00  0.00    +0.000 C 
BRANCH  28  29
ATOM     29  N   UNL     1      49.820   3.570  18.823  0.00  0.00    +0.000 NA
ATOM     30  H   UNL     1      49.835   2.782  19.472  0.00  0.00    +0.000 HD
BRANCH  29  31
ATOM     31  C   UNL     1      50.791   3.333  17.739  0.00  0.00    +0.000 C 
ATOM     32  C   UNL     1      50.593   1.987  17.046  0.00  0.00    +0.000 C 
ATOM     33  C   UNL     1      51.723   1.127  17.578  0.00  0.00    +0.000 C 
ATOM     34  N   UNL     1      52.853   2.055  17.689  0.00  0.00    +0.000 NA
ATOM     35  C   UNL     1      52.251   3.272  18.249  0.00  0.00    +0.000 C 
ATOM     36  H   UNL     1      53.204   2.265  16.756  0.00  0.00    +0.000 HD
ENDBRANCH  29  31
ENDBRANCH  28  29
ENDBRANCH  27  28
ENDBRANCH  24  27
ENDBRANCH  20  21
ENDBRANCH   1  20
TORSDOF 10
ENDMDL
MODEL 2
REMARK VINA RESULT:    -6.841      1.399      2.020
REMARK INTER + INTRA:         -12.194
REMARK INTER:                 -10.693
REMARK INTRA:                  -1.500
REMARK UNBOUND:                -1.553
REMARK  Name = 
REMARK  10 active torsions:
REMARK  status: ('A' for Active; 'I' for Inactive)
REMARK    1  A    between atoms: N_1  and  C_2
REMARK    2  A    between atoms: C_2  and  C_3
REMARK    3  A    between atoms: C_3  and  N_4
REMARK    4  A    between atoms: N_4  and  C_5
REMARK    5  A    between atoms: C_5  and  C_6
REMARK    6  A    between atoms: C_9  and  C_10
REMARK    7  A    between atoms: C_10  and  C_11
REMARK    8  A    between atoms: C_11  and  N_12
REMARK    9  A    between atoms: N_12  and  C_13
REMARK   10  A    between atoms: C_20  and  C_22
REMARK                            x       y       z     vdW  Elec       q    Type
REMARK                         _______ _______ _______ _____ _____    ______ ____
ROOT
ATOM      1  N   UNL     1      46.363   7.355  12.432  0.00  0.00    +0.000 N 
ATOM      2  C   UNL     1      45.276   7.250  11.543  0.00  0.00    +0.000 C 
ATOM      3  O   UNL     1      44.500   8.187  11.379  0.00  0.00    +0.000 OA
ENDROOT
BRANCH   2   4
ATOM      4  C   UNL     1      45.058   5.996  10.803  0.00  0.00    +0.000 A 
ATOM      5  C   UNL     1      45.590   5.706   9.555  0.00  0.00    +0.000 A 
ATOM      6  S   UNL     1      45.202   4.141   8.992  0.00  0.00    +0.000 S 
ATOM      7  C   UNL     1      44.433   3.749  10.458  0.00  0.00    +0.000 A 
ATOM      8  N   UNL     1      43.956   2.493  10.684  0.00  0.00    +0.000 NA
ATOM      9  C   UNL     1      43.452   2.334  11.865  0.00  0.00    +0.000 A 
ATOM     10  N   UNL     1      43.352   3.308  12.817  0.00  0.00    +0.000 N 
ATOM     11  C   UNL     1      43.700   4.622  12.583  0.00  0.00    +0.000 A 
ATOM     12  O   UNL     1      43.378   5.509  13.364  0.00  0.00    +0.000 OA
ATOM     13  C   UNL     1      44.384   4.829  11.319  0.00  0.00    +0.000 A 
ATOM     14  H   UNL     1      42.886   3.128  13.694  0.00  0.00    +0.000 HD
ENDBRANCH   2   4
BRANCH   1  15
ATOM     15  C   UNL     1      46.507   8.638  13.151  0.00  0.00    +0.000 C 
BRANCH  15  16
ATOM     16  C   UNL     1      47.060   9.823  12.327  0.00  0.00    +0.000 C 
BRANCH  16  17
ATOM     17  N   UNL     1      46.093  10.905  12.098  0.00  0.00    +0.000 NA
ATOM     18  H   UNL     1      46.297  11.321  11.188  0.00  0.00    +0.000 HD
ATOM     19  H   UNL     1      46.261  11.646  12.778  0.00  0.00    +0.000 HD
ENDBRANCH  16  17
ENDBRANCH  15  16
ENDBRANCH   1  15
BRANCH   1  20
ATOM     20  C   UNL     1      47.364   6.291  12.579  0.00  0.00    +0.000 C 
BRANCH  20  21
ATOM     21  C   UNL     1      47.616   5.762  13.963  0.00  0.00    +0.000 A 
ATOM     22  C   UNL     1      46.944   4.614  14.387  0.00  0.00    +0.000 A 
ATOM     23  C   UNL     1      47.063   4.180  15.701  0.00  0.00    +0.000 A 
ATOM     24  C   UNL     1      47.864   4.874  16.622  0.00  0.00    +0.000 A 
ATOM     25  C   UNL     1      48.582   5.991  16.174  0.00  0.00    +0.000 A 
ATOM     26  C   UNL     1      48.467   6.429  14.853  0.00  0.00    +0.000 A 
BRANCH  24  27
ATOM     27  C   UNL     1      47.899   4.502  18.093  0.00  0.00    +0.000 C 
BRANCH  27  28
ATOM     28  C   UNL     1      48.780   3.281  18.376  0.00  0.00    +0.000 C 
BRANCH  28  29
ATOM     29  N   UNL     1      50.147   3.609  18.797  0.00  0.00    +0.000 NA
ATOM     30  H   UNL     1      50.381   3.070  19.632  0.00  0.00    +0.000 HD
BRANCH  29  31
ATOM     31  C   UNL     1      51.084   3.266  17.712  0.00  0.00    +0.000 C 
ATOM     32  C   UNL     1      50.801   1.901  17.090  0.00  0.00    +0.000 C 
ATOM     33  C   UNL     1      51.892   1.007  17.646  0.00  0.00    +0.000 C 
ATOM     34  N   UNL     1      53.073   1.877  17.694  0.00  0.00    +0.000 NA
ATOM     35  C   UNL     1      52.547   3.151  18.201  0.00  0.00    +0.000 C 
ATOM     36  H   UNL     1      53.417   2.021  16.746  0.00  0.00    +0.000 HD
ENDBRANCH  29  31
ENDBRANCH  28  29
ENDBRANCH  27  28
ENDBRANCH  24  27
ENDBRANCH  20  21
ENDBRANCH   1  20
TORSDOF 10
ENDMDL
MODEL 3
REMARK VINA RESULT:    -6.512      2.020      3.442
REMARK INTER + INTRA:         -11.681
REMARK INTER:                  -9.944
REMARK INTRA:                  -1.738
REMARK UNBOUND:                -1.553
REMARK  Name = 
REMARK  10 active torsions:
REMARK  status: ('A' for Active; 'I' for Inactive)
REMARK    1  A    between atoms: N_1  and  C_2
REMARK    2  A    between atoms: C_2  and  C_3
REMARK    3  A    between atoms: C_3  and  N_4
REMARK    4  A    between atoms: N_4  and  C_5
REMARK    5  A    between atoms: C_5  and  C_6
REMARK    6  A    between atoms: C_9  and  C_10
REMARK    7  A    between atoms: C_10  and  C_11
REMARK    8  A    between atoms: C_11  and  N_12
REMARK    9  A    between atoms: N_12  and  C_13
REMARK   10  A    between atoms: C_20  and  C_22
REMARK                            x       y       z     vdW  Elec       q    Type
REMARK                         _______ _______ _______ _____ _____    ______ ____
ROOT
ATOM      1  N   UNL     1      46.082   6.999  11.879  0.00  0.00    +0.000 N 
ATOM      2  C   UNL     1      44.810   6.603  11.421  0.00  0.00    +0.000 C 
ATOM      3  O   UNL     1      43.973   7.434  11.079  0.00  0.00    +0.000 OA
ENDROOT
BRANCH   2   4
ATOM      4  C   UNL     1      44.471   5.172  11.360  0.00  0.00    +0.000 A 
ATOM      5  C   UNL     1      43.725   4.490  12.310  0.00  0.00    +0.000 A 
ATOM      6  S   UNL     1      43.452   2.850  11.919  0.00  0.00    +0.000 S 
ATOM      7  C   UNL     1      44.199   3.035  10.401  0.00  0.00    +0.000 A 
ATOM      8  N   UNL     1      44.215   2.014   9.499  0.00  0.00    +0.000 NA
ATOM      9  C   UNL     1      44.766   2.326   8.371  0.00  0.00    +0.000 A 
ATOM     10  N   UNL     1      45.324   3.537   8.075  0.00  0.00    +0.000 N 
ATOM     11  C   UNL     1      45.447   4.552   9.001  0.00  0.00    +0.000 A 
ATOM     12  O   UNL     1      46.159   5.524   8.781  0.00  0.00    +0.000 OA
ATOM     13  C   UNL     1      44.737   4.299  10.242  0.00  0.00    +0.000 A 
ATOM     14  H   UNL     1      45.795   3.687   7.195  0.00  0.00    +0.000 HD
ENDBRANCH   2   4
BRANCH   1  15
ATOM     15  C   UNL     1      46.343   8.453  11.930  0.00  0.00    +0.000 C 
BRANCH  15  16
ATOM     16  C   UNL     1      45.644   9.233  13.067  0.00  0.00    +0.000 C 
BRANCH  16  17
ATOM     17  N   UNL     1      44.467  10.001  12.639  0.00  0.00    +0.000 NA
ATOM     18  H   UNL     1      43.635   9.516  12.981  0.00  0.00    +0.000 HD
ATOM     19  H   UNL     1      44.402   9.964  11.622  0.00  0.00    +0.000 HD
ENDBRANCH  16  17
ENDBRANCH  15  16
ENDBRANCH   1  15
BRANCH   1  20
ATOM     20  C   UNL     1      47.137   6.032  12.204  0.00  0.00    +0.000 C 
BRANCH  20  21
ATOM     21  C   UNL     1      47.405   5.758  13.657  0.00  0.00    +0.000 A 
ATOM     22  C   UNL     1      48.276   6.594  14.360  0.00  0.00    +0.000 A 
ATOM     23  C   UNL     1      48.637   6.288  15.665  0.00  0.00    +0.000 A 
ATOM     24  C   UNL     1      48.132   5.146  16.306  0.00  0.00    +0.000 A 
ATOM     25  C   UNL     1      47.213   4.343  15.616  0.00  0.00    +0.000 A 
ATOM     26  C   UNL     1      46.846   4.650  14.304  0.00  0.00    +0.000 A 
BRANCH  24  27
ATOM     27  C   UNL     1      48.619   4.715  17.678  0.00  0.00    +0.000 C 
BRANCH  27  28
ATOM     28  C   UNL     1      47.843   5.380  18.819  0.00  0.00    +0.000 C 
BRANCH  28  29
ATOM     29  N   UNL     1      48.487   6.579  19.368  0.00  0.00    +0.000 NA
ATOM     30  H   UNL     1      49.299   6.816  18.797  0.00  0.00    +0.000 HD
BRANCH  29  31
ATOM     31  C   UNL     1      47.526   7.697  19.346  0.00  0.00    +0.000 C 
ATOM     32  C   UNL     1      47.857   8.745  18.287  0.00  0.00    +0.000 C 
ATOM     33  C   UNL     1      48.433   9.903  19.079  0.00  0.00    +0.000 C 
ATOM     34  N   UNL     1      47.637   9.920  20.311  0.00  0.00    +0.000 NA
ATOM     35  C   UNL     1      47.517   8.501  20.668  0.00  0.00    +0.000 C 
ATOM     36  H   UNL     1      46.708  10.283  20.102  0.00  0.00    +0.000 HD
ENDBRANCH  29  31
ENDBRANCH  28  29
ENDBRANCH  27  28
ENDBRANCH  24  27
ENDBRANCH  20  21
ENDBRANCH   1  20
TORSDOF 10
ENDMDL
MODEL 4
REMARK VINA RESULT:    -6.307      2.382      3.556
REMARK INTER + INTRA:         -11.364
REMARK INTER:                  -9.628
REMARK INTRA:                  -1.736
REMARK UNBOUND:                -1.553
REMARK  Name = 
REMARK  10 active torsions:
REMARK  status: ('A' for Active; 'I' for Inactive)
REMARK    1  A    between atoms: N_1  and  C_2
REMARK    2  A    between atoms: C_2  and  C_3
REMARK    3  A    between atoms: C_3  and  N_4
REMARK    4  A    between atoms: N_4  and  C_5
REMARK    5  A    between atoms: C_5  and  C_6
REMARK    6  A    between atoms: C_9  and  C_10
REMARK    7  A    between atoms: C_10  and  C_11
REMARK    8  A    between atoms: C_11  and  N_12
REMARK    9  A    between atoms: N_12  and  C_13
REMARK   10  A    between atoms: C_20  and  C_22
REMARK                            x       y       z     vdW  Elec       q    Type
REMARK                         _______ _______ _______ _____ _____    ______ ____
ROOT
ATOM      1  N   UNL     1      46.358   7.413  12.398  0.00  0.00    +0.000 N 
ATOM      2  C   UNL     1      45.281   7.273  11.503  0.00  0.00    +0.000 C 
ATOM      3  O   UNL     1      44.496   8.198  11.307  0.00  0.00    +0.000 OA
ENDROOT
BRANCH   2   4
ATOM      4  C   UNL     1      45.082   5.998  10.795  0.00  0.00    +0.000 A 
ATOM      5  C   UNL     1      45.657   5.666   9.577  0.00  0.00    +0.000 A 
ATOM      6  S   UNL     1      45.280   4.086   9.048  0.00  0.00    +0.000 S 
ATOM      7  C   UNL     1      44.455   3.744  10.497  0.00  0.00    +0.000 A 
ATOM      8  N   UNL     1      43.963   2.499  10.745  0.00  0.00    +0.000 NA
ATOM      9  C   UNL     1      43.415   2.379  11.910  0.00  0.00    +0.000 A 
ATOM     10  N   UNL     1      43.287   3.383  12.827  0.00  0.00    +0.000 N 
ATOM     11  C   UNL     1      43.652   4.687  12.566  0.00  0.00    +0.000 A 
ATOM     12  O   UNL     1      43.306   5.599  13.307  0.00  0.00    +0.000 OA
ATOM     13  C   UNL     1      44.382   4.851  11.322  0.00  0.00    +0.000 A 
ATOM     14  H   UNL     1      42.788   3.232  13.692  0.00  0.00    +0.000 HD
ENDBRANCH   2   4
BRANCH   1  15
ATOM     15  C   UNL     1      46.483   8.716  13.084  0.00  0.00    +0.000 C 
BRANCH  15  16
ATOM     16  C   UNL     1      47.755   9.535  12.765  0.00  0.00    +0.000 C 
BRANCH  16  17
ATOM     17  N   UNL     1      48.218  10.388  13.868  0.00  0.00    +0.000 NA
ATOM     18  H   UNL     1      47.601  11.200  13.917  0.00  0.00    +0.000 HD
ATOM     19  H   UNL     1      49.137  10.761  13.632  0.00  0.00    +0.000 HD
ENDBRANCH  16  17
ENDBRANCH  15  16
ENDBRANCH   1  15
BRANCH   1  20
ATOM     20  C   UNL     1      47.369   6.364  12.582  0.00  0.00    +0.000 C 
BRANCH  20  21
ATOM     21  C   UNL     1      47.489   5.747  13.947  0.00  0.00    +0.000 A 
ATOM     22  C   UNL     1      48.365   6.311  14.876  0.00  0.00    +0.000 A 
ATOM     23  C   UNL     1      48.587   5.686  16.097  0.00  0.00    +0.000 A 
ATOM     24  C   UNL     1      47.934   4.488  16.424  0.00  0.00    +0.000 A 
ATOM     25  C   UNL     1      47.012   3.958  15.511  0.00  0.00    +0.000 A 
ATOM     26  C   UNL     1      46.784   4.586  14.284  0.00  0.00    +0.000 A 
BRANCH  24  27
ATOM     27  C   UNL     1      48.265   3.714  17.687  0.00  0.00    +0.000 C 
BRANCH  27  28
ATOM     28  C   UNL     1      48.336   4.608  18.930  0.00  0.00    +0.000 C 
BRANCH  28  29
ATOM     29  N   UNL     1      47.165   5.471  19.119  0.00  0.00    +0.000 NA
ATOM     30  H   UNL     1      46.458   4.968  19.658  0.00  0.00    +0.000 HD
BRANCH  29  31
ATOM     31  C   UNL     1      47.571   6.685  19.851  0.00  0.00    +0.000 C 
ATOM     32  C   UNL     1      47.330   7.967  19.058  0.00  0.00    +0.000 C 
ATOM     33  C   UNL     1      48.714   8.380  18.595  0.00  0.00    +0.000 C 
ATOM     34  N   UNL     1      49.584   8.032  19.723  0.00  0.00    +0.000 NA
ATOM     35  C   UNL     1      49.088   6.718  20.154  0.00  0.00    +0.000 C 
ATOM     36  H   UNL     1      49.434   8.700  20.478  0.00  0.00    +0.000 HD
ENDBRANCH  29  31
ENDBRANCH  28  29
ENDBRANCH  27  28
ENDBRANCH  24  27
ENDBRANCH  20  21
ENDBRANCH   1  20
TORSDOF 10
ENDMDL
MODEL 5
REMARK VINA RESULT:    -6.273      3.309      8.201
REMARK INTER + INTRA:         -11.311
REMARK INTER:                  -9.627
REMARK INTRA:                  -1.684
REMARK UNBOUND:                -1.553
REMARK  Name = 
REMARK  10 active torsions:
REMARK  status: ('A' for Active; 'I' for Inactive)
REMARK    1  A    between atoms: N_1  and  C_2
REMARK    2  A    between atoms: C_2  and  C_3
REMARK    3  A    between atoms: C_3  and  N_4
REMARK    4  A    between atoms: N_4  and  C_5
REMARK    5  A    between atoms: C_5  and  C_6
REMARK    6  A    between atoms: C_9  and  C_10
REMARK    7  A    between atoms: C_10  and  C_11
REMARK    8  A    between atoms: C_11  and  N_12
REMARK    9  A    between atoms: N_12  and  C_13
REMARK   10  A    between atoms: C_20  and  C_22
REMARK                            x       y       z     vdW  Elec       q    Type
REMARK                         _______ _______ _______ _____ _____    ______ ____
ROOT
ATOM      1  N   UNL     1      48.767   7.500  16.320  0.00  0.00    +0.000 N 
ATOM      2  C   UNL     1      48.418   6.836  17.511  0.00  0.00    +0.000 C 
ATOM      3  O   UNL     1      48.137   7.466  18.528  0.00  0.00    +0.000 OA
ENDROOT
BRANCH   2   4
ATOM      4  C   UNL     1      48.397   5.365  17.547  0.00  0.00    +0.000 A 
ATOM      5  C   UNL     1      47.264   4.582  17.387  0.00  0.00    +0.000 A 
ATOM      6  S   UNL     1      47.580   2.903  17.418  0.00  0.00    +0.000 S 
ATOM      7  C   UNL     1      49.258   3.170  17.502  0.00  0.00    +0.000 A 
ATOM      8  N   UNL     1      50.136   2.130  17.453  0.00  0.00    +0.000 NA
ATOM      9  C   UNL     1      51.377   2.496  17.468  0.00  0.00    +0.000 A 
ATOM     10  N   UNL     1      51.816   3.785  17.558  0.00  0.00    +0.000 N 
ATOM     11  C   UNL     1      50.966   4.856  17.741  0.00  0.00    +0.000 A 
ATOM     12  O   UNL     1      51.398   5.958  18.057  0.00  0.00    +0.000 OA
ATOM     13  C   UNL     1      49.561   4.515  17.609  0.00  0.00    +0.000 A 
ATOM     14  H   UNL     1      52.802   3.991  17.630  0.00  0.00    +0.000 HD
ENDBRANCH   2   4
BRANCH   1  15
ATOM     15  C   UNL     1      48.783   8.977  16.365  0.00  0.00    +0.000 C 
BRANCH  15  16
ATOM     16  C   UNL     1      50.155   9.637  16.631  0.00  0.00    +0.000 C 
BRANCH  16  17
ATOM     17  N   UNL     1      50.944   8.988  17.686  0.00  0.00    +0.000 NA
ATOM     18  H   UNL     1      50.641   8.015  17.751  0.00  0.00    +0.000 HD
ATOM     19  H   UNL     1      50.702   9.407  18.584  0.00  0.00    +0.000 HD
ENDBRANCH  16  17
ENDBRANCH  15  16
ENDBRANCH   1  15
BRANCH   1  20
ATOM     20  C   UNL     1      49.014   6.782  15.063  0.00  0.00    +0.000 C 
BRANCH  20  21
ATOM     21  C   UNL     1      47.910   6.765  14.044  0.00  0.00    +0.000 A 
ATOM     22  C   UNL     1      47.733   7.871  13.211  0.00  0.00    +0.000 A 
ATOM     23  C   UNL     1      46.644   7.932  12.351  0.00  0.00    +0.000 A 
ATOM     24  C   UNL     1      45.709   6.886  12.295  0.00  0.00    +0.000 A 
ATOM     25  C   UNL     1      45.925   5.753  13.091  0.00  0.00    +0.000 A 
ATOM     26  C   UNL     1      47.020   5.688  13.954  0.00  0.00    +0.000 A 
BRANCH  24  27
ATOM     27  C   UNL     1      44.439   6.990  11.469  0.00  0.00    +0.000 C 
BRANCH  27  28
ATOM     28  C   UNL     1      43.670   5.667  11.393  0.00  0.00    +0.000 C 
BRANCH  28  29
ATOM     29  N   UNL     1      43.655   5.055  10.059  0.00  0.00    +0.000 NA
ATOM     30  H   UNL     1      43.662   5.790   9.351  0.00  0.00    +0.000 HD
BRANCH  29  31
ATOM     31  C   UNL     1      44.851   4.208   9.902  0.00  0.00    +0.000 C 
ATOM     32  C   UNL     1      45.558   4.418   8.565  0.00  0.00    +0.000 C 
ATOM     33  C   UNL     1      45.188   3.191   7.754  0.00  0.00    +0.000 C 
ATOM     34  N   UNL     1      45.179   2.104   8.739  0.00  0.00    +0.000 NA
ATOM     35  C   UNL     1      44.516   2.697   9.907  0.00  0.00    +0.000 C 
ATOM     36  H   UNL     1      46.140   1.876   8.991  0.00  0.00    +0.000 HD
ENDBRANCH  29  31
ENDBRANCH  28  29
ENDBRANCH  27  28
ENDBRANCH  24  27
ENDBRANCH  20  21
ENDBRANCH   1  20
TORSDOF 10
ENDMDL
MODEL 6
REMARK VINA RESULT:    -6.226      3.473      7.981
REMARK INTER + INTRA:         -11.237
REMARK INTER:                  -9.795
REMARK INTRA:                  -1.442
REMARK UNBOUND:                -1.553
REMARK  Name = 
REMARK  10 active torsions:
REMARK  status: ('A' for Active; 'I' for Inactive)
REMARK    1  A    between atoms: N_1  and  C_2
REMARK    2  A    between atoms: C_2  and  C_3
REMARK    3  A    between atoms: C_3  and  N_4
REMARK    4  A    between atoms: N_4  and  C_5
REMARK    5  A    between atoms: C_5  and  C_6
REMARK    6  A    between atoms: C_9  and  C_10
REMARK    7  A    between atoms: C_10  and  C_11
REMARK    8  A    between atoms: C_11  and  N_12
REMARK    9  A    between atoms: N_12  and  C_13
REMARK   10  A    between atoms: C_20  and  C_22
REMARK                            x       y       z     vdW  Elec       q    Type
REMARK                         _______ _______ _______ _____ _____    ______ ____
ROOT
ATOM      1  N   UNL     1      49.286   7.439  17.070  0.00  0.00    +0.000 N 
ATOM      2  C   UNL     1      48.751   6.633  18.094  0.00  0.00    +0.000 C 
ATOM      3  O   UNL     1      48.433   7.116  19.178  0.00  0.00    +0.000 OA
ENDROOT
BRANCH   2   4
ATOM      4  C   UNL     1      48.579   5.189  17.870  0.00  0.00    +0.000 A 
ATOM      5  C   UNL     1      47.375   4.569  17.571  0.00  0.00    +0.000 A 
ATOM      6  S   UNL     1      47.517   2.887  17.307  0.00  0.00    +0.000 S 
ATOM      7  C   UNL     1      49.211   2.958  17.442  0.00  0.00    +0.000 A 
ATOM      8  N   UNL     1      49.979   1.856  17.213  0.00  0.00    +0.000 NA
ATOM      9  C   UNL     1      51.250   2.082  17.296  0.00  0.00    +0.000 A 
ATOM     10  N   UNL     1      51.818   3.283  17.612  0.00  0.00    +0.000 N 
ATOM     11  C   UNL     1      51.078   4.388  17.979  0.00  0.00    +0.000 A 
ATOM     12  O   UNL     1      51.614   5.366  18.485  0.00  0.00    +0.000 OA
ATOM     13  C   UNL     1      49.649   4.224  17.784  0.00  0.00    +0.000 A 
ATOM     14  H   UNL     1      52.817   3.369  17.723  0.00  0.00    +0.000 HD
ENDBRANCH   2   4
BRANCH   1  15
ATOM     15  C   UNL     1      49.445   8.877  17.374  0.00  0.00    +0.000 C 
BRANCH  15  16
ATOM     16  C   UNL     1      48.164   9.738  17.287  0.00  0.00    +0.000 C 
BRANCH  16  17
ATOM     17  N   UNL     1      48.277  10.902  16.399  0.00  0.00    +0.000 NA
ATOM     18  H   UNL     1      47.864  11.704  16.878  0.00  0.00    +0.000 HD
ATOM     19  H   UNL     1      47.691  10.747  15.578  0.00  0.00    +0.000 HD
ENDBRANCH  16  17
ENDBRANCH  15  16
ENDBRANCH   1  15
BRANCH   1  20
ATOM     20  C   UNL     1      49.586   6.914  15.732  0.00  0.00    +0.000 C 
BRANCH  20  21
ATOM     21  C   UNL     1      48.492   6.968  14.703  0.00  0.00    +0.000 A 
ATOM     22  C   UNL     1      47.824   5.792  14.355  0.00  0.00    +0.000 A 
ATOM     23  C   UNL     1      46.900   5.793  13.318  0.00  0.00    +0.000 A 
ATOM     24  C   UNL     1      46.611   6.971  12.610  0.00  0.00    +0.000 A 
ATOM     25  C   UNL     1      47.241   8.159  13.003  0.00  0.00    +0.000 A 
ATOM     26  C   UNL     1      48.169   8.161  14.047  0.00  0.00    +0.000 A 
BRANCH  24  27
ATOM     27  C   UNL     1      45.712   6.969  11.386  0.00  0.00    +0.000 C 
BRANCH  27  28
ATOM     28  C   UNL     1      45.545   5.575  10.774  0.00  0.00    +0.000 C 
BRANCH  28  29
ATOM     29  N   UNL     1      44.275   5.375  10.067  0.00  0.00    +0.000 NA
ATOM     30  H   UNL     1      44.459   4.957   9.154  0.00  0.00    +0.000 HD
BRANCH  29  31
ATOM     31  C   UNL     1      43.417   4.475  10.858  0.00  0.00    +0.000 C 
ATOM     32  C   UNL     1      42.449   5.224  11.770  0.00  0.00    +0.000 C 
ATOM     33  C   UNL     1      43.047   5.066  13.155  0.00  0.00    +0.000 C 
ATOM     34  N   UNL     1      43.592   3.704  13.152  0.00  0.00    +0.000 NA
ATOM     35  C   UNL     1      44.225   3.585  11.832  0.00  0.00    +0.000 C 
ATOM     36  H   UNL     1      42.823   3.038  13.205  0.00  0.00    +0.000 HD
ENDBRANCH  29  31
ENDBRANCH  28  29
ENDBRANCH  27  28
ENDBRANCH  24  27
ENDBRANCH  20  21
ENDBRANCH   1  20
TORSDOF 10
ENDMDL
MODEL 7
REMARK VINA RESULT:    -6.221      3.719      8.220
REMARK INTER + INTRA:         -11.228
REMARK INTER:                  -9.813
REMARK INTRA:                  -1.415
REMARK UNBOUND:                -1.553
REMARK  Name = 
REMARK  10 active torsions:
REMARK  status: ('A' for Active; 'I' for Inactive)
REMARK    1  A    between atoms: N_1  and  C_2
REMARK    2  A    between atoms: C_2  and  C_3
REMARK    3  A    between atoms: C_3  and  N_4
REMARK    4  A    between atoms: N_4  and  C_5
REMARK    5  A    between atoms: C_5  and  C_6
REMARK    6  A    between atoms: C_9  and  C_10
REMARK    7  A    between atoms: C_10  and  C_11
REMARK    8  A    between atoms: C_11  and  N_12
REMARK    9  A    between atoms: N_12  and  C_13
REMARK   10  A    between atoms: C_20  and  C_22
REMARK                            x       y       z     vdW  Elec       q    Type
REMARK                         _______ _______ _______ _____ _____    ______ ____
ROOT
ATOM      1  N   UNL     1      48.997   7.637  13.830  0.00  0.00    +0.000 N 
ATOM      2  C   UNL     1      49.902   7.615  14.909  0.00  0.00    +0.000 C 
ATOM      3  O   UNL     1      51.097   7.394  14.728  0.00  0.00    +0.000 OA
ENDROOT
BRANCH   2   4
ATOM      4  C   UNL     1      49.412   7.849  16.277  0.00  0.00    +0.000 A 
ATOM      5  C   UNL     1      49.514   9.051  16.963  0.00  0.00    +0.000 A 
ATOM      6  S   UNL     1      48.792   9.019  18.511  0.00  0.00    +0.000 S 
ATOM      7  C   UNL     1      48.196   7.446  18.256  0.00  0.00    +0.000 A 
ATOM      8  N   UNL     1      47.385   6.848  19.172  0.00  0.00    +0.000 NA
ATOM      9  C   UNL     1      46.967   5.678  18.811  0.00  0.00    +0.000 A 
ATOM     10  N   UNL     1      47.304   5.046  17.649  0.00  0.00    +0.000 N 
ATOM     11  C   UNL     1      48.223   5.557  16.757  0.00  0.00    +0.000 A 
ATOM     12  O   UNL     1      48.681   4.864  15.856  0.00  0.00    +0.000 OA
ATOM     13  C   UNL     1      48.629   6.919  17.054  0.00  0.00    +0.000 A 
ATOM     14  H   UNL     1      46.990   4.104  17.464  0.00  0.00    +0.000 HD
ENDBRANCH   2   4
BRANCH   1  15
ATOM     15  C   UNL     1      49.561   7.377  12.489  0.00  0.00    +0.000 C 
BRANCH  15  16
ATOM     16  C   UNL     1      50.096   8.608  11.723  0.00  0.00    +0.000 C 
BRANCH  16  17
ATOM     17  N   UNL     1      49.064   9.586  11.354  0.00  0.00    +0.000 NA
ATOM     18  H   UNL     1      48.208   9.344  11.856  0.00  0.00    +0.000 HD
ATOM     19  H   UNL     1      48.839   9.471  10.366  0.00  0.00    +0.000 HD
ENDBRANCH  16  17
ENDBRANCH  15  16
ENDBRANCH   1  15
BRANCH   1  20
ATOM     20  C   UNL     1      47.583   7.993  13.998  0.00  0.00    +0.000 C 
BRANCH  20  21
ATOM     21  C   UNL     1      46.582   7.284  13.131  0.00  0.00    +0.000 A 
ATOM     22  C   UNL     1      45.859   8.014  12.185  0.00  0.00    +0.000 A 
ATOM     23  C   UNL     1      44.840   7.407  11.462  0.00  0.00    +0.000 A 
ATOM     24  C   UNL     1      44.523   6.054  11.658  0.00  0.00    +0.000 A 
ATOM     25  C   UNL     1      45.291   5.311  12.565  0.00  0.00    +0.000 A 
ATOM     26  C   UNL     1      46.318   5.918  13.292  0.00  0.00    +0.000 A 
BRANCH  24  27
ATOM     27  C   UNL     1      43.327   5.405  10.984  0.00  0.00    +0.000 C 
BRANCH  27  28
ATOM     28  C   UNL     1      43.693   4.124  10.229  0.00  0.00    +0.000 C 
BRANCH  28  29
ATOM     29  N   UNL     1      44.256   4.352   8.893  0.00  0.00    +0.000 NA
ATOM     30  H   UNL     1      44.306   5.356   8.715  0.00  0.00    +0.000 HD
BRANCH  29  31
ATOM     31  C   UNL     1      45.611   3.773   8.834  0.00  0.00    +0.000 C 
ATOM     32  C   UNL     1      46.374   4.173   7.574  0.00  0.00    +0.000 C 
ATOM     33  C   UNL     1      46.339   2.928   6.709  0.00  0.00    +0.000 C 
ATOM     34  N   UNL     1      46.469   1.826   7.668  0.00  0.00    +0.000 NA
ATOM     35  C   UNL     1      45.596   2.227   8.779  0.00  0.00    +0.000 C 
ATOM     36  H   UNL     1      47.430   1.790   8.005  0.00  0.00    +0.000 HD
ENDBRANCH  29  31
ENDBRANCH  28  29
ENDBRANCH  27  28
ENDBRANCH  24  27
ENDBRANCH  20  21
ENDBRANCH   1  20
TORSDOF 10
ENDMDL
MODEL 8
REMARK VINA RESULT:    -6.060      3.673      7.888
REMARK INTER + INTRA:         -10.979
REMARK INTER:                  -9.267
REMARK INTRA:                  -1.712
REMARK UNBOUND:                -1.553
REMARK  Name = 
REMARK  10 active torsions:
REMARK  status: ('A' for Active; 'I' for Inactive)
REMARK    1  A    between atoms: N_1  and  C_2
REMARK    2  A    between atoms: C_2  and  C_3
REMARK    3  A    between atoms: C_3  and  N_4
REMARK    4  A    between atoms: N_4  and  C_5
REMARK    5  A    between atoms: C_5  and  C_6
REMARK    6  A    between atoms: C_9  and  C_10
REMARK    7  A    between atoms: C_10  and  C_11
REMARK    8  A    between atoms: C_11  and  N_12
REMARK    9  A    between atoms: N_12  and  C_13
REMARK   10  A    between atoms: C_20  and  C_22
REMARK                            x       y       z     vdW  Elec       q    Type
REMARK                         _______ _______ _______ _____ _____    ______ ____
ROOT
ATOM      1  N   UNL     1      48.557   7.883  18.031  0.00  0.00    +0.000 N 
ATOM      2  C   UNL     1      48.631   6.665  18.735  0.00  0.00    +0.000 C 
ATOM      3  O   UNL     1      47.868   6.426  19.667  0.00  0.00    +0.000 OA
ENDROOT
BRANCH   2   4
ATOM      4  C   UNL     1      49.644   5.667  18.358  0.00  0.00    +0.000 A 
ATOM      5  C   UNL     1      50.976   5.699  18.745  0.00  0.00    +0.000 A 
ATOM      6  S   UNL     1      51.883   4.361  18.194  0.00  0.00    +0.000 S 
ATOM      7  C   UNL     1      50.494   3.624  17.544  0.00  0.00    +0.000 A 
ATOM      8  N   UNL     1      50.553   2.375  17.003  0.00  0.00    +0.000 NA
ATOM      9  C   UNL     1      49.407   1.927  16.605  0.00  0.00    +0.000 A 
ATOM     10  N   UNL     1      48.228   2.613  16.667  0.00  0.00    +0.000 N 
ATOM     11  C   UNL     1      48.146   3.925  17.084  0.00  0.00    +0.000 A 
ATOM     12  O   UNL     1      47.129   4.583  16.902  0.00  0.00    +0.000 OA
ATOM     13  C   UNL     1      49.380   4.434  17.656  0.00  0.00    +0.000 A 
ATOM     14  H   UNL     1      47.382   2.224  16.276  0.00  0.00    +0.000 HD
ENDBRANCH   2   4
BRANCH   1  15
ATOM     15  C   UNL     1      47.526   8.843  18.478  0.00  0.00    +0.000 C 
BRANCH  15  16
ATOM     16  C   UNL     1      48.004  10.293  18.722  0.00  0.00    +0.000 C 
BRANCH  16  17
ATOM     17  N   UNL     1      47.523  11.264  17.730  0.00  0.00    +0.000 NA
ATOM     18  H   UNL     1      48.308  11.506  17.123  0.00  0.00    +0.000 HD
ATOM     19  H   UNL     1      47.276  12.129  18.210  0.00  0.00    +0.000 HD
ENDBRANCH  16  17
ENDBRANCH  15  16
ENDBRANCH   1  15
BRANCH   1  20
ATOM     20  C   UNL     1      49.387   8.162  16.853  0.00  0.00    +0.000 C 
BRANCH  20  21
ATOM     21  C   UNL     1      48.754   7.991  15.501  0.00  0.00    +0.000 A 
ATOM     22  C   UNL     1      48.085   9.070  14.919  0.00  0.00    +0.000 A 
ATOM     23  C   UNL     1      47.384   8.901  13.732  0.00  0.00    +0.000 A 
ATOM     24  C   UNL     1      47.342   7.653  13.090  0.00  0.00    +0.000 A 
ATOM     25  C   UNL     1      48.064   6.589  13.648  0.00  0.00    +0.000 A 
ATOM     26  C   UNL     1      48.771   6.757  14.841  0.00  0.00    +0.000 A 
BRANCH  24  27
ATOM     27  C   UNL     1      46.471   7.408  11.871  0.00  0.00    +0.000 C 
BRANCH  27  28
ATOM     28  C   UNL     1      45.172   6.668  12.207  0.00  0.00    +0.000 C 
BRANCH  28  29
ATOM     29  N   UNL     1      44.575   5.953  11.074  0.00  0.00    +0.000 NA
ATOM     30  H   UNL     1      44.881   6.388  10.202  0.00  0.00    +0.000 HD
BRANCH  29  31
ATOM     31  C   UNL     1      45.015   4.546  11.103  0.00  0.00    +0.000 C 
ATOM     32  C   UNL     1      44.032   3.601  10.417  0.00  0.00    +0.000 C 
ATOM     33  C   UNL     1      43.337   2.893  11.563  0.00  0.00    +0.000 C 
ATOM     34  N   UNL     1      44.397   2.707  12.560  0.00  0.00    +0.000 NA
ATOM     35  C   UNL     1      45.121   3.985  12.542  0.00  0.00    +0.000 C 
ATOM     36  H   UNL     1      45.026   1.972  12.243  0.00  0.00    +0.000 HD
ENDBRANCH  29  31
ENDBRANCH  28  29
ENDBRANCH  27  28
ENDBRANCH  24  27
ENDBRANCH  20  21
ENDBRANCH   1  20
TORSDOF 10
ENDMDL
MODEL 9
REMARK VINA RESULT:    -6.022      4.165      9.274
REMARK INTER + INTRA:         -10.920
REMARK INTER:                  -9.297
REMARK INTRA:                  -1.623
REMARK UNBOUND:                -1.553
REMARK  Name = 
REMARK  10 active torsions:
REMARK  status: ('A' for Active; 'I' for Inactive)
REMARK    1  A    between atoms: N_1  and  C_2
REMARK    2  A    between atoms: C_2  and  C_3
REMARK    3  A    between atoms: C_3  and  N_4
REMARK    4  A    between atoms: N_4  and  C_5
REMARK    5  A    between atoms: C_5  and  C_6
REMARK    6  A    between atoms: C_9  and  C_10
REMARK    7  A    between atoms: C_10  and  C_11
REMARK    8  A    between atoms: C_11  and  N_12
REMARK    9  A    between atoms: N_12  and  C_13
REMARK   10  A    between atoms: C_20  and  C_22
REMARK                            x       y       z     vdW  Elec       q    Type
REMARK                         _______ _______ _______ _____ _____    ______ ____
ROOT
ATOM      1  N   UNL     1      49.548   4.649  17.949  0.00  0.00    +0.000 N 
ATOM      2  C   UNL     1      50.094   5.544  18.890  0.00  0.00    +0.000 C 
ATOM      3  O   UNL     1      51.279   5.481  19.209  0.00  0.00    +0.000 OA
ENDROOT
BRANCH   2   4
ATOM      4  C   UNL     1      49.234   6.564  19.509  0.00  0.00    +0.000 A 
ATOM      5  C   UNL     1      48.359   6.335  20.561  0.00  0.00    +0.000 A 
ATOM      6  S   UNL     1      47.546   7.740  21.095  0.00  0.00    +0.000 S 
ATOM      7  C   UNL     1      48.443   8.723  20.035  0.00  0.00    +0.000 A 
ATOM      8  N   UNL     1      48.312  10.078  20.058  0.00  0.00    +0.000 NA
ATOM      9  C   UNL     1      49.101  10.691  19.236  0.00  0.00    +0.000 A 
ATOM     10  N   UNL     1      49.976  10.081  18.382  0.00  0.00    +0.000 N 
ATOM     11  C   UNL     1      50.047   8.712  18.234  0.00  0.00    +0.000 A 
ATOM     12  O   UNL     1      50.660   8.209  17.300  0.00  0.00    +0.000 OA
ATOM     13  C   UNL     1      49.272   7.977  19.217  0.00  0.00    +0.000 A 
ATOM     14  H   UNL     1      50.514  10.622  17.722  0.00  0.00    +0.000 HD
ENDBRANCH   2   4
BRANCH   1  15
ATOM     15  C   UNL     1      50.469   3.641  17.383  0.00  0.00    +0.000 C 
BRANCH  15  16
ATOM     16  C   UNL     1      49.941   2.189  17.328  0.00  0.00    +0.000 C 
BRANCH  16  17
ATOM     17  N   UNL     1      49.490   1.760  15.997  0.00  0.00    +0.000 NA
ATOM     18  H   UNL     1      48.786   1.031  16.125  0.00  0.00    +0.000 HD
ATOM     19  H   UNL     1      50.266   1.304  15.518  0.00  0.00    +0.000 HD
ENDBRANCH  16  17
ENDBRANCH  15  16
ENDBRANCH   1  15
BRANCH   1  20
ATOM     20  C   UNL     1      48.163   4.756  17.473  0.00  0.00    +0.000 C 
BRANCH  20  21
ATOM     21  C   UNL     1      47.951   5.122  16.032  0.00  0.00    +0.000 A 
ATOM     22  C   UNL     1      48.560   6.270  15.522  0.00  0.00    +0.000 A 
ATOM     23  C   UNL     1      48.278   6.697  14.231  0.00  0.00    +0.000 A 
ATOM     24  C   UNL     1      47.388   5.984  13.413  0.00  0.00    +0.000 A 
ATOM     25  C   UNL     1      46.825   4.800  13.909  0.00  0.00    +0.000 A 
ATOM     26  C   UNL     1      47.109   4.367  15.206  0.00  0.00    +0.000 A 
BRANCH  24  27
ATOM     27  C   UNL     1      46.956   6.505  12.054  0.00  0.00    +0.000 C 
BRANCH  27  28
ATOM     28  C   UNL     1      45.493   6.183  11.732  0.00  0.00    +0.000 C 
BRANCH  28  29
ATOM     29  N   UNL     1      45.310   5.322  10.558  0.00  0.00    +0.000 NA
ATOM     30  H   UNL     1      46.050   4.620  10.536  0.00  0.00    +0.000 HD
BRANCH  29  31
ATOM     31  C   UNL     1      43.999   4.654  10.647  0.00  0.00    +0.000 C 
ATOM     32  C   UNL     1      43.424   4.659  12.061  0.00  0.00    +0.000 C 
ATOM     33  C   UNL     1      43.629   3.238  12.550  0.00  0.00    +0.000 C 
ATOM     34  N   UNL     1      43.390   2.416  11.359  0.00  0.00    +0.000 NA
ATOM     35  C   UNL     1      44.071   3.151  10.285  0.00  0.00    +0.000 C 
ATOM     36  H   UNL     1      42.391   2.400  11.161  0.00  0.00    +0.000 HD
ENDBRANCH  29  31
ENDBRANCH  28  29
ENDBRANCH  27  28
ENDBRANCH  24  27
ENDBRANCH  20  21
ENDBRANCH   1  20
TORSDOF 10
ENDMDL
