MODEL 1
REMARK VINA RESULT:    -8.277      0.000      0.000
REMARK INTER + INTRA:         -13.447
REMARK INTER:                 -12.149
REMARK INTRA:                  -1.298
REMARK UNBOUND:                -1.298
REMARK  Name = 
REMARK  9 active torsions:
REMARK  status: ('A' for Active; 'I' for Inactive)
REMARK    1  A    between atoms: C_1  and  O_2
REMARK    2  A    between atoms: O_2  and  C_3
REMARK    3  A    between atoms: C_10  and  C_11
REMARK    4  A    between atoms: N_13  and  C_14
REMARK    5  A    between atoms: C_14  and  C_15
REMARK    6  A    between atoms: C_18  and  C_19
REMARK    7  A    between atoms: C_19  and  S_20
REMARK    8  A    between atoms: S_20  and  C_21
REMARK    9  A    between atoms: C_21  and  C_22
REMARK                            x       y       z     vdW  Elec       q    Type
REMARK                         _______ _______ _______ _____ _____    ______ ____
ROOT
ATOM      1  C   UNL     1      47.226   8.403  13.177  0.00  0.00    +0.000 C 
ENDROOT
BRANCH   1   2
ATOM      2  C   UNL     1      46.316   7.532  12.341  0.00  0.00    +0.000 A 
ATOM      3  C   UNL     1      46.823   6.804  11.258  0.00  0.00    +0.000 A 
ATOM      4  C   UNL     1      46.019   5.886  10.569  0.00  0.00    +0.000 A 
ATOM      5  C   UNL     1      44.685   5.666  10.945  0.00  0.00    +0.000 A 
ATOM      6  C   UNL     1      44.151   6.470  11.964  0.00  0.00    +0.000 A 
ATOM      7  C   UNL     1      44.956   7.395  12.651  0.00  0.00    +0.000 A 
BRANCH   5   8
ATOM      8  C   UNL     1      43.846   4.595  10.267  0.00  0.00    +0.000 C 
BRANCH   8   9
ATOM      9  S   UNL     1      44.442   2.900  10.639  0.00  0.00    +0.000 S 
BRANCH   9  10
ATOM     10  C   UNL     1      44.315   2.148   8.983  0.00  0.00    +0.000 C 
BRANCH  10  11
ATOM     11  C   UNL     1      45.587   2.310   8.173  0.00  0.00    +0.000 A 
ATOM     12  C   UNL     1      46.447   1.221   7.961  0.00  0.00    +0.000 A 
ATOM     13  C   UNL     1      47.603   1.361   7.186  0.00  0.00    +0.000 A 
ATOM     14  C   UNL     1      47.920   2.593   6.618  0.00  0.00    +0.000 A 
ATOM     15  C   UNL     1      47.084   3.687   6.834  0.00  0.00    +0.000 A 
ATOM     16  C   UNL     1      45.926   3.547   7.611  0.00  0.00    +0.000 A 
ENDBRANCH  10  11
ENDBRANCH   9  10
ENDBRANCH   8   9
ENDBRANCH   5   8
ENDBRANCH   1   2
BRANCH   1  19
ATOM     17  C   UNL     1      48.649   6.933  14.547  0.00  0.00    +0.000 C 
ATOM     18  O   UNL     1      49.344   6.644  13.574  0.00  0.00    +0.000 OA
ATOM     19  N   UNL     1      47.585   7.796  14.430  0.00  0.00    +0.000 N 
ATOM     20  H   UNL     1      47.036   8.035  15.242  0.00  0.00    +0.000 HD
BRANCH  17  28
ATOM     21  C   UNL     1      47.293   4.289  16.266  0.00  0.00    +0.000 A 
ATOM     22  N   UNL     1      47.003   3.271  17.099  0.00  0.00    +0.000 NA
ATOM     23  C   UNL     1      47.702   3.172  18.233  0.00  0.00    +0.000 A 
ATOM     24  N   UNL     1      48.665   3.989  18.655  0.00  0.00    +0.000 NA
ATOM     25  C   UNL     1      48.932   4.979  17.788  0.00  0.00    +0.000 A 
ATOM     26  S   UNL     1      50.122   6.130  18.163  0.00  0.00    +0.000 S 
ATOM     27  C   UNL     1      49.880   6.936  16.685  0.00  0.00    +0.000 A 
ATOM     28  C   UNL     1      48.912   6.349  15.875  0.00  0.00    +0.000 A 
ATOM     29  C   UNL     1      48.321   5.200  16.557  0.00  0.00    +0.000 A 
BRANCH  21  31
ATOM     30  C   UNL     1      47.099   3.597  14.041  0.00  0.00    +0.000 C 
ATOM     31  O   UNL     1      46.575   4.397  15.096  0.00  0.00    +0.000 OA
ENDBRANCH  21  31
ENDBRANCH  17  28
ENDBRANCH   1  19
TORSDOF 8
ENDMDL
MODEL 2
REMARK VINA RESULT:    -7.922      1.470      1.887
REMARK INTER + INTRA:         -12.925
REMARK INTER:                 -11.825
REMARK INTRA:                  -1.100
REMARK UNBOUND:                -1.298
REMARK  Name = 
REMARK  9 active torsions:
REMARK  status: ('A' for Active; 'I' for Inactive)
REMARK    1  A    between atoms: C_1  and  O_2
REMARK    2  A    between atoms: O_2  and  C_3
REMARK    3  A    between atoms: C_10  and  C_11
REMARK    4  A    between atoms: N_13  and  C_14
REMARK    5  A    between atoms: C_14  and  C_15
REMARK    6  A    between atoms: C_18  and  C_19
REMARK    7  A    between atoms: C_19  and  S_20
REMARK    8  A    between atoms: S_20  and  C_21
REMARK    9  A    between atoms: C_21  and  C_22
REMARK                            x       y       z     vdW  Elec       q    Type
REMARK                         _______ _______ _______ _____ _____    ______ ____
ROOT
ATOM      1  C   UNL     1      47.926   7.810  13.382  0.00  0.00    +0.000 C 
ENDROOT
BRANCH   1   2
ATOM      2  C   UNL     1      46.892   6.912  12.743  0.00  0.00    +0.000 A 
ATOM      3  C   UNL     1      46.849   5.545  13.046  0.00  0.00    +0.000 A 
ATOM      4  C   UNL     1      45.808   4.737  12.572  0.00  0.00    +0.000 A 
ATOM      5  C   UNL     1      44.776   5.269  11.784  0.00  0.00    +0.000 A 
ATOM      6  C   UNL     1      44.877   6.615  11.398  0.00  0.00    +0.000 A 
ATOM      7  C   UNL     1      45.924   7.426  11.869  0.00  0.00    +0.000 A 
BRANCH   5   8
ATOM      8  C   UNL     1      43.593   4.416  11.358  0.00  0.00    +0.000 C 
BRANCH   8   9
ATOM      9  S   UNL     1      44.103   2.955  10.372  0.00  0.00    +0.000 S 
BRANCH   9  10
ATOM     10  C   UNL     1      44.627   3.778   8.832  0.00  0.00    +0.000 C 
BRANCH  10  11
ATOM     11  C   UNL     1      45.624   2.951   8.043  0.00  0.00    +0.000 A 
ATOM     12  C   UNL     1      46.301   3.501   6.944  0.00  0.00    +0.000 A 
ATOM     13  C   UNL     1      47.247   2.750   6.236  0.00  0.00    +0.000 A 
ATOM     14  C   UNL     1      47.522   1.438   6.612  0.00  0.00    +0.000 A 
ATOM     15  C   UNL     1      46.845   0.874   7.690  0.00  0.00    +0.000 A 
ATOM     16  C   UNL     1      45.897   1.625   8.400  0.00  0.00    +0.000 A 
ENDBRANCH  10  11
ENDBRANCH   9  10
ENDBRANCH   8   9
ENDBRANCH   5   8
ENDBRANCH   1   2
BRANCH   1  19
ATOM     17  C   UNL     1      48.915   7.191  15.550  0.00  0.00    +0.000 C 
ATOM     18  O   UNL     1      49.897   6.697  14.999  0.00  0.00    +0.000 OA
ATOM     19  N   UNL     1      47.899   7.760  14.819  0.00  0.00    +0.000 N 
ATOM     20  H   UNL     1      47.109   8.177  15.288  0.00  0.00    +0.000 HD
BRANCH  17  28
ATOM     21  C   UNL     1      48.770   4.665  17.870  0.00  0.00    +0.000 A 
ATOM     22  N   UNL     1      48.777   3.884  18.967  0.00  0.00    +0.000 NA
ATOM     23  C   UNL     1      48.721   4.483  20.161  0.00  0.00    +0.000 A 
ATOM     24  N   UNL     1      48.640   5.790  20.399  0.00  0.00    +0.000 NA
ATOM     25  C   UNL     1      48.652   6.530  19.278  0.00  0.00    +0.000 A 
ATOM     26  S   UNL     1      48.542   8.221  19.383  0.00  0.00    +0.000 S 
ATOM     27  C   UNL     1      48.640   8.383  17.693  0.00  0.00    +0.000 A 
ATOM     28  C   UNL     1      48.773   7.173  17.018  0.00  0.00    +0.000 A 
ATOM     29  C   UNL     1      48.740   6.065  17.969  0.00  0.00    +0.000 A 
BRANCH  21  31
ATOM     30  C   UNL     1      47.546   3.692  16.130  0.00  0.00    +0.000 C 
ATOM     31  O   UNL     1      48.827   4.054  16.637  0.00  0.00    +0.000 OA
ENDBRANCH  21  31
ENDBRANCH  17  28
ENDBRANCH   1  19
TORSDOF 8
ENDMDL
MODEL 3
REMARK VINA RESULT:    -7.628      1.995      2.341
REMARK INTER + INTRA:         -12.493
REMARK INTER:                 -11.410
REMARK INTRA:                  -1.083
REMARK UNBOUND:                -1.298
REMARK  Name = 
REMARK  9 active torsions:
REMARK  status: ('A' for Active; 'I' for Inactive)
REMARK    1  A    between atoms: C_1  and  O_2
REMARK    2  A    between atoms: O_2  and  C_3
REMARK    3  A    between atoms: C_10  and  C_11
REMARK    4  A    between atoms: N_13  and  C_14
REMARK    5  A    between atoms: C_14  and  C_15
REMARK    6  A    between atoms: C_18  and  C_19
REMARK    7  A    between atoms: C_19  and  S_20
REMARK    8  A    between atoms: S_20  and  C_21
REMARK    9  A    between atoms: C_21  and  C_22
REMARK                            x       y       z     vdW  Elec       q    Type
REMARK                         _______ _______ _______ _____ _____    ______ ____
ROOT
ATOM      1  C   UNL     1      48.400   7.676  14.808  0.00  0.00    +0.000 C 
ENDROOT
BRANCH   1   2
ATOM      2  C   UNL     1      47.576   6.992  13.741  0.00  0.00    +0.000 A 
ATOM      3  C   UNL     1      47.400   5.603  13.757  0.00  0.00    +0.000 A 
ATOM      4  C   UNL     1      46.523   4.979  12.860  0.00  0.00    +0.000 A 
ATOM      5  C   UNL     1      45.792   5.726  11.922  0.00  0.00    +0.000 A 
ATOM      6  C   UNL     1      46.048   7.103  11.842  0.00  0.00    +0.000 A 
ATOM      7  C   UNL     1      46.932   7.728  12.738  0.00  0.00    +0.000 A 
BRANCH   5   8
ATOM      8  C   UNL     1      44.764   5.062  11.022  0.00  0.00    +0.000 C 
BRANCH   8   9
ATOM      9  S   UNL     1      44.829   3.231  11.116  0.00  0.00    +0.000 S 
BRANCH   9  10
ATOM     10  C   UNL     1      44.254   2.805   9.439  0.00  0.00    +0.000 C 
BRANCH  10  11
ATOM     11  C   UNL     1      45.399   2.638   8.459  0.00  0.00    +0.000 A 
ATOM     12  C   UNL     1      46.046   1.401   8.314  0.00  0.00    +0.000 A 
ATOM     13  C   UNL     1      47.079   1.236   7.385  0.00  0.00    +0.000 A 
ATOM     14  C   UNL     1      47.486   2.308   6.594  0.00  0.00    +0.000 A 
ATOM     15  C   UNL     1      46.865   3.547   6.739  0.00  0.00    +0.000 A 
ATOM     16  C   UNL     1      45.829   3.712   7.670  0.00  0.00    +0.000 A 
ENDBRANCH  10  11
ENDBRANCH   9  10
ENDBRANCH   8   9
ENDBRANCH   5   8
ENDBRANCH   1   2
BRANCH   1  19
ATOM     17  C   UNL     1      49.301   6.443  16.740  0.00  0.00    +0.000 C 
ATOM     18  O   UNL     1      48.401   6.860  17.467  0.00  0.00    +0.000 OA
ATOM     19  N   UNL     1      49.368   6.801  15.414  0.00  0.00    +0.000 N 
ATOM     20  H   UNL     1      50.102   6.435  14.827  0.00  0.00    +0.000 HD
BRANCH  17  28
ATOM     21  C   UNL     1      49.719   3.036  16.772  0.00  0.00    +0.000 A 
ATOM     22  N   UNL     1      50.159   1.765  16.837  0.00  0.00    +0.000 NA
ATOM     23  C   UNL     1      51.358   1.546  17.385  0.00  0.00    +0.000 A 
ATOM     24  N   UNL     1      52.182   2.456  17.901  0.00  0.00    +0.000 NA
ATOM     25  C   UNL     1      51.710   3.709  17.800  0.00  0.00    +0.000 A 
ATOM     26  S   UNL     1      52.618   5.004  18.418  0.00  0.00    +0.000 S 
ATOM     27  C   UNL     1      51.446   6.130  17.917  0.00  0.00    +0.000 A 
ATOM     28  C   UNL     1      50.359   5.559  17.263  0.00  0.00    +0.000 A 
ATOM     29  C   UNL     1      50.504   4.106  17.230  0.00  0.00    +0.000 A 
BRANCH  21  31
ATOM     30  C   UNL     1      47.424   3.265  17.161  0.00  0.00    +0.000 C 
ATOM     31  O   UNL     1      48.484   3.268  16.209  0.00  0.00    +0.000 OA
ENDBRANCH  21  31
ENDBRANCH  17  28
ENDBRANCH   1  19
TORSDOF 8
ENDMDL
MODEL 4
REMARK VINA RESULT:    -7.443      2.194      2.905
REMARK INTER + INTRA:         -12.223
REMARK INTER:                 -11.188
REMARK INTRA:                  -1.035
REMARK UNBOUND:                -1.298
REMARK  Name = 
REMARK  9 active torsions:
REMARK  status: ('A' for Active; 'I' for Inactive)
REMARK    1  A    between atoms: C_1  and  O_2
REMARK    2  A    between atoms: O_2  and  C_3
REMARK    3  A    between atoms: C_10  and  C_11
REMARK    4  A    between atoms: N_13  and  C_14
REMARK    5  A    between atoms: C_14  and  C_15
REMARK    6  A    between atoms: C_18  and  C_19
REMARK    7  A    between atoms: C_19  and  S_20
REMARK    8  A    between atoms: S_20  and  C_21
REMARK    9  A    between atoms: C_21  and  C_22
REMARK                            x       y       z     vdW  Elec       q    Type
REMARK                         _______ _______ _______ _____ _____    ______ ____
ROOT
ATOM      1  C   UNL     1      47.806   7.490  13.777  0.00  0.00    +0.000 C 
ENDROOT
BRANCH   1   2
ATOM      2  C   UNL     1      46.604   6.854  13.116  0.00  0.00    +0.000 A 
ATOM      3  C   UNL     1      45.816   7.583  12.217  0.00  0.00    +0.000 A 
ATOM      4  C   UNL     1      44.791   6.961  11.493  0.00  0.00    +0.000 A 
ATOM      5  C   UNL     1      44.523   5.592  11.643  0.00  0.00    +0.000 A 
ATOM      6  C   UNL     1      45.246   4.888  12.619  0.00  0.00    +0.000 A 
ATOM      7  C   UNL     1      46.272   5.513  13.349  0.00  0.00    +0.000 A 
BRANCH   5   8
ATOM      8  C   UNL     1      43.482   4.896  10.782  0.00  0.00    +0.000 C 
BRANCH   8   9
ATOM      9  S   UNL     1      44.122   3.355  10.019  0.00  0.00    +0.000 S 
BRANCH   9  10
ATOM     10  C   UNL     1      44.850   4.034   8.492  0.00  0.00    +0.000 C 
BRANCH  10  11
ATOM     11  C   UNL     1      45.812   3.068   7.828  0.00  0.00    +0.000 A 
ATOM     12  C   UNL     1      45.969   1.762   8.316  0.00  0.00    +0.000 A 
ATOM     13  C   UNL     1      46.831   0.858   7.684  0.00  0.00    +0.000 A 
ATOM     14  C   UNL     1      47.553   1.251   6.560  0.00  0.00    +0.000 A 
ATOM     15  C   UNL     1      47.420   2.549   6.074  0.00  0.00    +0.000 A 
ATOM     16  C   UNL     1      46.557   3.455   6.707  0.00  0.00    +0.000 A 
ENDBRANCH  10  11
ENDBRANCH   9  10
ENDBRANCH   8   9
ENDBRANCH   5   8
ENDBRANCH   1   2
BRANCH   1  19
ATOM     17  C   UNL     1      49.122   6.802  15.742  0.00  0.00    +0.000 C 
ATOM     18  O   UNL     1      50.156   6.763  15.078  0.00  0.00    +0.000 OA
ATOM     19  N   UNL     1      47.921   7.153  15.171  0.00  0.00    +0.000 N 
ATOM     20  H   UNL     1      47.086   7.197  15.735  0.00  0.00    +0.000 HD
BRANCH  17  28
ATOM     21  C   UNL     1      47.955   8.392  18.551  0.00  0.00    +0.000 A 
ATOM     22  N   UNL     1      47.516   8.754  19.772  0.00  0.00    +0.000 NA
ATOM     23  C   UNL     1      47.730   7.912  20.787  0.00  0.00    +0.000 A 
ATOM     24  N   UNL     1      48.354   6.737  20.737  0.00  0.00    +0.000 NA
ATOM     25  C   UNL     1      48.760   6.411  19.499  0.00  0.00    +0.000 A 
ATOM     26  S   UNL     1      49.590   4.952  19.242  0.00  0.00    +0.000 S 
ATOM     27  C   UNL     1      49.712   5.258  17.574  0.00  0.00    +0.000 A 
ATOM     28  C   UNL     1      49.120   6.452  17.175  0.00  0.00    +0.000 A 
ATOM     29  C   UNL     1      48.586   7.156  18.337  0.00  0.00    +0.000 A 
BRANCH  21  31
ATOM     30  C   UNL     1      48.245  10.566  17.738  0.00  0.00    +0.000 C 
ATOM     31  O   UNL     1      47.738   9.256  17.501  0.00  0.00    +0.000 OA
ENDBRANCH  21  31
ENDBRANCH  17  28
ENDBRANCH   1  19
TORSDOF 8
ENDMDL
MODEL 5
REMARK VINA RESULT:    -7.058      3.382      8.581
REMARK INTER + INTRA:         -11.658
REMARK INTER:                  -9.058
REMARK INTRA:                  -2.599
REMARK UNBOUND:                -1.298
REMARK  Name = 
REMARK  9 active torsions:
REMARK  status: ('A' for Active; 'I' for Inactive)
REMARK    1  A    between atoms: C_1  and  O_2
REMARK    2  A    between atoms: O_2  and  C_3
REMARK    3  A    between atoms: C_10  and  C_11
REMARK    4  A    between atoms: N_13  and  C_14
REMARK    5  A    between atoms: C_14  and  C_15
REMARK    6  A    between atoms: C_18  and  C_19
REMARK    7  A    between atoms: C_19  and  S_20
REMARK    8  A    between atoms: S_20  and  C_21
REMARK    9  A    between atoms: C_21  and  C_22
REMARK                            x       y       z     vdW  Elec       q    Type
REMARK                         _______ _______ _______ _____ _____    ______ ____
ROOT
ATOM      1  C   UNL     1      47.509   3.639  16.468  0.00  0.00    +0.000 C 
ENDROOT
BRANCH   1   2
ATOM      2  C   UNL     1      47.974   4.288  17.752  0.00  0.00    +0.000 A 
ATOM      3  C   UNL     1      49.245   4.012  18.271  0.00  0.00    +0.000 A 
ATOM      4  C   UNL     1      49.737   4.715  19.378  0.00  0.00    +0.000 A 
ATOM      5  C   UNL     1      48.976   5.719  19.997  0.00  0.00    +0.000 A 
ATOM      6  C   UNL     1      47.665   5.922  19.538  0.00  0.00    +0.000 A 
ATOM      7  C   UNL     1      47.169   5.213  18.431  0.00  0.00    +0.000 A 
BRANCH   5   8
ATOM      8  C   UNL     1      49.551   6.554  21.130  0.00  0.00    +0.000 C 
BRANCH   8   9
ATOM      9  S   UNL     1      51.145   7.343  20.677  0.00  0.00    +0.000 S 
BRANCH   9  10
ATOM     10  C   UNL     1      50.549   8.626  19.527  0.00  0.00    +0.000 C 
BRANCH  10  11
ATOM     11  C   UNL     1      50.294   8.084  18.134  0.00  0.00    +0.000 A 
ATOM     12  C   UNL     1      51.254   7.292  17.485  0.00  0.00    +0.000 A 
ATOM     13  C   UNL     1      51.006   6.763  16.214  0.00  0.00    +0.000 A 
ATOM     14  C   UNL     1      49.799   7.024  15.570  0.00  0.00    +0.000 A 
ATOM     15  C   UNL     1      48.844   7.823  16.195  0.00  0.00    +0.000 A 
ATOM     16  C   UNL     1      49.092   8.354  17.469  0.00  0.00    +0.000 A 
ENDBRANCH  10  11
ENDBRANCH   9  10
ENDBRANCH   8   9
ENDBRANCH   5   8
ENDBRANCH   1   2
BRANCH   1  19
ATOM     17  C   UNL     1      46.819   4.289  14.195  0.00  0.00    +0.000 C 
ATOM     18  O   UNL     1      47.154   3.195  13.745  0.00  0.00    +0.000 OA
ATOM     19  N   UNL     1      46.963   4.584  15.530  0.00  0.00    +0.000 N 
ATOM     20  H   UNL     1      46.666   5.480  15.886  0.00  0.00    +0.000 HD
BRANCH  17  28
ATOM     21  C   UNL     1      43.818   4.672  12.574  0.00  0.00    +0.000 A 
ATOM     22  N   UNL     1      42.720   5.100  11.922  0.00  0.00    +0.000 NA
ATOM     23  C   UNL     1      42.769   6.299  11.335  0.00  0.00    +0.000 A 
ATOM     24  N   UNL     1      43.804   7.134  11.303  0.00  0.00    +0.000 NA
ATOM     25  C   UNL     1      44.871   6.675  11.978  0.00  0.00    +0.000 A 
ATOM     26  S   UNL     1      46.294   7.600  12.036  0.00  0.00    +0.000 S 
ATOM     27  C   UNL     1      47.068   6.437  13.007  0.00  0.00    +0.000 A 
ATOM     28  C   UNL     1      46.270   5.341  13.318  0.00  0.00    +0.000 A 
ATOM     29  C   UNL     1      44.969   5.470  12.668  0.00  0.00    +0.000 A 
BRANCH  21  31
ATOM     30  C   UNL     1      43.545   2.370  12.265  0.00  0.00    +0.000 C 
ATOM     31  O   UNL     1      43.774   3.437  13.180  0.00  0.00    +0.000 OA
ENDBRANCH  21  31
ENDBRANCH  17  28
ENDBRANCH   1  19
TORSDOF 8
ENDMDL
MODEL 6
REMARK VINA RESULT:    -6.976      2.907      7.717
REMARK INTER + INTRA:         -11.537
REMARK INTER:                  -9.734
REMARK INTRA:                  -1.803
REMARK UNBOUND:                -1.298
REMARK  Name = 
REMARK  9 active torsions:
REMARK  status: ('A' for Active; 'I' for Inactive)
REMARK    1  A    between atoms: C_1  and  O_2
REMARK    2  A    between atoms: O_2  and  C_3
REMARK    3  A    between atoms: C_10  and  C_11
REMARK    4  A    between atoms: N_13  and  C_14
REMARK    5  A    between atoms: C_14  and  C_15
REMARK    6  A    between atoms: C_18  and  C_19
REMARK    7  A    between atoms: C_19  and  S_20
REMARK    8  A    between atoms: S_20  and  C_21
REMARK    9  A    between atoms: C_21  and  C_22
REMARK                            x       y       z     vdW  Elec       q    Type
REMARK                         _______ _______ _______ _____ _____    ______ ____
ROOT
ATOM      1  C   UNL     1      48.318   8.086  12.093  0.00  0.00    +0.000 C 
ENDROOT
BRANCH   1   2
ATOM      2  C   UNL     1      48.442   7.977  13.596  0.00  0.00    +0.000 A 
ATOM      3  C   UNL     1      49.061   6.866  14.182  0.00  0.00    +0.000 A 
ATOM      4  C   UNL     1      49.309   6.825  15.560  0.00  0.00    +0.000 A 
ATOM      5  C   UNL     1      48.947   7.895  16.394  0.00  0.00    +0.000 A 
ATOM      6  C   UNL     1      48.237   8.960  15.820  0.00  0.00    +0.000 A 
ATOM      7  C   UNL     1      47.984   8.999  14.438  0.00  0.00    +0.000 A 
BRANCH   5   8
ATOM      8  C   UNL     1      49.310   7.896  17.870  0.00  0.00    +0.000 C 
BRANCH   8   9
ATOM      9  S   UNL     1      47.901   7.401  18.937  0.00  0.00    +0.000 S 
BRANCH   9  10
ATOM     10  C   UNL     1      48.562   5.854  19.640  0.00  0.00    +0.000 C 
BRANCH  10  11
ATOM     11  C   UNL     1      48.593   4.724  18.629  0.00  0.00    +0.000 A 
ATOM     12  C   UNL     1      49.792   4.057  18.333  0.00  0.00    +0.000 A 
ATOM     13  C   UNL     1      49.815   2.992  17.427  0.00  0.00    +0.000 A 
ATOM     14  C   UNL     1      48.642   2.584  16.797  0.00  0.00    +0.000 A 
ATOM     15  C   UNL     1      47.448   3.248  17.067  0.00  0.00    +0.000 A 
ATOM     16  C   UNL     1      47.424   4.315  17.976  0.00  0.00    +0.000 A 
ENDBRANCH  10  11
ENDBRANCH   9  10
ENDBRANCH   8   9
ENDBRANCH   5   8
ENDBRANCH   1   2
BRANCH   1  19
ATOM     17  C   UNL     1      46.255   6.954  11.364  0.00  0.00    +0.000 C 
ATOM     18  O   UNL     1      45.565   7.903  11.735  0.00  0.00    +0.000 OA
ATOM     19  N   UNL     1      47.623   6.971  11.507  0.00  0.00    +0.000 N 
ATOM     20  H   UNL     1      48.175   6.192  11.181  0.00  0.00    +0.000 HD
BRANCH  17  28
ATOM     21  C   UNL     1      44.467   4.335  12.676  0.00  0.00    +0.000 A 
ATOM     22  N   UNL     1      43.684   3.265  12.917  0.00  0.00    +0.000 NA
ATOM     23  C   UNL     1      43.326   2.507  11.877  0.00  0.00    +0.000 A 
ATOM     24  N   UNL     1      43.672   2.678  10.603  0.00  0.00    +0.000 NA
ATOM     25  C   UNL     1      44.438   3.764  10.407  0.00  0.00    +0.000 A 
ATOM     26  S   UNL     1      44.990   4.136   8.845  0.00  0.00    +0.000 S 
ATOM     27  C   UNL     1      45.789   5.529   9.406  0.00  0.00    +0.000 A 
ATOM     28  C   UNL     1      45.645   5.750  10.772  0.00  0.00    +0.000 A 
ATOM     29  C   UNL     1      44.867   4.669  11.373  0.00  0.00    +0.000 A 
BRANCH  21  31
ATOM     30  C   UNL     1      46.146   4.825  14.228  0.00  0.00    +0.000 C 
ATOM     31  O   UNL     1      44.840   5.121  13.744  0.00  0.00    +0.000 OA
ENDBRANCH  21  31
ENDBRANCH  17  28
ENDBRANCH   1  19
TORSDOF 8
ENDMDL
MODEL 7
REMARK VINA RESULT:    -6.832      2.130      3.764
REMARK INTER + INTRA:         -11.325
REMARK INTER:                 -10.216
REMARK INTRA:                  -1.110
REMARK UNBOUND:                -1.298
REMARK  Name = 
REMARK  9 active torsions:
REMARK  status: ('A' for Active; 'I' for Inactive)
REMARK    1  A    between atoms: C_1  and  O_2
REMARK    2  A    between atoms: O_2  and  C_3
REMARK    3  A    between atoms: C_10  and  C_11
REMARK    4  A    between atoms: N_13  and  C_14
REMARK    5  A    between atoms: C_14  and  C_15
REMARK    6  A    between atoms: C_18  and  C_19
REMARK    7  A    between atoms: C_19  and  S_20
REMARK    8  A    between atoms: S_20  and  C_21
REMARK    9  A    between atoms: C_21  and  C_22
REMARK                            x       y       z     vdW  Elec       q    Type
REMARK                         _______ _______ _______ _____ _____    ______ ____
ROOT
ATOM      1  C   UNL     1      47.560   4.411  15.899  0.00  0.00    +0.000 C 
ENDROOT
BRANCH   1   2
ATOM      2  C   UNL     1      47.010   4.641  14.510  0.00  0.00    +0.000 A 
ATOM      3  C   UNL     1      46.509   3.574  13.755  0.00  0.00    +0.000 A 
ATOM      4  C   UNL     1      45.867   3.799  12.530  0.00  0.00    +0.000 A 
ATOM      5  C   UNL     1      45.704   5.098  12.024  0.00  0.00    +0.000 A 
ATOM      6  C   UNL     1      46.296   6.155  12.733  0.00  0.00    +0.000 A 
ATOM      7  C   UNL     1      46.944   5.929  13.960  0.00  0.00    +0.000 A 
BRANCH   5   8
ATOM      8  C   UNL     1      44.916   5.350  10.749  0.00  0.00    +0.000 C 
BRANCH   8   9
ATOM      9  S   UNL     1      44.220   3.807  10.040  0.00  0.00    +0.000 S 
BRANCH   9  10
ATOM     10  C   UNL     1      44.604   4.065   8.277  0.00  0.00    +0.000 C 
BRANCH  10  11
ATOM     11  C   UNL     1      45.653   3.098   7.764  0.00  0.00    +0.000 A 
ATOM     12  C   UNL     1      45.804   1.828   8.343  0.00  0.00    +0.000 A 
ATOM     13  C   UNL     1      46.748   0.922   7.848  0.00  0.00    +0.000 A 
ATOM     14  C   UNL     1      47.561   1.275   6.774  0.00  0.00    +0.000 A 
ATOM     15  C   UNL     1      47.434   2.538   6.200  0.00  0.00    +0.000 A 
ATOM     16  C   UNL     1      46.488   3.447   6.695  0.00  0.00    +0.000 A 
ENDBRANCH  10  11
ENDBRANCH   9  10
ENDBRANCH   8   9
ENDBRANCH   5   8
ENDBRANCH   1   2
BRANCH   1  19
ATOM     17  C   UNL     1      49.340   5.735  16.968  0.00  0.00    +0.000 C 
ATOM     18  O   UNL     1      50.140   4.807  16.862  0.00  0.00    +0.000 OA
ATOM     19  N   UNL     1      48.048   5.616  16.515  0.00  0.00    +0.000 N 
ATOM     20  H   UNL     1      47.410   6.394  16.593  0.00  0.00    +0.000 HD
BRANCH  17  28
ATOM     21  C   UNL     1      49.464   8.980  15.857  0.00  0.00    +0.000 A 
ATOM     22  N   UNL     1      49.516  10.317  15.703  0.00  0.00    +0.000 NA
ATOM     23  C   UNL     1      49.872  11.055  16.758  0.00  0.00    +0.000 A 
ATOM     24  N   UNL     1      50.205  10.613  17.969  0.00  0.00    +0.000 NA
ATOM     25  C   UNL     1      50.124   9.277  18.082  0.00  0.00    +0.000 A 
ATOM     26  S   UNL     1      50.526   8.530  19.552  0.00  0.00    +0.000 S 
ATOM     27  C   UNL     1      50.168   6.990  18.924  0.00  0.00    +0.000 A 
ATOM     28  C   UNL     1      49.726   7.008  17.605  0.00  0.00    +0.000 A 
ATOM     29  C   UNL     1      49.738   8.376  17.094  0.00  0.00    +0.000 A 
BRANCH  21  31
ATOM     30  C   UNL     1      50.154   8.028  13.835  0.00  0.00    +0.000 C 
ATOM     31  O   UNL     1      49.098   8.215  14.772  0.00  0.00    +0.000 OA
ENDBRANCH  21  31
ENDBRANCH  17  28
ENDBRANCH   1  19
TORSDOF 8
ENDMDL
MODEL 8
REMARK VINA RESULT:    -6.623      3.378      8.845
REMARK INTER + INTRA:         -11.018
REMARK INTER:                  -9.194
REMARK INTRA:                  -1.825
REMARK UNBOUND:                -1.298
REMARK  Name = 
REMARK  9 active torsions:
REMARK  status: ('A' for Active; 'I' for Inactive)
REMARK    1  A    between atoms: C_1  and  O_2
REMARK    2  A    between atoms: O_2  and  C_3
REMARK    3  A    between atoms: C_10  and  C_11
REMARK    4  A    between atoms: N_13  and  C_14
REMARK    5  A    between atoms: C_14  and  C_15
REMARK    6  A    between atoms: C_18  and  C_19
REMARK    7  A    between atoms: C_19  and  S_20
REMARK    8  A    between atoms: S_20  and  C_21
REMARK    9  A    between atoms: C_21  and  C_22
REMARK                            x       y       z     vdW  Elec       q    Type
REMARK                         _______ _______ _______ _____ _____    ______ ____
ROOT
ATOM      1  C   UNL     1      47.401   3.698  15.714  0.00  0.00    +0.000 C 
ENDROOT
BRANCH   1   2
ATOM      2  C   UNL     1      48.047   4.408  16.882  0.00  0.00    +0.000 A 
ATOM      3  C   UNL     1      48.025   3.841  18.162  0.00  0.00    +0.000 A 
ATOM      4  C   UNL     1      48.743   4.419  19.217  0.00  0.00    +0.000 A 
ATOM      5  C   UNL     1      49.507   5.580  19.023  0.00  0.00    +0.000 A 
ATOM      6  C   UNL     1      49.446   6.202  17.767  0.00  0.00    +0.000 A 
ATOM      7  C   UNL     1      48.721   5.625  16.710  0.00  0.00    +0.000 A 
BRANCH   5   8
ATOM      8  C   UNL     1      50.369   6.147  20.140  0.00  0.00    +0.000 C 
BRANCH   8   9
ATOM      9  S   UNL     1      51.798   5.066  20.537  0.00  0.00    +0.000 S 
BRANCH   9  10
ATOM     10  C   UNL     1      52.507   4.850  18.871  0.00  0.00    +0.000 C 
BRANCH  10  11
ATOM     11  C   UNL     1      52.563   3.395  18.449  0.00  0.00    +0.000 A 
ATOM     12  C   UNL     1      51.500   2.810  17.742  0.00  0.00    +0.000 A 
ATOM     13  C   UNL     1      51.566   1.477  17.322  0.00  0.00    +0.000 A 
ATOM     14  C   UNL     1      52.690   0.708  17.609  0.00  0.00    +0.000 A 
ATOM     15  C   UNL     1      53.745   1.269  18.325  0.00  0.00    +0.000 A 
ATOM     16  C   UNL     1      53.680   2.605  18.746  0.00  0.00    +0.000 A 
ENDBRANCH  10  11
ENDBRANCH   9  10
ENDBRANCH   8   9
ENDBRANCH   5   8
ENDBRANCH   1   2
BRANCH   1  19
ATOM     17  C   UNL     1      46.103   4.191  13.680  0.00  0.00    +0.000 C 
ATOM     18  O   UNL     1      46.344   3.078  13.216  0.00  0.00    +0.000 OA
ATOM     19  N   UNL     1      46.590   4.571  14.908  0.00  0.00    +0.000 N 
ATOM     20  H   UNL     1      46.367   5.482  15.281  0.00  0.00    +0.000 HD
BRANCH  17  28
ATOM     21  C   UNL     1      46.505   7.533  13.006  0.00  0.00    +0.000 A 
ATOM     22  N   UNL     1      46.470   8.793  12.533  0.00  0.00    +0.000 NA
ATOM     23  C   UNL     1      45.453   9.133  11.735  0.00  0.00    +0.000 A 
ATOM     24  N   UNL     1      44.438   8.360  11.356  0.00  0.00    +0.000 NA
ATOM     25  C   UNL     1      44.523   7.108  11.838  0.00  0.00    +0.000 A 
ATOM     26  S   UNL     1      43.307   5.981  11.472  0.00  0.00    +0.000 S 
ATOM     27  C   UNL     1      44.102   4.763  12.355  0.00  0.00    +0.000 A 
ATOM     28  C   UNL     1      45.301   5.175  12.929  0.00  0.00    +0.000 A 
ATOM     29  C   UNL     1      45.528   6.590  12.648  0.00  0.00    +0.000 A 
BRANCH  21  31
ATOM     30  C   UNL     1      48.760   6.922  13.121  0.00  0.00    +0.000 C 
ATOM     31  O   UNL     1      47.550   7.177  13.829  0.00  0.00    +0.000 OA
ENDBRANCH  21  31
ENDBRANCH  17  28
ENDBRANCH   1  19
TORSDOF 8
ENDMDL
MODEL 9
REMARK VINA RESULT:    -6.616      2.446      3.268
REMARK INTER + INTRA:         -11.008
REMARK INTER:                 -10.091
REMARK INTRA:                  -0.918
REMARK UNBOUND:                -1.298
REMARK  Name = 
REMARK  9 active torsions:
REMARK  status: ('A' for Active; 'I' for Inactive)
REMARK    1  A    between atoms: C_1  and  O_2
REMARK    2  A    between atoms: O_2  and  C_3
REMARK    3  A    between atoms: C_10  and  C_11
REMARK    4  A    between atoms: N_13  and  C_14
REMARK    5  A    between atoms: C_14  and  C_15
REMARK    6  A    between atoms: C_18  and  C_19
REMARK    7  A    between atoms: C_19  and  S_20
REMARK    8  A    between atoms: S_20  and  C_21
REMARK    9  A    between atoms: C_21  and  C_22
REMARK                            x       y       z     vdW  Elec       q    Type
REMARK                         _______ _______ _______ _____ _____    ______ ____
ROOT
ATOM      1  C   UNL     1      47.183   8.994  13.026  0.00  0.00    +0.000 C 
ENDROOT
BRANCH   1   2
ATOM      2  C   UNL     1      46.501   7.659  12.837  0.00  0.00    +0.000 A 
ATOM      3  C   UNL     1      45.264   7.575  12.186  0.00  0.00    +0.000 A 
ATOM      4  C   UNL     1      44.696   6.332  11.879  0.00  0.00    +0.000 A 
ATOM      5  C   UNL     1      45.348   5.134  12.212  0.00  0.00    +0.000 A 
ATOM      6  C   UNL     1      46.536   5.221  12.954  0.00  0.00    +0.000 A 
ATOM      7  C   UNL     1      47.104   6.468  13.266  0.00  0.00    +0.000 A 
BRANCH   5   8
ATOM      8  C   UNL     1      44.783   3.789  11.786  0.00  0.00    +0.000 C 
BRANCH   8   9
ATOM      9  S   UNL     1      44.036   3.843  10.111  0.00  0.00    +0.000 S 
BRANCH   9  10
ATOM     10  C   UNL     1      44.554   2.213   9.479  0.00  0.00    +0.000 C 
BRANCH  10  11
ATOM     11  C   UNL     1      45.610   2.320   8.396  0.00  0.00    +0.000 A 
ATOM     12  C   UNL     1      46.416   1.219   8.067  0.00  0.00    +0.000 A 
ATOM     13  C   UNL     1      47.367   1.306   7.045  0.00  0.00    +0.000 A 
ATOM     14  C   UNL     1      47.531   2.497   6.341  0.00  0.00    +0.000 A 
ATOM     15  C   UNL     1      46.750   3.603   6.668  0.00  0.00    +0.000 A 
ATOM     16  C   UNL     1      45.797   3.517   7.693  0.00  0.00    +0.000 A 
ENDBRANCH  10  11
ENDBRANCH   9  10
ENDBRANCH   8   9
ENDBRANCH   5   8
ENDBRANCH   1   2
BRANCH   1  19
ATOM     17  C   UNL     1      49.620   8.681  12.859  0.00  0.00    +0.000 C 
ATOM     18  O   UNL     1      49.559   8.600  11.633  0.00  0.00    +0.000 OA
ATOM     19  N   UNL     1      48.490   8.876  13.616  0.00  0.00    +0.000 N 
ATOM     20  H   UNL     1      48.561   8.959  14.620  0.00  0.00    +0.000 HD
BRANCH  17  28
ATOM     21  C   UNL     1      50.585   6.986  15.683  0.00  0.00    +0.000 A 
ATOM     22  N   UNL     1      51.229   6.358  16.685  0.00  0.00    +0.000 NA
ATOM     23  C   UNL     1      52.546   6.554  16.800  0.00  0.00    +0.000 A 
ATOM     24  N   UNL     1      53.312   7.326  16.033  0.00  0.00    +0.000 NA
ATOM     25  C   UNL     1      52.631   7.919  15.038  0.00  0.00    +0.000 A 
ATOM     26  S   UNL     1      53.441   8.955  13.964  0.00  0.00    +0.000 S 
ATOM     27  C   UNL     1      52.013   9.239  13.084  0.00  0.00    +0.000 A 
ATOM     28  C   UNL     1      50.906   8.550  13.570  0.00  0.00    +0.000 A 
ATOM     29  C   UNL     1      51.273   7.792  14.762  0.00  0.00    +0.000 A 
BRANCH  21  31
ATOM     30  C   UNL     1      48.673   6.018  16.620  0.00  0.00    +0.000 C 
ATOM     31  O   UNL     1      49.227   6.789  15.559  0.00  0.00    +0.000 OA
ENDBRANCH  21  31
ENDBRANCH  17  28
ENDBRANCH   1  19
TORSDOF 8
ENDMDL
