MODEL 1
REMARK VINA RESULT:    -7.092      0.000      0.000
REMARK INTER + INTRA:         -10.343
REMARK INTER:                  -9.787
REMARK INTRA:                  -0.556
REMARK UNBOUND:                -0.556
REMARK  Name = 
REMARK  9 active torsions:
REMARK  status: ('A' for Active; 'I' for Inactive)
REMARK    1  A    between atoms: C_1  and  C_2
REMARK    2  A    between atoms: C_4  and  N_5
REMARK    3  A    between atoms: N_5  and  C_6
REMARK    4  A    between atoms: C_6  and  C_7
REMARK    5  A    between atoms: C_10  and  N_11
REMARK    6  A    between atoms: N_11  and  C_12
REMARK    7  A    between atoms: C_12  and  C_13
REMARK    8  A    between atoms: C_13  and  N_14
REMARK    9  A    between atoms: C_18  and  C_19
REMARK                            x       y       z     vdW  Elec       q    Type
REMARK                         _______ _______ _______ _____ _____    ______ ____
ROOT
ATOM      1  C   UNL     1      44.743   4.318  11.174  0.00  0.00    +0.000 A 
ATOM      2  C   UNL     1      44.415   3.035  10.729  0.00  0.00    +0.000 A 
ATOM      3  C   UNL     1      44.648   2.660   9.401  0.00  0.00    +0.000 A 
ATOM      4  C   UNL     1      45.207   3.549   8.476  0.00  0.00    +0.000 A 
ATOM      5  C   UNL     1      45.576   4.817   8.945  0.00  0.00    +0.000 A 
ATOM      6  C   UNL     1      45.338   5.206  10.270  0.00  0.00    +0.000 A 
ENDROOT
BRANCH   4   7
ATOM      7  N   UNL     1      45.547   3.176   7.174  0.00  0.00    +0.000 N 
ATOM      8  H   UNL     1      45.219   2.246   6.910  0.00  0.00    +0.000 HD
BRANCH   7   9
ATOM      9  C   UNL     1      46.912   3.398   6.699  0.00  0.00    +0.000 C 
BRANCH   9  10
ATOM     10  C   UNL     1      47.745   2.111   6.859  0.00  0.00    +0.000 C 
BRANCH  10  11
ATOM     11  N   UNL     1      48.557   1.807   5.674  0.00  0.00    +0.000 NA
ATOM     12  H   UNL     1      49.059   0.933   5.823  0.00  0.00    +0.000 HD
ATOM     13  H   UNL     1      49.269   2.531   5.572  0.00  0.00    +0.000 HD
ENDBRANCH  10  11
ENDBRANCH   9  10
ENDBRANCH   7   9
ENDBRANCH   4   7
BRANCH   1  14
ATOM     14  C   UNL     1      44.472   4.715  12.602  0.00  0.00    +0.000 C 
BRANCH  14  15
ATOM     15  N   UNL     1      45.350   4.023  13.512  0.00  0.00    +0.000 N 
ATOM     16  H   UNL     1      45.312   3.014  13.583  0.00  0.00    +0.000 HD
BRANCH  15  20
ATOM     17  C   UNL     1      48.870   7.442  13.892  0.00  0.00    +0.000 C 
ATOM     18  C   UNL     1      48.115   6.240  14.377  0.00  0.00    +0.000 A 
ATOM     19  C   UNL     1      47.079   5.711  13.638  0.00  0.00    +0.000 A 
ATOM     20  C   UNL     1      46.416   4.613  14.146  0.00  0.00    +0.000 A 
ATOM     21  N   UNL     1      46.774   4.073  15.323  0.00  0.00    +0.000 NA
ATOM     22  C   UNL     1      47.801   4.645  15.983  0.00  0.00    +0.000 A 
ATOM     23  C   UNL     1      48.221   4.048  17.290  0.00  0.00    +0.000 C 
ATOM     24  N   UNL     1      48.492   5.716  15.556  0.00  0.00    +0.000 NA
ENDBRANCH  15  20
ENDBRANCH  14  15
ENDBRANCH   1  14
TORSDOF 7
ENDMDL
MODEL 2
REMARK VINA RESULT:    -6.776      1.339      1.623
REMARK INTER + INTRA:          -9.907
REMARK INTER:                  -9.486
REMARK INTRA:                  -0.421
REMARK UNBOUND:                -0.556
REMARK  Name = 
REMARK  9 active torsions:
REMARK  status: ('A' for Active; 'I' for Inactive)
REMARK    1  A    between atoms: C_1  and  C_2
REMARK    2  A    between atoms: C_4  and  N_5
REMARK    3  A    between atoms: N_5  and  C_6
REMARK    4  A    between atoms: C_6  and  C_7
REMARK    5  A    between atoms: C_10  and  N_11
REMARK    6  A    between atoms: N_11  and  C_12
REMARK    7  A    between atoms: C_12  and  C_13
REMARK    8  A    between atoms: C_13  and  N_14
REMARK    9  A    between atoms: C_18  and  C_19
REMARK                            x       y       z     vdW  Elec       q    Type
REMARK                         _______ _______ _______ _____ _____    ______ ____
ROOT
ATOM      1  C   UNL     1      43.720   4.308  10.958  0.00  0.00    +0.000 A 
ATOM      2  C   UNL     1      43.877   2.921  11.015  0.00  0.00    +0.000 A 
ATOM      3  C   UNL     1      44.493   2.228   9.967  0.00  0.00    +0.000 A 
ATOM      4  C   UNL     1      44.963   2.891   8.828  0.00  0.00    +0.000 A 
ATOM      5  C   UNL     1      44.844   4.288   8.802  0.00  0.00    +0.000 A 
ATOM      6  C   UNL     1      44.220   4.989   9.842  0.00  0.00    +0.000 A 
ENDROOT
BRANCH   4   7
ATOM      7  N   UNL     1      45.673   2.246   7.814  0.00  0.00    +0.000 N 
ATOM      8  H   UNL     1      45.866   1.262   8.003  0.00  0.00    +0.000 HD
BRANCH   7   9
ATOM      9  C   UNL     1      46.844   2.901   7.231  0.00  0.00    +0.000 C 
BRANCH   9  10
ATOM     10  C   UNL     1      47.946   1.861   6.947  0.00  0.00    +0.000 C 
BRANCH  10  11
ATOM     11  N   UNL     1      48.437   1.915   5.563  0.00  0.00    +0.000 NA
ATOM     12  H   UNL     1      49.407   1.604   5.536  0.00  0.00    +0.000 HD
ATOM     13  H   UNL     1      48.442   2.889   5.258  0.00  0.00    +0.000 HD
ENDBRANCH  10  11
ENDBRANCH   9  10
ENDBRANCH   7   9
ENDBRANCH   4   7
BRANCH   1  14
ATOM     14  C   UNL     1      43.039   5.040  12.085  0.00  0.00    +0.000 C 
BRANCH  14  15
ATOM     15  N   UNL     1      43.862   6.115  12.581  0.00  0.00    +0.000 N 
ATOM     16  H   UNL     1      43.433   6.968  12.915  0.00  0.00    +0.000 HD
BRANCH  15  20
ATOM     17  C   UNL     1      48.581   7.396  12.020  0.00  0.00    +0.000 C 
ATOM     18  C   UNL     1      47.481   6.577  12.625  0.00  0.00    +0.000 A 
ATOM     19  C   UNL     1      46.168   6.767  12.249  0.00  0.00    +0.000 A 
ATOM     20  C   UNL     1      45.202   5.990  12.854  0.00  0.00    +0.000 A 
ATOM     21  N   UNL     1      45.533   5.071  13.777  0.00  0.00    +0.000 NA
ATOM     22  C   UNL     1      46.838   4.941  14.085  0.00  0.00    +0.000 A 
ATOM     23  C   UNL     1      47.224   3.912  15.102  0.00  0.00    +0.000 C 
ATOM     24  N   UNL     1      47.835   5.662  13.545  0.00  0.00    +0.000 NA
ENDBRANCH  15  20
ENDBRANCH  14  15
ENDBRANCH   1  14
TORSDOF 7
ENDMDL
MODEL 3
REMARK VINA RESULT:    -6.659      0.771      1.955
REMARK INTER + INTRA:          -9.745
REMARK INTER:                  -9.300
REMARK INTRA:                  -0.445
REMARK UNBOUND:                -0.556
REMARK  Name = 
REMARK  9 active torsions:
REMARK  status: ('A' for Active; 'I' for Inactive)
REMARK    1  A    between atoms: C_1  and  C_2
REMARK    2  A    between atoms: C_4  and  N_5
REMARK    3  A    between atoms: N_5  and  C_6
REMARK    4  A    between atoms: C_6  and  C_7
REMARK    5  A    between atoms: C_10  and  N_11
REMARK    6  A    between atoms: N_11  and  C_12
REMARK    7  A    between atoms: C_12  and  C_13
REMARK    8  A    between atoms: C_13  and  N_14
REMARK    9  A    between atoms: C_18  and  C_19
REMARK                            x       y       z     vdW  Elec       q    Type
REMARK                         _______ _______ _______ _____ _____    ______ ____
ROOT
ATOM      1  C   UNL     1      45.148   4.564  11.563  0.00  0.00    +0.000 A 
ATOM      2  C   UNL     1      44.824   3.252  11.208  0.00  0.00    +0.000 A 
ATOM      3  C   UNL     1      44.851   2.847   9.869  0.00  0.00    +0.000 A 
ATOM      4  C   UNL     1      45.192   3.735   8.842  0.00  0.00    +0.000 A 
ATOM      5  C   UNL     1      45.562   5.035   9.213  0.00  0.00    +0.000 A 
ATOM      6  C   UNL     1      45.529   5.453  10.551  0.00  0.00    +0.000 A 
ENDROOT
BRANCH   4   7
ATOM      7  N   UNL     1      45.329   3.338   7.511  0.00  0.00    +0.000 N 
ATOM      8  H   UNL     1      44.907   2.433   7.302  0.00  0.00    +0.000 HD
BRANCH   7   9
ATOM      9  C   UNL     1      46.630   3.467   6.855  0.00  0.00    +0.000 C 
BRANCH   9  10
ATOM     10  C   UNL     1      47.444   2.170   7.034  0.00  0.00    +0.000 C 
BRANCH  10  11
ATOM     11  N   UNL     1      48.380   1.928   5.927  0.00  0.00    +0.000 NA
ATOM     12  H   UNL     1      48.079   2.456   5.109  0.00  0.00    +0.000 HD
ATOM     13  H   UNL     1      48.327   0.943   5.666  0.00  0.00    +0.000 HD
ENDBRANCH  10  11
ENDBRANCH   9  10
ENDBRANCH   7   9
ENDBRANCH   4   7
BRANCH   1  14
ATOM     14  C   UNL     1      45.099   4.991  13.007  0.00  0.00    +0.000 C 
BRANCH  14  15
ATOM     15  N   UNL     1      45.974   4.184  13.820  0.00  0.00    +0.000 N 
ATOM     16  H   UNL     1      46.029   3.186  13.666  0.00  0.00    +0.000 HD
BRANCH  15  20
ATOM     17  C   UNL     1      48.498   4.277  18.044  0.00  0.00    +0.000 C 
ATOM     18  C   UNL     1      48.176   4.778  16.668  0.00  0.00    +0.000 A 
ATOM     19  C   UNL     1      47.167   4.202  15.925  0.00  0.00    +0.000 A 
ATOM     20  C   UNL     1      46.930   4.699  14.660  0.00  0.00    +0.000 A 
ATOM     21  N   UNL     1      47.656   5.719  14.171  0.00  0.00    +0.000 NA
ATOM     22  C   UNL     1      48.620   6.231  14.962  0.00  0.00    +0.000 A 
ATOM     23  C   UNL     1      49.430   7.375  14.436  0.00  0.00    +0.000 C 
ATOM     24  N   UNL     1      48.914   5.799  16.199  0.00  0.00    +0.000 NA
ENDBRANCH  15  20
ENDBRANCH  14  15
ENDBRANCH   1  14
TORSDOF 7
ENDMDL
MODEL 4
REMARK VINA RESULT:    -6.344      1.905      2.615
REMARK INTER + INTRA:          -9.311
REMARK INTER:                  -8.941
REMARK INTRA:                  -0.370
REMARK UNBOUND:                -0.556
REMARK  Name = 
REMARK  9 active torsions:
REMARK  status: ('A' for Active; 'I' for Inactive)
REMARK    1  A    between atoms: C_1  and  C_2
REMARK    2  A    between atoms: C_4  and  N_5
REMARK    3  A    between atoms: N_5  and  C_6
REMARK    4  A    between atoms: C_6  and  C_7
REMARK    5  A    between atoms: C_10  and  N_11
REMARK    6  A    between atoms: N_11  and  C_12
REMARK    7  A    between atoms: C_12  and  C_13
REMARK    8  A    between atoms: C_13  and  N_14
REMARK    9  A    between atoms: C_18  and  C_19
REMARK                            x       y       z     vdW  Elec       q    Type
REMARK                         _______ _______ _______ _____ _____    ______ ____
ROOT
ATOM      1  C   UNL     1      44.178   3.900  10.806  0.00  0.00    +0.000 A 
ATOM      2  C   UNL     1      44.150   2.560  10.410  0.00  0.00    +0.000 A 
ATOM      3  C   UNL     1      44.719   2.164   9.195  0.00  0.00    +0.000 A 
ATOM      4  C   UNL     1      45.325   3.086   8.334  0.00  0.00    +0.000 A 
ATOM      5  C   UNL     1      45.390   4.419   8.762  0.00  0.00    +0.000 A 
ATOM      6  C   UNL     1      44.814   4.828   9.973  0.00  0.00    +0.000 A 
ENDROOT
BRANCH   4   7
ATOM      7  N   UNL     1      45.992   2.709   7.166  0.00  0.00    +0.000 N 
ATOM      8  H   UNL     1      45.380   2.602   6.356  0.00  0.00    +0.000 HD
BRANCH   7   9
ATOM      9  C   UNL     1      46.975   1.628   7.220  0.00  0.00    +0.000 C 
BRANCH   9  10
ATOM     10  C   UNL     1      48.330   2.116   6.669  0.00  0.00    +0.000 C 
BRANCH  10  11
ATOM     11  N   UNL     1      48.357   2.183   5.202  0.00  0.00    +0.000 NA
ATOM     12  H   UNL     1      48.975   2.938   4.909  0.00  0.00    +0.000 HD
ATOM     13  H   UNL     1      47.425   2.434   4.870  0.00  0.00    +0.000 HD
ENDBRANCH  10  11
ENDBRANCH   9  10
ENDBRANCH   7   9
ENDBRANCH   4   7
BRANCH   1  14
ATOM     14  C   UNL     1      43.546   4.317  12.108  0.00  0.00    +0.000 C 
BRANCH  14  15
ATOM     15  N   UNL     1      44.548   4.619  13.101  0.00  0.00    +0.000 N 
ATOM     16  H   UNL     1      44.778   3.936  13.810  0.00  0.00    +0.000 HD
BRANCH  15  20
ATOM     17  C   UNL     1      49.021   6.672  13.076  0.00  0.00    +0.000 C 
ATOM     18  C   UNL     1      47.525   6.727  13.001  0.00  0.00    +0.000 A 
ATOM     19  C   UNL     1      46.769   5.580  13.120  0.00  0.00    +0.000 A 
ATOM     20  C   UNL     1      45.397   5.696  13.029  0.00  0.00    +0.000 A 
ATOM     21  N   UNL     1      44.816   6.892  12.836  0.00  0.00    +0.000 NA
ATOM     22  C   UNL     1      45.624   7.967  12.736  0.00  0.00    +0.000 A 
ATOM     23  C   UNL     1      44.991   9.309  12.533  0.00  0.00    +0.000 C 
ATOM     24  N   UNL     1      46.965   7.934  12.809  0.00  0.00    +0.000 NA
ENDBRANCH  15  20
ENDBRANCH  14  15
ENDBRANCH   1  14
TORSDOF 7
ENDMDL
MODEL 5
REMARK VINA RESULT:    -6.219      1.728      3.095
REMARK INTER + INTRA:          -9.137
REMARK INTER:                  -8.688
REMARK INTRA:                  -0.450
REMARK UNBOUND:                -0.556
REMARK  Name = 
REMARK  9 active torsions:
REMARK  status: ('A' for Active; 'I' for Inactive)
REMARK    1  A    between atoms: C_1  and  C_2
REMARK    2  A    between atoms: C_4  and  N_5
REMARK    3  A    between atoms: N_5  and  C_6
REMARK    4  A    between atoms: C_6  and  C_7
REMARK    5  A    between atoms: C_10  and  N_11
REMARK    6  A    between atoms: N_11  and  C_12
REMARK    7  A    between atoms: C_12  and  C_13
REMARK    8  A    between atoms: C_13  and  N_14
REMARK    9  A    between atoms: C_18  and  C_19
REMARK                            x       y       z     vdW  Elec       q    Type
REMARK                         _______ _______ _______ _____ _____    ______ ____
ROOT
ATOM      1  C   UNL     1      46.247   5.138  12.882  0.00  0.00    +0.000 A 
ATOM      2  C   UNL     1      45.570   3.932  12.681  0.00  0.00    +0.000 A 
ATOM      3  C   UNL     1      44.915   3.675  11.471  0.00  0.00    +0.000 A 
ATOM      4  C   UNL     1      44.907   4.609  10.429  0.00  0.00    +0.000 A 
ATOM      5  C   UNL     1      45.629   5.794  10.623  0.00  0.00    +0.000 A 
ATOM      6  C   UNL     1      46.280   6.066  11.835  0.00  0.00    +0.000 A 
ENDROOT
BRANCH   4   7
ATOM      7  N   UNL     1      44.354   4.342   9.175  0.00  0.00    +0.000 N 
ATOM      8  H   UNL     1      43.373   4.612   9.089  0.00  0.00    +0.000 HD
BRANCH   7   9
ATOM      9  C   UNL     1      44.591   3.042   8.550  0.00  0.00    +0.000 C 
BRANCH   9  10
ATOM     10  C   UNL     1      46.008   2.994   7.946  0.00  0.00    +0.000 C 
BRANCH  10  11
ATOM     11  N   UNL     1      46.329   4.188   7.152  0.00  0.00    +0.000 NA
ATOM     12  H   UNL     1      47.224   4.566   7.458  0.00  0.00    +0.000 HD
ATOM     13  H   UNL     1      45.633   4.907   7.350  0.00  0.00    +0.000 HD
ENDBRANCH  10  11
ENDBRANCH   9  10
ENDBRANCH   7   9
ENDBRANCH   4   7
BRANCH   1  14
ATOM     14  C   UNL     1      46.933   5.411  14.195  0.00  0.00    +0.000 C 
BRANCH  14  15
ATOM     15  N   UNL     1      46.745   4.319  15.118  0.00  0.00    +0.000 N 
ATOM     16  H   UNL     1      46.130   3.553  14.877  0.00  0.00    +0.000 HD
BRANCH  15  20
ATOM     17  C   UNL     1      48.016   5.205  19.790  0.00  0.00    +0.000 C 
ATOM     18  C   UNL     1      48.164   4.500  18.475  0.00  0.00    +0.000 A 
ATOM     19  C   UNL     1      47.345   4.811  17.410  0.00  0.00    +0.000 A 
ATOM     20  C   UNL     1      47.523   4.116  16.232  0.00  0.00    +0.000 A 
ATOM     21  N   UNL     1      48.471   3.170  16.124  0.00  0.00    +0.000 NA
ATOM     22  C   UNL     1      49.235   2.929  17.207  0.00  0.00    +0.000 A 
ATOM     23  C   UNL     1      50.304   1.886  17.100  0.00  0.00    +0.000 C 
ATOM     24  N   UNL     1      49.119   3.558  18.389  0.00  0.00    +0.000 NA
ENDBRANCH  15  20
ENDBRANCH  14  15
ENDBRANCH   1  14
TORSDOF 7
ENDMDL
MODEL 6
REMARK VINA RESULT:    -5.668      3.434      5.118
REMARK INTER + INTRA:          -8.377
REMARK INTER:                  -7.709
REMARK INTRA:                  -0.668
REMARK UNBOUND:                -0.556
REMARK  Name = 
REMARK  9 active torsions:
REMARK  status: ('A' for Active; 'I' for Inactive)
REMARK    1  A    between atoms: C_1  and  C_2
REMARK    2  A    between atoms: C_4  and  N_5
REMARK    3  A    between atoms: N_5  and  C_6
REMARK    4  A    between atoms: C_6  and  C_7
REMARK    5  A    between atoms: C_10  and  N_11
REMARK    6  A    between atoms: N_11  and  C_12
REMARK    7  A    between atoms: C_12  and  C_13
REMARK    8  A    between atoms: C_13  and  N_14
REMARK    9  A    between atoms: C_18  and  C_19
REMARK                            x       y       z     vdW  Elec       q    Type
REMARK                         _______ _______ _______ _____ _____    ______ ____
ROOT
ATOM      1  C   UNL     1      47.355   7.560  13.420  0.00  0.00    +0.000 A 
ATOM      2  C   UNL     1      46.285   8.422  13.166  0.00  0.00    +0.000 A 
ATOM      3  C   UNL     1      45.290   8.072  12.246  0.00  0.00    +0.000 A 
ATOM      4  C   UNL     1      45.332   6.861  11.547  0.00  0.00    +0.000 A 
ATOM      5  C   UNL     1      46.383   5.983  11.845  0.00  0.00    +0.000 A 
ATOM      6  C   UNL     1      47.390   6.328  12.757  0.00  0.00    +0.000 A 
ENDROOT
BRANCH   4   7
ATOM      7  N   UNL     1      44.304   6.436  10.703  0.00  0.00    +0.000 N 
ATOM      8  H   UNL     1      43.654   7.177  10.436  0.00  0.00    +0.000 HD
BRANCH   7   9
ATOM      9  C   UNL     1      43.585   5.202  11.014  0.00  0.00    +0.000 C 
BRANCH   9  10
ATOM     10  C   UNL     1      42.388   5.504  11.937  0.00  0.00    +0.000 C 
BRANCH  10  11
ATOM     11  N   UNL     1      42.702   5.313  13.359  0.00  0.00    +0.000 NA
ATOM     12  H   UNL     1      43.652   4.956  13.450  0.00  0.00    +0.000 HD
ATOM     13  H   UNL     1      42.088   4.589  13.734  0.00  0.00    +0.000 HD
ENDBRANCH  10  11
ENDBRANCH   9  10
ENDBRANCH   7   9
ENDBRANCH   4   7
BRANCH   1  14
ATOM     14  C   UNL     1      48.429   7.956  14.400  0.00  0.00    +0.000 C 
BRANCH  14  15
ATOM     15  N   UNL     1      49.041   6.796  15.000  0.00  0.00    +0.000 N 
ATOM     16  H   UNL     1      49.902   6.426  14.621  0.00  0.00    +0.000 HD
BRANCH  15  20
ATOM     17  C   UNL     1      48.178   7.126  19.834  0.00  0.00    +0.000 C 
ATOM     18  C   UNL     1      48.225   6.384  18.532  0.00  0.00    +0.000 A 
ATOM     19  C   UNL     1      48.656   7.006  17.380  0.00  0.00    +0.000 A 
ATOM     20  C   UNL     1      48.662   6.272  16.212  0.00  0.00    +0.000 A 
ATOM     21  N   UNL     1      48.267   4.988  16.200  0.00  0.00    +0.000 NA
ATOM     22  C   UNL     1      47.865   4.450  17.369  0.00  0.00    +0.000 A 
ATOM     23  C   UNL     1      47.433   3.017  17.375  0.00  0.00    +0.000 C 
ATOM     24  N   UNL     1      47.826   5.100  18.545  0.00  0.00    +0.000 NA
ENDBRANCH  15  20
ENDBRANCH  14  15
ENDBRANCH   1  14
TORSDOF 7
ENDMDL
MODEL 7
REMARK VINA RESULT:    -5.572      3.472      7.906
REMARK INTER + INTRA:          -8.245
REMARK INTER:                  -7.815
REMARK INTRA:                  -0.431
REMARK UNBOUND:                -0.556
REMARK  Name = 
REMARK  9 active torsions:
REMARK  status: ('A' for Active; 'I' for Inactive)
REMARK    1  A    between atoms: C_1  and  C_2
REMARK    2  A    between atoms: C_4  and  N_5
REMARK    3  A    between atoms: N_5  and  C_6
REMARK    4  A    between atoms: C_6  and  C_7
REMARK    5  A    between atoms: C_10  and  N_11
REMARK    6  A    between atoms: N_11  and  C_12
REMARK    7  A    between atoms: C_12  and  C_13
REMARK    8  A    between atoms: C_13  and  N_14
REMARK    9  A    between atoms: C_18  and  C_19
REMARK                            x       y       z     vdW  Elec       q    Type
REMARK                         _______ _______ _______ _____ _____    ______ ____
ROOT
ATOM      1  C   UNL     1      48.638   3.760  16.987  0.00  0.00    +0.000 A 
ATOM      2  C   UNL     1      48.912   2.416  16.720  0.00  0.00    +0.000 A 
ATOM      3  C   UNL     1      50.163   1.869  17.024  0.00  0.00    +0.000 A 
ATOM      4  C   UNL     1      51.181   2.641  17.596  0.00  0.00    +0.000 A 
ATOM      5  C   UNL     1      50.879   3.975  17.905  0.00  0.00    +0.000 A 
ATOM      6  C   UNL     1      49.632   4.535  17.594  0.00  0.00    +0.000 A 
ENDROOT
BRANCH   4   7
ATOM      7  N   UNL     1      52.402   2.103  18.007  0.00  0.00    +0.000 N 
ATOM      8  H   UNL     1      53.212   2.667  17.746  0.00  0.00    +0.000 HD
BRANCH   7   9
ATOM      9  C   UNL     1      52.667   0.682  17.790  0.00  0.00    +0.000 C 
BRANCH   9  10
ATOM     10  C   UNL     1      54.026   0.497  17.085  0.00  0.00    +0.000 C 
BRANCH  10  11
ATOM     11  N   UNL     1      54.005  -0.570  16.076  0.00  0.00    +0.000 NA
ATOM     12  H   UNL     1      54.422  -0.227  15.213  0.00  0.00    +0.000 HD
ATOM     13  H   UNL     1      53.033  -0.790  15.856  0.00  0.00    +0.000 HD
ENDBRANCH  10  11
ENDBRANCH   9  10
ENDBRANCH   7   9
ENDBRANCH   4   7
BRANCH   1  14
ATOM     14  C   UNL     1      47.292   4.341  16.639  0.00  0.00    +0.000 C 
BRANCH  14  15
ATOM     15  N   UNL     1      46.845   3.884  15.347  0.00  0.00    +0.000 N 
ATOM     16  H   UNL     1      46.378   2.990  15.260  0.00  0.00    +0.000 HD
BRANCH  15  20
ATOM     17  C   UNL     1      44.584   5.741  11.389  0.00  0.00    +0.000 C 
ATOM     18  C   UNL     1      45.750   5.604  12.321  0.00  0.00    +0.000 A 
ATOM     19  C   UNL     1      45.697   4.747  13.400  0.00  0.00    +0.000 A 
ATOM     20  C   UNL     1      46.798   4.678  14.227  0.00  0.00    +0.000 A 
ATOM     21  N   UNL     1      47.892   5.419  13.985  0.00  0.00    +0.000 NA
ATOM     22  C   UNL     1      47.869   6.228  12.907  0.00  0.00    +0.000 A 
ATOM     23  C   UNL     1      49.085   7.052  12.616  0.00  0.00    +0.000 C 
ATOM     24  N   UNL     1      46.834   6.355  12.059  0.00  0.00    +0.000 NA
ENDBRANCH  15  20
ENDBRANCH  14  15
ENDBRANCH   1  14
TORSDOF 7
ENDMDL
MODEL 8
REMARK VINA RESULT:    -5.486      3.968      5.344
REMARK INTER + INTRA:          -8.127
REMARK INTER:                  -7.670
REMARK INTRA:                  -0.457
REMARK UNBOUND:                -0.556
REMARK  Name = 
REMARK  9 active torsions:
REMARK  status: ('A' for Active; 'I' for Inactive)
REMARK    1  A    between atoms: C_1  and  C_2
REMARK    2  A    between atoms: C_4  and  N_5
REMARK    3  A    between atoms: N_5  and  C_6
REMARK    4  A    between atoms: C_6  and  C_7
REMARK    5  A    between atoms: C_10  and  N_11
REMARK    6  A    between atoms: N_11  and  C_12
REMARK    7  A    between atoms: C_12  and  C_13
REMARK    8  A    between atoms: C_13  and  N_14
REMARK    9  A    between atoms: C_18  and  C_19
REMARK                            x       y       z     vdW  Elec       q    Type
REMARK                         _______ _______ _______ _____ _____    ______ ____
ROOT
ATOM      1  C   UNL     1      46.183   4.962  13.267  0.00  0.00    +0.000 A 
ATOM      2  C   UNL     1      46.757   6.052  12.607  0.00  0.00    +0.000 A 
ATOM      3  C   UNL     1      45.960   6.953  11.892  0.00  0.00    +0.000 A 
ATOM      4  C   UNL     1      44.573   6.795  11.805  0.00  0.00    +0.000 A 
ATOM      5  C   UNL     1      44.002   5.726  12.509  0.00  0.00    +0.000 A 
ATOM      6  C   UNL     1      44.793   4.812  13.220  0.00  0.00    +0.000 A 
ENDROOT
BRANCH   4   7
ATOM      7  N   UNL     1      43.739   7.730  11.188  0.00  0.00    +0.000 N 
ATOM      8  H   UNL     1      43.281   7.384  10.344  0.00  0.00    +0.000 HD
BRANCH   7   9
ATOM      9  C   UNL     1      44.218   9.098  10.995  0.00  0.00    +0.000 C 
BRANCH   9  10
ATOM     10  C   UNL     1      43.030  10.081  11.002  0.00  0.00    +0.000 C 
BRANCH  10  11
ATOM     11  N   UNL     1      41.728   9.401  11.009  0.00  0.00    +0.000 NA
ATOM     12  H   UNL     1      41.430   9.233  10.050  0.00  0.00    +0.000 HD
ATOM     13  H   UNL     1      41.035  10.030  11.417  0.00  0.00    +0.000 HD
ENDBRANCH  10  11
ENDBRANCH   9  10
ENDBRANCH   7   9
ENDBRANCH   4   7
BRANCH   1  14
ATOM     14  C   UNL     1      47.054   3.990  14.019  0.00  0.00    +0.000 C 
BRANCH  14  15
ATOM     15  N   UNL     1      46.805   4.055  15.437  0.00  0.00    +0.000 N 
ATOM     16  H   UNL     1      46.011   3.571  15.834  0.00  0.00    +0.000 HD
BRANCH  15  20
ATOM     17  C   UNL     1      48.689   4.414  19.970  0.00  0.00    +0.000 C 
ATOM     18  C   UNL     1      48.650   4.746  18.509  0.00  0.00    +0.000 A 
ATOM     19  C   UNL     1      47.676   4.215  17.689  0.00  0.00    +0.000 A 
ATOM     20  C   UNL     1      47.704   4.549  16.351  0.00  0.00    +0.000 A 
ATOM     21  N   UNL     1      48.647   5.372  15.863  0.00  0.00    +0.000 NA
ATOM     22  C   UNL     1      49.560   5.854  16.729  0.00  0.00    +0.000 A 
ATOM     23  C   UNL     1      50.611   6.783  16.204  0.00  0.00    +0.000 C 
ATOM     24  N   UNL     1      49.603   5.572  18.043  0.00  0.00    +0.000 NA
ENDBRANCH  15  20
ENDBRANCH  14  15
ENDBRANCH   1  14
TORSDOF 7
ENDMDL
MODEL 9
REMARK VINA RESULT:    -5.470      3.229      8.071
REMARK INTER + INTRA:          -8.105
REMARK INTER:                  -7.675
REMARK INTRA:                  -0.430
REMARK UNBOUND:                -0.556
REMARK  Name = 
REMARK  9 active torsions:
REMARK  status: ('A' for Active; 'I' for Inactive)
REMARK    1  A    between atoms: C_1  and  C_2
REMARK    2  A    between atoms: C_4  and  N_5
REMARK    3  A    between atoms: N_5  and  C_6
REMARK    4  A    between atoms: C_6  and  C_7
REMARK    5  A    between atoms: C_10  and  N_11
REMARK    6  A    between atoms: N_11  and  C_12
REMARK    7  A    between atoms: C_12  and  C_13
REMARK    8  A    between atoms: C_13  and  N_14
REMARK    9  A    between atoms: C_18  and  C_19
REMARK                            x       y       z     vdW  Elec       q    Type
REMARK                         _______ _______ _______ _____ _____    ______ ____
ROOT
ATOM      1  C   UNL     1      48.496   3.726  16.621  0.00  0.00    +0.000 A 
ATOM      2  C   UNL     1      48.955   2.408  16.670  0.00  0.00    +0.000 A 
ATOM      3  C   UNL     1      50.186   2.102  17.261  0.00  0.00    +0.000 A 
ATOM      4  C   UNL     1      51.000   3.097  17.813  0.00  0.00    +0.000 A 
ATOM      5  C   UNL     1      50.509   4.410  17.801  0.00  0.00    +0.000 A 
ATOM      6  C   UNL     1      49.282   4.728  17.203  0.00  0.00    +0.000 A 
ENDROOT
BRANCH   4   7
ATOM      7  N   UNL     1      52.183   2.816  18.500  0.00  0.00    +0.000 N 
ATOM      8  H   UNL     1      52.460   3.540  19.164  0.00  0.00    +0.000 HD
BRANCH   7   9
ATOM      9  C   UNL     1      53.342   2.322  17.758  0.00  0.00    +0.000 C 
BRANCH   9  10
ATOM     10  C   UNL     1      53.607   0.844  18.109  0.00  0.00    +0.000 C 
BRANCH  10  11
ATOM     11  N   UNL     1      53.440  -0.054  16.959  0.00  0.00    +0.000 NA
ATOM     12  H   UNL     1      52.447  -0.170  16.762  0.00  0.00    +0.000 HD
ATOM     13  H   UNL     1      53.790  -0.978  17.214  0.00  0.00    +0.000 HD
ENDBRANCH  10  11
ENDBRANCH   9  10
ENDBRANCH   7   9
ENDBRANCH   4   7
BRANCH   1  14
ATOM     14  C   UNL     1      47.176   4.044  15.967  0.00  0.00    +0.000 C 
BRANCH  14  15
ATOM     15  N   UNL     1      47.106   3.490  14.638  0.00  0.00    +0.000 N 
ATOM     16  H   UNL     1      47.414   2.541  14.469  0.00  0.00    +0.000 HD
BRANCH  15  20
ATOM     17  C   UNL     1      46.085   7.283  11.673  0.00  0.00    +0.000 C 
ATOM     18  C   UNL     1      45.914   5.869  12.142  0.00  0.00    +0.000 A 
ATOM     19  C   UNL     1      46.623   5.393  13.224  0.00  0.00    +0.000 A 
ATOM     20  C   UNL     1      46.431   4.079  13.597  0.00  0.00    +0.000 A 
ATOM     21  N   UNL     1      45.572   3.290  12.929  0.00  0.00    +0.000 NA
ATOM     22  C   UNL     1      44.912   3.831  11.887  0.00  0.00    +0.000 A 
ATOM     23  C   UNL     1      43.943   2.968  11.139  0.00  0.00    +0.000 C 
ATOM     24  N   UNL     1      45.049   5.098  11.460  0.00  0.00    +0.000 NA
ENDBRANCH  15  20
ENDBRANCH  14  15
ENDBRANCH   1  14
TORSDOF 7
ENDMDL
