MODEL 1
REMARK VINA RESULT:    -8.938      0.000      0.000
REMARK INTER + INTRA:         -11.358
REMARK INTER:                 -11.028
REMARK INTRA:                  -0.330
REMARK UNBOUND:                -0.330
REMARK  Name = 
REMARK  4 active torsions:
REMARK  status: ('A' for Active; 'I' for Inactive)
REMARK    1  A    between atoms: C_2  and  C_4
REMARK    2  A    between atoms: N_8  and  C_9
REMARK    3  A    between atoms: C_9  and  C_10
REMARK    4  A    between atoms: C_12  and  C_13
REMARK                            x       y       z     vdW  Elec       q    Type
REMARK                         _______ _______ _______ _____ _____    ______ ____
ROOT
ATOM      1  C   UNL     1      44.031   4.805  11.613  0.00  0.00    +0.000 C 
ATOM      2  C   UNL     1      42.670   5.107  12.226  0.00  0.00    +0.000 C 
ATOM      3  C   UNL     1      43.104   5.838  10.998  0.00  0.00    +0.000 C 
ENDROOT
BRANCH   1   8
ATOM      4  C   UNL     1      46.450   2.960   7.516  0.00  0.00    +0.000 A 
ATOM      5  C   UNL     1      46.064   1.942   8.354  0.00  0.00    +0.000 A 
ATOM      6  N   UNL     1      45.320   2.127   9.465  0.00  0.00    +0.000 NA
ATOM      7  C   UNL     1      44.971   3.387   9.768  0.00  0.00    +0.000 A 
ATOM      8  N   UNL     1      44.207   3.528  10.917  0.00  0.00    +0.000 N 
ATOM      9  N   UNL     1      45.338   4.454   9.032  0.00  0.00    +0.000 NA
ATOM     10  C   UNL     1      46.069   4.218   7.918  0.00  0.00    +0.000 A 
ATOM     11  H   UNL     1      44.086   2.646  11.390  0.00  0.00    +0.000 HD
BRANCH   4  13
ATOM     12  N   UNL     1      48.555   2.421   6.440  0.00  0.00    +0.000 N 
ATOM     13  C   UNL     1      47.237   2.756   6.294  0.00  0.00    +0.000 C 
ATOM     14  O   UNL     1      46.721   2.848   5.188  0.00  0.00    +0.000 OA
ATOM     15  H   UNL     1      49.053   2.184   5.591  0.00  0.00    +0.000 HD
ATOM     16  H   UNL     1      48.951   2.091   7.310  0.00  0.00    +0.000 HD
ENDBRANCH   4  13
ENDBRANCH   1   8
BRANCH   1  17
ATOM     17  C   UNL     1      45.298   5.298  12.317  0.00  0.00    +0.000 A 
ATOM     18  C   UNL     1      45.666   4.718  13.532  0.00  0.00    +0.000 A 
ATOM     19  C   UNL     1      46.912   4.966  14.115  0.00  0.00    +0.000 A 
ATOM     20  C   UNL     1      47.738   5.891  13.474  0.00  0.00    +0.000 A 
ATOM     21  C   UNL     1      47.297   6.477  12.298  0.00  0.00    +0.000 A 
ATOM     22  N   UNL     1      46.111   6.200  11.709  0.00  0.00    +0.000 NA
BRANCH  19  23
ATOM     23  C   UNL     1      47.330   4.230  15.317  0.00  0.00    +0.000 A 
ATOM     24  C   UNL     1      47.204   4.760  16.605  0.00  0.00    +0.000 A 
ATOM     25  N   UNL     1      47.610   4.119  17.729  0.00  0.00    +0.000 NA
ATOM     26  C   UNL     1      48.148   2.902  17.522  0.00  0.00    +0.000 A 
ATOM     27  C   UNL     1      48.264   2.350  16.256  0.00  0.00    +0.000 A 
ATOM     28  N   UNL     1      47.857   2.992  15.134  0.00  0.00    +0.000 NA
ENDBRANCH  19  23
ENDBRANCH   1  17
TORSDOF 4
ENDMDL
MODEL 2
REMARK VINA RESULT:    -8.596      1.889      3.882
REMARK INTER + INTRA:         -10.936
REMARK INTER:                 -10.460
REMARK INTRA:                  -0.476
REMARK UNBOUND:                -0.330
REMARK  Name = 
REMARK  4 active torsions:
REMARK  status: ('A' for Active; 'I' for Inactive)
REMARK    1  A    between atoms: C_2  and  C_4
REMARK    2  A    between atoms: N_8  and  C_9
REMARK    3  A    between atoms: C_9  and  C_10
REMARK    4  A    between atoms: C_12  and  C_13
REMARK                            x       y       z     vdW  Elec       q    Type
REMARK                         _______ _______ _______ _____ _____    ______ ____
ROOT
ATOM      1  C   UNL     1      43.966   4.696  11.596  0.00  0.00    +0.000 C 
ATOM      2  C   UNL     1      42.645   5.107  12.231  0.00  0.00    +0.000 C 
ATOM      3  C   UNL     1      43.139   5.833  11.023  0.00  0.00    +0.000 C 
ENDROOT
BRANCH   1   8
ATOM      4  C   UNL     1      46.384   2.674   7.584  0.00  0.00    +0.000 A 
ATOM      5  C   UNL     1      45.808   1.691   8.351  0.00  0.00    +0.000 A 
ATOM      6  N   UNL     1      45.022   1.940   9.421  0.00  0.00    +0.000 NA
ATOM      7  C   UNL     1      44.828   3.225   9.755  0.00  0.00    +0.000 A 
ATOM      8  N   UNL     1      44.014   3.431  10.859  0.00  0.00    +0.000 N 
ATOM      9  N   UNL     1      45.385   4.255   9.089  0.00  0.00    +0.000 NA
ATOM     10  C   UNL     1      46.150   3.957   8.014  0.00  0.00    +0.000 A 
ATOM     11  H   UNL     1      43.743   2.558  11.286  0.00  0.00    +0.000 HD
BRANCH   4  13
ATOM     12  N   UNL     1      47.161   3.301   5.374  0.00  0.00    +0.000 N 
ATOM     13  C   UNL     1      47.216   2.404   6.405  0.00  0.00    +0.000 C 
ATOM     14  O   UNL     1      47.957   1.431   6.365  0.00  0.00    +0.000 OA
ATOM     15  H   UNL     1      47.817   3.153   4.616  0.00  0.00    +0.000 HD
ATOM     16  H   UNL     1      46.770   4.228   5.465  0.00  0.00    +0.000 HD
ENDBRANCH   4  13
ENDBRANCH   1   8
BRANCH   1  17
ATOM     17  C   UNL     1      45.279   5.042  12.304  0.00  0.00    +0.000 A 
ATOM     18  C   UNL     1      45.992   6.169  11.893  0.00  0.00    +0.000 A 
ATOM     19  C   UNL     1      47.073   6.661  12.630  0.00  0.00    +0.000 A 
ATOM     20  C   UNL     1      47.467   5.922  13.747  0.00  0.00    +0.000 A 
ATOM     21  C   UNL     1      46.754   4.779  14.076  0.00  0.00    +0.000 A 
ATOM     22  N   UNL     1      45.678   4.332  13.390  0.00  0.00    +0.000 NA
BRANCH  19  23
ATOM     23  C   UNL     1      47.713   7.931  12.254  0.00  0.00    +0.000 A 
ATOM     24  C   UNL     1      49.011   7.995  11.738  0.00  0.00    +0.000 A 
ATOM     25  N   UNL     1      49.639   9.152  11.414  0.00  0.00    +0.000 NA
ATOM     26  C   UNL     1      48.909  10.266  11.617  0.00  0.00    +0.000 A 
ATOM     27  C   UNL     1      47.615  10.223  12.108  0.00  0.00    +0.000 A 
ATOM     28  N   UNL     1      46.989   9.065  12.431  0.00  0.00    +0.000 NA
ENDBRANCH  19  23
ENDBRANCH   1  17
TORSDOF 4
ENDMDL
MODEL 3
REMARK VINA RESULT:    -7.027      3.143      7.587
REMARK INTER + INTRA:          -9.000
REMARK INTER:                  -9.161
REMARK INTRA:                   0.161
REMARK UNBOUND:                -0.330
REMARK  Name = 
REMARK  4 active torsions:
REMARK  status: ('A' for Active; 'I' for Inactive)
REMARK    1  A    between atoms: C_2  and  C_4
REMARK    2  A    between atoms: N_8  and  C_9
REMARK    3  A    between atoms: C_9  and  C_10
REMARK    4  A    between atoms: C_12  and  C_13
REMARK                            x       y       z     vdW  Elec       q    Type
REMARK                         _______ _______ _______ _____ _____    ______ ____
ROOT
ATOM      1  C   UNL     1      48.657   7.809  12.727  0.00  0.00    +0.000 C 
ATOM      2  C   UNL     1      49.787   7.171  11.932  0.00  0.00    +0.000 C 
ATOM      3  C   UNL     1      49.633   8.656  11.931  0.00  0.00    +0.000 C 
ENDROOT
BRANCH   1   8
ATOM      4  C   UNL     1      47.833   4.662  16.658  0.00  0.00    +0.000 A 
ATOM      5  C   UNL     1      48.610   5.727  17.042  0.00  0.00    +0.000 A 
ATOM      6  N   UNL     1      48.906   6.768  16.234  0.00  0.00    +0.000 NA
ATOM      7  C   UNL     1      48.430   6.728  14.980  0.00  0.00    +0.000 A 
ATOM      8  N   UNL     1      48.759   7.818  14.188  0.00  0.00    +0.000 N 
ATOM      9  N   UNL     1      47.695   5.706  14.500  0.00  0.00    +0.000 NA
ATOM     10  C   UNL     1      47.409   4.694  15.352  0.00  0.00    +0.000 A 
ATOM     11  H   UNL     1      49.375   8.454  14.672  0.00  0.00    +0.000 HD
BRANCH   4  13
ATOM     12  N   UNL     1      48.332   3.283  18.590  0.00  0.00    +0.000 N 
ATOM     13  C   UNL     1      47.489   3.544  17.545  0.00  0.00    +0.000 C 
ATOM     14  O   UNL     1      46.466   2.893  17.373  0.00  0.00    +0.000 OA
ATOM     15  H   UNL     1      48.026   2.577  19.247  0.00  0.00    +0.000 HD
ATOM     16  H   UNL     1      49.033   3.936  18.913  0.00  0.00    +0.000 HD
ENDBRANCH   4  13
ENDBRANCH   1   8
BRANCH   1  17
ATOM     17  C   UNL     1      47.219   7.689  12.215  0.00  0.00    +0.000 A 
ATOM     18  C   UNL     1      46.892   6.640  11.355  0.00  0.00    +0.000 A 
ATOM     19  C   UNL     1      45.565   6.349  11.026  0.00  0.00    +0.000 A 
ATOM     20  C   UNL     1      44.585   7.209  11.523  0.00  0.00    +0.000 A 
ATOM     21  C   UNL     1      44.974   8.268  12.329  0.00  0.00    +0.000 A 
ATOM     22  N   UNL     1      46.253   8.520  12.687  0.00  0.00    +0.000 NA
BRANCH  19  23
ATOM     23  C   UNL     1      45.241   5.151  10.236  0.00  0.00    +0.000 A 
ATOM     24  C   UNL     1      44.489   4.091  10.753  0.00  0.00    +0.000 A 
ATOM     25  N   UNL     1      44.203   2.960  10.061  0.00  0.00    +0.000 NA
ATOM     26  C   UNL     1      44.692   2.927   8.806  0.00  0.00    +0.000 A 
ATOM     27  C   UNL     1      45.422   3.975   8.269  0.00  0.00    +0.000 A 
ATOM     28  N   UNL     1      45.707   5.105   8.963  0.00  0.00    +0.000 NA
ENDBRANCH  19  23
ENDBRANCH   1  17
TORSDOF 4
ENDMDL
MODEL 4
REMARK VINA RESULT:    -6.935      3.943      8.280
REMARK INTER + INTRA:          -8.886
REMARK INTER:                  -8.853
REMARK INTRA:                  -0.034
REMARK UNBOUND:                -0.330
REMARK  Name = 
REMARK  4 active torsions:
REMARK  status: ('A' for Active; 'I' for Inactive)
REMARK    1  A    between atoms: C_2  and  C_4
REMARK    2  A    between atoms: N_8  and  C_9
REMARK    3  A    between atoms: C_9  and  C_10
REMARK    4  A    between atoms: C_12  and  C_13
REMARK                            x       y       z     vdW  Elec       q    Type
REMARK                         _______ _______ _______ _____ _____    ______ ____
ROOT
ATOM      1  C   UNL     1      48.056   4.623  16.987  0.00  0.00    +0.000 C 
ATOM      2  C   UNL     1      46.866   4.787  17.922  0.00  0.00    +0.000 C 
ATOM      3  C   UNL     1      47.202   3.434  17.386  0.00  0.00    +0.000 C 
ENDROOT
BRANCH   1   8
ATOM      4  C   UNL     1      52.222   1.741  17.600  0.00  0.00    +0.000 A 
ATOM      5  C   UNL     1      52.519   3.070  17.780  0.00  0.00    +0.000 A 
ATOM      6  N   UNL     1      51.591   4.052  17.775  0.00  0.00    +0.000 NA
ATOM      7  C   UNL     1      50.318   3.694  17.550  0.00  0.00    +0.000 A 
ATOM      8  N   UNL     1      49.402   4.735  17.555  0.00  0.00    +0.000 N 
ATOM      9  N   UNL     1      49.936   2.422  17.321  0.00  0.00    +0.000 NA
ATOM     10  C   UNL     1      50.898   1.471  17.353  0.00  0.00    +0.000 A 
ATOM     11  H   UNL     1      49.858   5.628  17.664  0.00  0.00    +0.000 HD
BRANCH   4  13
ATOM     12  N   UNL     1      52.960  -0.422  18.410  0.00  0.00    +0.000 N 
ATOM     13  C   UNL     1      53.226   0.671  17.632  0.00  0.00    +0.000 C 
ATOM     14  O   UNL     1      54.245   0.741  16.959  0.00  0.00    +0.000 OA
ATOM     15  H   UNL     1      53.613  -1.192  18.339  0.00  0.00    +0.000 HD
ATOM     16  H   UNL     1      52.040  -0.634  18.772  0.00  0.00    +0.000 HD
ENDBRANCH   4  13
ENDBRANCH   1   8
BRANCH   1  17
ATOM     17  C   UNL     1      47.955   5.135  15.547  0.00  0.00    +0.000 A 
ATOM     18  C   UNL     1      46.983   4.595  14.704  0.00  0.00    +0.000 A 
ATOM     19  C   UNL     1      46.696   5.162  13.459  0.00  0.00    +0.000 A 
ATOM     20  C   UNL     1      47.487   6.239  13.055  0.00  0.00    +0.000 A 
ATOM     21  C   UNL     1      48.476   6.698  13.912  0.00  0.00    +0.000 A 
ATOM     22  N   UNL     1      48.720   6.180  15.137  0.00  0.00    +0.000 NA
BRANCH  19  23
ATOM     23  C   UNL     1      45.569   4.662  12.656  0.00  0.00    +0.000 A 
ATOM     24  C   UNL     1      45.310   5.117  11.359  0.00  0.00    +0.000 A 
ATOM     25  N   UNL     1      44.261   4.700  10.608  0.00  0.00    +0.000 NA
ATOM     26  C   UNL     1      43.469   3.787  11.203  0.00  0.00    +0.000 A 
ATOM     27  C   UNL     1      43.719   3.309  12.479  0.00  0.00    +0.000 A 
ATOM     28  N   UNL     1      44.769   3.727  13.228  0.00  0.00    +0.000 NA
ENDBRANCH  19  23
ENDBRANCH   1  17
TORSDOF 4
ENDMDL
MODEL 5
REMARK VINA RESULT:    -6.550      2.726      4.492
REMARK INTER + INTRA:          -8.412
REMARK INTER:                  -8.624
REMARK INTRA:                   0.212
REMARK UNBOUND:                -0.330
REMARK  Name = 
REMARK  4 active torsions:
REMARK  status: ('A' for Active; 'I' for Inactive)
REMARK    1  A    between atoms: C_2  and  C_4
REMARK    2  A    between atoms: N_8  and  C_9
REMARK    3  A    between atoms: C_9  and  C_10
REMARK    4  A    between atoms: C_12  and  C_13
REMARK                            x       y       z     vdW  Elec       q    Type
REMARK                         _______ _______ _______ _____ _____    ______ ____
ROOT
ATOM      1  C   UNL     1      47.810   8.491  13.224  0.00  0.00    +0.000 C 
ATOM      2  C   UNL     1      48.127   9.866  12.653  0.00  0.00    +0.000 C 
ATOM      3  C   UNL     1      48.440   8.646  11.852  0.00  0.00    +0.000 C 
ENDROOT
BRANCH   1   8
ATOM      4  C   UNL     1      44.646   5.161  11.002  0.00  0.00    +0.000 A 
ATOM      5  C   UNL     1      44.112   5.630  12.177  0.00  0.00    +0.000 A 
ATOM      6  N   UNL     1      44.685   6.596  12.927  0.00  0.00    +0.000 NA
ATOM      7  C   UNL     1      45.856   7.092  12.500  0.00  0.00    +0.000 A 
ATOM      8  N   UNL     1      46.406   8.082  13.302  0.00  0.00    +0.000 N 
ATOM      9  N   UNL     1      46.478   6.665  11.383  0.00  0.00    +0.000 NA
ATOM     10  C   UNL     1      45.858   5.709  10.655  0.00  0.00    +0.000 A 
ATOM     11  H   UNL     1      45.856   8.230  14.134  0.00  0.00    +0.000 HD
BRANCH   4  13
ATOM     12  N   UNL     1      44.038   4.304   8.816  0.00  0.00    +0.000 N 
ATOM     13  C   UNL     1      44.011   4.129  10.173  0.00  0.00    +0.000 C 
ATOM     14  O   UNL     1      43.507   3.135  10.677  0.00  0.00    +0.000 OA
ATOM     15  H   UNL     1      43.687   3.535   8.259  0.00  0.00    +0.000 HD
ATOM     16  H   UNL     1      44.650   4.962   8.353  0.00  0.00    +0.000 HD
ENDBRANCH   4  13
ENDBRANCH   1   8
BRANCH   1  17
ATOM     17  C   UNL     1      48.674   7.931  14.357  0.00  0.00    +0.000 A 
ATOM     18  C   UNL     1      48.220   6.819  15.068  0.00  0.00    +0.000 A 
ATOM     19  C   UNL     1      49.048   6.133  15.961  0.00  0.00    +0.000 A 
ATOM     20  C   UNL     1      50.321   6.662  16.180  0.00  0.00    +0.000 A 
ATOM     21  C   UNL     1      50.698   7.801  15.485  0.00  0.00    +0.000 A 
ATOM     22  N   UNL     1      49.914   8.436  14.585  0.00  0.00    +0.000 NA
BRANCH  19  23
ATOM     23  C   UNL     1      48.593   4.882  16.585  0.00  0.00    +0.000 A 
ATOM     24  C   UNL     1      47.242   4.523  16.653  0.00  0.00    +0.000 A 
ATOM     25  N   UNL     1      46.790   3.393  17.250  0.00  0.00    +0.000 NA
ATOM     26  C   UNL     1      47.750   2.611  17.780  0.00  0.00    +0.000 A 
ATOM     27  C   UNL     1      49.094   2.938  17.706  0.00  0.00    +0.000 A 
ATOM     28  N   UNL     1      49.545   4.068  17.108  0.00  0.00    +0.000 NA
ENDBRANCH  19  23
ENDBRANCH   1  17
TORSDOF 4
ENDMDL
MODEL 6
REMARK VINA RESULT:    -6.371      4.253      8.075
REMARK INTER + INTRA:          -8.191
REMARK INTER:                  -7.614
REMARK INTRA:                  -0.576
REMARK UNBOUND:                -0.330
REMARK  Name = 
REMARK  4 active torsions:
REMARK  status: ('A' for Active; 'I' for Inactive)
REMARK    1  A    between atoms: C_2  and  C_4
REMARK    2  A    between atoms: N_8  and  C_9
REMARK    3  A    between atoms: C_9  and  C_10
REMARK    4  A    between atoms: C_12  and  C_13
REMARK                            x       y       z     vdW  Elec       q    Type
REMARK                         _______ _______ _______ _____ _____    ______ ____
ROOT
ATOM      1  C   UNL     1      49.179   7.798  12.353  0.00  0.00    +0.000 C 
ATOM      2  C   UNL     1      50.144   7.862  11.177  0.00  0.00    +0.000 C 
ATOM      3  C   UNL     1      50.008   9.041  12.083  0.00  0.00    +0.000 C 
ENDROOT
BRANCH   1   8
ATOM      4  C   UNL     1      48.584   7.741  17.420  0.00  0.00    +0.000 A 
ATOM      5  C   UNL     1      48.957   6.502  16.960  0.00  0.00    +0.000 A 
ATOM      6  N   UNL     1      49.280   6.247  15.673  0.00  0.00    +0.000 NA
ATOM      7  C   UNL     1      49.197   7.267  14.804  0.00  0.00    +0.000 A 
ATOM      8  N   UNL     1      49.538   6.957  13.496  0.00  0.00    +0.000 N 
ATOM      9  N   UNL     1      48.799   8.506  15.154  0.00  0.00    +0.000 NA
ATOM     10  C   UNL     1      48.503   8.718  16.457  0.00  0.00    +0.000 A 
ATOM     11  H   UNL     1      49.737   5.974  13.389  0.00  0.00    +0.000 HD
BRANCH   4  13
ATOM     12  N   UNL     1      49.057   7.464  19.782  0.00  0.00    +0.000 N 
ATOM     13  C   UNL     1      48.259   8.025  18.823  0.00  0.00    +0.000 C 
ATOM     14  O   UNL     1      47.330   8.765  19.119  0.00  0.00    +0.000 OA
ATOM     15  H   UNL     1      48.880   7.752  20.736  0.00  0.00    +0.000 HD
ATOM     16  H   UNL     1      49.964   7.065  19.585  0.00  0.00    +0.000 HD
ENDBRANCH   4  13
ENDBRANCH   1   8
BRANCH   1  17
ATOM     17  C   UNL     1      47.672   7.865  12.091  0.00  0.00    +0.000 A 
ATOM     18  C   UNL     1      46.964   6.676  11.904  0.00  0.00    +0.000 A 
ATOM     19  C   UNL     1      45.567   6.651  11.877  0.00  0.00    +0.000 A 
ATOM     20  C   UNL     1      44.910   7.880  11.954  0.00  0.00    +0.000 A 
ATOM     21  C   UNL     1      45.667   9.034  12.084  0.00  0.00    +0.000 A 
ATOM     22  N   UNL     1      47.017   9.053  12.159  0.00  0.00    +0.000 NA
BRANCH  19  23
ATOM     23  C   UNL     1      44.847   5.370  11.825  0.00  0.00    +0.000 A 
ATOM     24  C   UNL     1      44.334   4.750  12.969  0.00  0.00    +0.000 A 
ATOM     25  N   UNL     1      43.695   3.553  12.958  0.00  0.00    +0.000 NA
ATOM     26  C   UNL     1      43.575   2.989  11.740  0.00  0.00    +0.000 A 
ATOM     27  C   UNL     1      44.059   3.597  10.593  0.00  0.00    +0.000 A 
ATOM     28  N   UNL     1      44.697   4.793  10.606  0.00  0.00    +0.000 NA
ENDBRANCH  19  23
ENDBRANCH   1  17
TORSDOF 4
ENDMDL
MODEL 7
REMARK VINA RESULT:    -5.994      4.320      8.433
REMARK INTER + INTRA:          -7.725
REMARK INTER:                  -7.201
REMARK INTRA:                  -0.524
REMARK UNBOUND:                -0.330
REMARK  Name = 
REMARK  4 active torsions:
REMARK  status: ('A' for Active; 'I' for Inactive)
REMARK    1  A    between atoms: C_2  and  C_4
REMARK    2  A    between atoms: N_8  and  C_9
REMARK    3  A    between atoms: C_9  and  C_10
REMARK    4  A    between atoms: C_12  and  C_13
REMARK                            x       y       z     vdW  Elec       q    Type
REMARK                         _______ _______ _______ _____ _____    ______ ____
ROOT
ATOM      1  C   UNL     1      49.499   7.320  16.717  0.00  0.00    +0.000 C 
ATOM      2  C   UNL     1      48.820   8.509  17.382  0.00  0.00    +0.000 C 
ATOM      3  C   UNL     1      48.259   7.139  17.575  0.00  0.00    +0.000 C 
ENDROOT
BRANCH   1   8
ATOM      4  C   UNL     1      51.904   2.949  17.788  0.00  0.00    +0.000 A 
ATOM      5  C   UNL     1      52.793   3.995  17.741  0.00  0.00    +0.000 A 
ATOM      6  N   UNL     1      52.425   5.284  17.575  0.00  0.00    +0.000 NA
ATOM      7  C   UNL     1      51.116   5.534  17.419  0.00  0.00    +0.000 A 
ATOM      8  N   UNL     1      50.786   6.871  17.252  0.00  0.00    +0.000 N 
ATOM      9  N   UNL     1      50.174   4.570  17.408  0.00  0.00    +0.000 NA
ATOM     10  C   UNL     1      50.588   3.296  17.596  0.00  0.00    +0.000 A 
ATOM     11  H   UNL     1      51.610   7.452  17.208  0.00  0.00    +0.000 HD
BRANCH   4  13
ATOM     12  N   UNL     1      51.373   0.584  17.724  0.00  0.00    +0.000 N 
ATOM     13  C   UNL     1      52.301   1.551  17.995  0.00  0.00    +0.000 C 
ATOM     14  O   UNL     1      53.432   1.264  18.363  0.00  0.00    +0.000 OA
ATOM     15  H   UNL     1      51.696  -0.374  17.774  0.00  0.00    +0.000 HD
ATOM     16  H   UNL     1      50.533   0.755  17.188  0.00  0.00    +0.000 HD
ENDBRANCH   4  13
ENDBRANCH   1   8
BRANCH   1  17
ATOM     17  C   UNL     1      49.365   7.129  15.204  0.00  0.00    +0.000 A 
ATOM     18  C   UNL     1      48.293   6.385  14.708  0.00  0.00    +0.000 A 
ATOM     19  C   UNL     1      47.992   6.354  13.343  0.00  0.00    +0.000 A 
ATOM     20  C   UNL     1      48.865   7.026  12.486  0.00  0.00    +0.000 A 
ATOM     21  C   UNL     1      49.945   7.703  13.031  0.00  0.00    +0.000 A 
ATOM     22  N   UNL     1      50.208   7.774  14.356  0.00  0.00    +0.000 NA
BRANCH  19  23
ATOM     23  C   UNL     1      46.775   5.682  12.866  0.00  0.00    +0.000 A 
ATOM     24  C   UNL     1      46.101   4.718  13.624  0.00  0.00    +0.000 A 
ATOM     25  N   UNL     1      44.996   4.059  13.198  0.00  0.00    +0.000 NA
ATOM     26  C   UNL     1      44.570   4.407  11.968  0.00  0.00    +0.000 A 
ATOM     27  C   UNL     1      45.211   5.373  11.209  0.00  0.00    +0.000 A 
ATOM     28  N   UNL     1      46.316   6.032  11.638  0.00  0.00    +0.000 NA
ENDBRANCH  19  23
ENDBRANCH   1  17
TORSDOF 4
ENDMDL
MODEL 8
REMARK VINA RESULT:    -5.952      3.175      7.092
REMARK INTER + INTRA:          -7.674
REMARK INTER:                  -7.351
REMARK INTRA:                  -0.322
REMARK UNBOUND:                -0.330
REMARK  Name = 
REMARK  4 active torsions:
REMARK  status: ('A' for Active; 'I' for Inactive)
REMARK    1  A    between atoms: C_2  and  C_4
REMARK    2  A    between atoms: N_8  and  C_9
REMARK    3  A    between atoms: C_9  and  C_10
REMARK    4  A    between atoms: C_12  and  C_13
REMARK                            x       y       z     vdW  Elec       q    Type
REMARK                         _______ _______ _______ _____ _____    ______ ____
ROOT
ATOM      1  C   UNL     1      46.212   5.626  13.445  0.00  0.00    +0.000 C 
ATOM      2  C   UNL     1      46.333   4.711  14.655  0.00  0.00    +0.000 C 
ATOM      3  C   UNL     1      47.442   4.763  13.658  0.00  0.00    +0.000 C 
ENDROOT
BRANCH   1   8
ATOM      4  C   UNL     1      48.937   9.560  11.676  0.00  0.00    +0.000 A 
ATOM      5  C   UNL     1      47.826  10.002  12.351  0.00  0.00    +0.000 A 
ATOM      6  N   UNL     1      46.976   9.186  13.010  0.00  0.00    +0.000 NA
ATOM      7  C   UNL     1      47.230   7.869  12.966  0.00  0.00    +0.000 A 
ATOM      8  N   UNL     1      46.331   7.071  13.657  0.00  0.00    +0.000 N 
ATOM      9  N   UNL     1      48.271   7.338  12.294  0.00  0.00    +0.000 NA
ATOM     10  C   UNL     1      49.105   8.196  11.664  0.00  0.00    +0.000 A 
ATOM     11  H   UNL     1      45.572   7.614  14.039  0.00  0.00    +0.000 HD
BRANCH   4  13
ATOM     12  N   UNL     1      49.353  11.516  10.303  0.00  0.00    +0.000 N 
ATOM     13  C   UNL     1      49.877  10.450  10.982  0.00  0.00    +0.000 C 
ATOM     14  O   UNL     1      51.084  10.262  11.040  0.00  0.00    +0.000 OA
ATOM     15  H   UNL     1      50.020  12.173   9.919  0.00  0.00    +0.000 HD
ATOM     16  H   UNL     1      48.408  11.848  10.437  0.00  0.00    +0.000 HD
ENDBRANCH   4  13
ENDBRANCH   1   8
BRANCH   1  17
ATOM     17  C   UNL     1      45.252   5.251  12.313  0.00  0.00    +0.000 A 
ATOM     18  C   UNL     1      45.776   4.744  11.122  0.00  0.00    +0.000 A 
ATOM     19  C   UNL     1      44.954   4.185  10.140  0.00  0.00    +0.000 A 
ATOM     20  C   UNL     1      43.577   4.237  10.361  0.00  0.00    +0.000 A 
ATOM     21  C   UNL     1      43.111   4.802  11.538  0.00  0.00    +0.000 A 
ATOM     22  N   UNL     1      43.909   5.299  12.510  0.00  0.00    +0.000 NA
BRANCH  19  23
ATOM     23  C   UNL     1      45.543   3.528   8.964  0.00  0.00    +0.000 A 
ATOM     24  C   UNL     1      45.934   4.237   7.824  0.00  0.00    +0.000 A 
ATOM     25  N   UNL     1      46.449   3.656   6.712  0.00  0.00    +0.000 NA
ATOM     26  C   UNL     1      46.573   2.317   6.781  0.00  0.00    +0.000 A 
ATOM     27  C   UNL     1      46.210   1.598   7.908  0.00  0.00    +0.000 A 
ATOM     28  N   UNL     1      45.695   2.180   9.018  0.00  0.00    +0.000 NA
ENDBRANCH  19  23
ENDBRANCH   1  17
TORSDOF 4
ENDMDL
