MODEL 1
REMARK VINA RESULT:    -7.976      0.000      0.000
REMARK INTER + INTRA:         -11.177
REMARK INTER:                 -10.540
REMARK INTRA:                  -0.637
REMARK UNBOUND:                -0.637
REMARK  Name = 
REMARK  6 active torsions:
REMARK  status: ('A' for Active; 'I' for Inactive)
REMARK    1  A    between atoms: N_1  and  C_2
REMARK    2  A    between atoms: C_2  and  C_3
REMARK    3  A    between atoms: C_7  and  C_8
REMARK    4  A    between atoms: C_8  and  C_9
REMARK    5  A    between atoms: C_9  and  N_10
REMARK    6  A    between atoms: C_14  and  C_15
REMARK                            x       y       z     vdW  Elec       q    Type
REMARK                         _______ _______ _______ _____ _____    ______ ____
ROOT
ATOM      1  N   UNL     1      43.776   3.793  10.386  0.00  0.00    +0.000 N 
ATOM      2  C   UNL     1      44.717   3.436   9.398  0.00  0.00    +0.000 A 
ATOM      3  C   UNL     1      45.123   2.107   9.296  0.00  0.00    +0.000 A 
ATOM      4  C   UNL     1      46.054   1.745   8.315  0.00  0.00    +0.000 A 
ATOM      5  C   UNL     1      46.566   2.717   7.452  0.00  0.00    +0.000 A 
ATOM      6  C   UNL     1      46.122   4.012   7.638  0.00  0.00    +0.000 A 
ATOM      7  N   UNL     1      45.225   4.383   8.585  0.00  0.00    +0.000 NA
ATOM      8  H   UNL     1      42.953   3.208  10.269  0.00  0.00    +0.000 HD
ENDROOT
BRANCH   5   9
ATOM      9  C   UNL     1      47.537   2.332   6.401  0.00  0.00    +0.000 C 
ATOM     10  N   UNL     1      47.529   3.006   5.209  0.00  0.00    +0.000 N 
ATOM     11  O   UNL     1      48.335   1.419   6.581  0.00  0.00    +0.000 OA
ATOM     12  H   UNL     1      46.908   3.758   4.951  0.00  0.00    +0.000 HD
ATOM     13  H   UNL     1      48.200   2.700   4.515  0.00  0.00    +0.000 HD
ENDBRANCH   5   9
BRANCH   1  14
ATOM     14  C   UNL     1      43.451   5.225  10.354  0.00  0.00    +0.000 C 
BRANCH  14  15
ATOM     15  C   UNL     1      43.510   5.848  11.753  0.00  0.00    +0.000 C 
BRANCH  15  20
ATOM     16  C   UNL     1      46.714   5.291  13.768  0.00  0.00    +0.000 A 
ATOM     17  C   UNL     1      47.644   5.987  12.983  0.00  0.00    +0.000 A 
ATOM     18  C   UNL     1      47.235   6.672  11.838  0.00  0.00    +0.000 A 
ATOM     19  C   UNL     1      45.894   6.655  11.453  0.00  0.00    +0.000 A 
ATOM     20  C   UNL     1      44.945   5.964  12.218  0.00  0.00    +0.000 A 
ATOM     21  C   UNL     1      45.365   5.297  13.380  0.00  0.00    +0.000 A 
BRANCH  16  22
ATOM     22  C   UNL     1      47.165   4.487  14.962  0.00  0.00    +0.000 C 
BRANCH  22  23
ATOM     23  N   UNL     1      47.521   3.119  14.603  0.00  0.00    +0.000 NA
ATOM     24  H   UNL     1      48.511   2.977  14.791  0.00  0.00    +0.000 HD
ATOM     25  H   UNL     1      47.399   3.006  13.596  0.00  0.00    +0.000 HD
ENDBRANCH  22  23
ENDBRANCH  16  22
ENDBRANCH  15  20
ENDBRANCH  14  15
ENDBRANCH   1  14
TORSDOF 6
ENDMDL
MODEL 2
REMARK VINA RESULT:    -7.900      1.898      2.482
REMARK INTER + INTRA:         -11.077
REMARK INTER:                 -10.525
REMARK INTRA:                  -0.552
REMARK UNBOUND:                -0.637
REMARK  Name = 
REMARK  6 active torsions:
REMARK  status: ('A' for Active; 'I' for Inactive)
REMARK    1  A    between atoms: N_1  and  C_2
REMARK    2  A    between atoms: C_2  and  C_3
REMARK    3  A    between atoms: C_7  and  C_8
REMARK    4  A    between atoms: C_8  and  C_9
REMARK    5  A    between atoms: C_9  and  N_10
REMARK    6  A    between atoms: C_14  and  C_15
REMARK                            x       y       z     vdW  Elec       q    Type
REMARK                         _______ _______ _______ _____ _____    ______ ____
ROOT
ATOM      1  N   UNL     1      43.815   4.958   9.997  0.00  0.00    +0.000 N 
ATOM      2  C   UNL     1      44.596   3.978   9.351  0.00  0.00    +0.000 A 
ATOM      3  C   UNL     1      45.411   4.353   8.285  0.00  0.00    +0.000 A 
ATOM      4  C   UNL     1      46.193   3.386   7.642  0.00  0.00    +0.000 A 
ATOM      5  C   UNL     1      46.147   2.059   8.073  0.00  0.00    +0.000 A 
ATOM      6  C   UNL     1      45.297   1.773   9.124  0.00  0.00    +0.000 A 
ATOM      7  N   UNL     1      44.529   2.694   9.757  0.00  0.00    +0.000 NA
ATOM      8  H   UNL     1      44.431   5.706  10.304  0.00  0.00    +0.000 HD
ENDROOT
BRANCH   5   9
ATOM      9  C   UNL     1      46.989   1.037   7.406  0.00  0.00    +0.000 C 
ATOM     10  N   UNL     1      46.741  -0.288   7.646  0.00  0.00    +0.000 N 
ATOM     11  O   UNL     1      47.901   1.363   6.655  0.00  0.00    +0.000 OA
ATOM     12  H   UNL     1      46.031  -0.664   8.255  0.00  0.00    +0.000 HD
ATOM     13  H   UNL     1      47.350  -0.950   7.180  0.00  0.00    +0.000 HD
ENDBRANCH   5   9
BRANCH   1  14
ATOM     14  C   UNL     1      43.021   4.400  11.100  0.00  0.00    +0.000 C 
BRANCH  14  15
ATOM     15  C   UNL     1      43.139   5.254  12.368  0.00  0.00    +0.000 C 
BRANCH  15  20
ATOM     16  C   UNL     1      46.457   7.002  13.122  0.00  0.00    +0.000 A 
ATOM     17  C   UNL     1      47.222   5.924  13.591  0.00  0.00    +0.000 A 
ATOM     18  C   UNL     1      46.690   4.635  13.619  0.00  0.00    +0.000 A 
ATOM     19  C   UNL     1      45.381   4.408  13.196  0.00  0.00    +0.000 A 
ATOM     20  C   UNL     1      44.594   5.468  12.726  0.00  0.00    +0.000 A 
ATOM     21  C   UNL     1      45.147   6.757  12.682  0.00  0.00    +0.000 A 
BRANCH  16  22
ATOM     22  C   UNL     1      47.003   8.407  13.163  0.00  0.00    +0.000 C 
BRANCH  22  23
ATOM     23  N   UNL     1      47.132   8.910  14.526  0.00  0.00    +0.000 NA
ATOM     24  H   UNL     1      46.794   9.869  14.555  0.00  0.00    +0.000 HD
ATOM     25  H   UNL     1      48.122   8.944  14.767  0.00  0.00    +0.000 HD
ENDBRANCH  22  23
ENDBRANCH  16  22
ENDBRANCH  15  20
ENDBRANCH  14  15
ENDBRANCH   1  14
TORSDOF 6
ENDMDL
MODEL 3
REMARK VINA RESULT:    -7.582      2.823      6.372
REMARK INTER + INTRA:         -10.657
REMARK INTER:                 -10.106
REMARK INTRA:                  -0.550
REMARK UNBOUND:                -0.637
REMARK  Name = 
REMARK  6 active torsions:
REMARK  status: ('A' for Active; 'I' for Inactive)
REMARK    1  A    between atoms: N_1  and  C_2
REMARK    2  A    between atoms: C_2  and  C_3
REMARK    3  A    between atoms: C_7  and  C_8
REMARK    4  A    between atoms: C_8  and  C_9
REMARK    5  A    between atoms: C_9  and  N_10
REMARK    6  A    between atoms: C_14  and  C_15
REMARK                            x       y       z     vdW  Elec       q    Type
REMARK                         _______ _______ _______ _____ _____    ______ ____
ROOT
ATOM      1  N   UNL     1      44.917   2.942  12.432  0.00  0.00    +0.000 N 
ATOM      2  C   UNL     1      45.540   4.183  12.685  0.00  0.00    +0.000 A 
ATOM      3  C   UNL     1      46.658   4.223  13.515  0.00  0.00    +0.000 A 
ATOM      4  C   UNL     1      47.283   5.449  13.768  0.00  0.00    +0.000 A 
ATOM      5  C   UNL     1      46.782   6.617  13.188  0.00  0.00    +0.000 A 
ATOM      6  C   UNL     1      45.658   6.486  12.394  0.00  0.00    +0.000 A 
ATOM      7  N   UNL     1      45.036   5.308  12.141  0.00  0.00    +0.000 NA
ATOM      8  H   UNL     1      45.617   2.302  12.068  0.00  0.00    +0.000 HD
ENDROOT
BRANCH   5   9
ATOM      9  C   UNL     1      47.455   7.913  13.438  0.00  0.00    +0.000 C 
ATOM     10  N   UNL     1      46.762   8.912  14.069  0.00  0.00    +0.000 N 
ATOM     11  O   UNL     1      48.612   8.102  13.082  0.00  0.00    +0.000 OA
ATOM     12  H   UNL     1      45.807   8.869  14.387  0.00  0.00    +0.000 HD
ATOM     13  H   UNL     1      47.258   9.784  14.206  0.00  0.00    +0.000 HD
ENDBRANCH   5   9
BRANCH   1  14
ATOM     14  C   UNL     1      43.761   3.073  11.534  0.00  0.00    +0.000 C 
BRANCH  14  15
ATOM     15  C   UNL     1      43.858   2.108  10.347  0.00  0.00    +0.000 C 
BRANCH  15  20
ATOM     16  C   UNL     1      46.606   2.111   7.686  0.00  0.00    +0.000 A 
ATOM     17  C   UNL     1      46.628   3.467   7.331  0.00  0.00    +0.000 A 
ATOM     18  C   UNL     1      45.799   4.384   7.978  0.00  0.00    +0.000 A 
ATOM     19  C   UNL     1      44.922   3.955   8.975  0.00  0.00    +0.000 A 
ATOM     20  C   UNL     1      44.878   2.604   9.346  0.00  0.00    +0.000 A 
ATOM     21  C   UNL     1      45.733   1.694   8.703  0.00  0.00    +0.000 A 
BRANCH  16  22
ATOM     22  C   UNL     1      47.445   1.107   6.936  0.00  0.00    +0.000 C 
BRANCH  22  23
ATOM     23  N   UNL     1      48.387   1.746   6.025  0.00  0.00    +0.000 NA
ATOM     24  H   UNL     1      47.888   2.035   5.186  0.00  0.00    +0.000 HD
ATOM     25  H   UNL     1      49.073   1.051   5.728  0.00  0.00    +0.000 HD
ENDBRANCH  22  23
ENDBRANCH  16  22
ENDBRANCH  15  20
ENDBRANCH  14  15
ENDBRANCH   1  14
TORSDOF 6
ENDMDL
MODEL 4
REMARK VINA RESULT:    -7.458      1.227      1.897
REMARK INTER + INTRA:         -10.493
REMARK INTER:                  -9.849
REMARK INTRA:                  -0.644
REMARK UNBOUND:                -0.637
REMARK  Name = 
REMARK  6 active torsions:
REMARK  status: ('A' for Active; 'I' for Inactive)
REMARK    1  A    between atoms: N_1  and  C_2
REMARK    2  A    between atoms: C_2  and  C_3
REMARK    3  A    between atoms: C_7  and  C_8
REMARK    4  A    between atoms: C_8  and  C_9
REMARK    5  A    between atoms: C_9  and  N_10
REMARK    6  A    between atoms: C_14  and  C_15
REMARK                            x       y       z     vdW  Elec       q    Type
REMARK                         _______ _______ _______ _____ _____    ______ ____
ROOT
ATOM      1  N   UNL     1      43.693   3.782  10.464  0.00  0.00    +0.000 N 
ATOM      2  C   UNL     1      44.638   3.429   9.478  0.00  0.00    +0.000 A 
ATOM      3  C   UNL     1      44.987   2.090   9.321  0.00  0.00    +0.000 A 
ATOM      4  C   UNL     1      45.921   1.732   8.342  0.00  0.00    +0.000 A 
ATOM      5  C   UNL     1      46.494   2.718   7.537  0.00  0.00    +0.000 A 
ATOM      6  C   UNL     1      46.104   4.023   7.775  0.00  0.00    +0.000 A 
ATOM      7  N   UNL     1      45.204   4.389   8.721  0.00  0.00    +0.000 NA
ATOM      8  H   UNL     1      42.847   3.241  10.304  0.00  0.00    +0.000 HD
ENDROOT
BRANCH   5   9
ATOM      9  C   UNL     1      47.468   2.339   6.486  0.00  0.00    +0.000 C 
ATOM     10  N   UNL     1      47.478   3.034   5.306  0.00  0.00    +0.000 N 
ATOM     11  O   UNL     1      48.254   1.414   6.658  0.00  0.00    +0.000 OA
ATOM     12  H   UNL     1      46.869   3.797   5.055  0.00  0.00    +0.000 HD
ATOM     13  H   UNL     1      48.151   2.731   4.613  0.00  0.00    +0.000 HD
ENDBRANCH   5   9
BRANCH   1  14
ATOM     14  C   UNL     1      43.433   5.228  10.495  0.00  0.00    +0.000 C 
BRANCH  14  15
ATOM     15  C   UNL     1      43.587   5.799  11.909  0.00  0.00    +0.000 C 
BRANCH  15  20
ATOM     16  C   UNL     1      47.330   6.495  12.288  0.00  0.00    +0.000 A 
ATOM     17  C   UNL     1      47.649   5.644  13.355  0.00  0.00    +0.000 A 
ATOM     18  C   UNL     1      46.678   4.815  13.918  0.00  0.00    +0.000 A 
ATOM     19  C   UNL     1      45.370   4.840  13.434  0.00  0.00    +0.000 A 
ATOM     20  C   UNL     1      45.024   5.684  12.370  0.00  0.00    +0.000 A 
ATOM     21  C   UNL     1      46.014   6.497  11.797  0.00  0.00    +0.000 A 
BRANCH  16  22
ATOM     22  C   UNL     1      48.358   7.446  11.729  0.00  0.00    +0.000 C 
BRANCH  22  23
ATOM     23  N   UNL     1      49.689   7.202  12.272  0.00  0.00    +0.000 NA
ATOM     24  H   UNL     1      49.615   6.528  13.032  0.00  0.00    +0.000 HD
ATOM     25  H   UNL     1      50.034   8.068  12.687  0.00  0.00    +0.000 HD
ENDBRANCH  22  23
ENDBRANCH  16  22
ENDBRANCH  15  20
ENDBRANCH  14  15
ENDBRANCH   1  14
TORSDOF 6
ENDMDL
MODEL 5
REMARK VINA RESULT:    -6.835      2.814      7.122
REMARK INTER + INTRA:          -9.670
REMARK INTER:                  -9.295
REMARK INTRA:                  -0.375
REMARK UNBOUND:                -0.637
REMARK  Name = 
REMARK  6 active torsions:
REMARK  status: ('A' for Active; 'I' for Inactive)
REMARK    1  A    between atoms: N_1  and  C_2
REMARK    2  A    between atoms: C_2  and  C_3
REMARK    3  A    between atoms: C_7  and  C_8
REMARK    4  A    between atoms: C_8  and  C_9
REMARK    5  A    between atoms: C_9  and  N_10
REMARK    6  A    between atoms: C_14  and  C_15
REMARK                            x       y       z     vdW  Elec       q    Type
REMARK                         _______ _______ _______ _____ _____    ______ ____
ROOT
ATOM      1  N   UNL     1      45.626   5.829  10.570  0.00  0.00    +0.000 N 
ATOM      2  C   UNL     1      46.297   5.907  11.809  0.00  0.00    +0.000 A 
ATOM      3  C   UNL     1      47.212   6.935  12.021  0.00  0.00    +0.000 A 
ATOM      4  C   UNL     1      47.878   7.020  13.250  0.00  0.00    +0.000 A 
ATOM      5  C   UNL     1      47.620   6.077  14.246  0.00  0.00    +0.000 A 
ATOM      6  C   UNL     1      46.712   5.081  13.942  0.00  0.00    +0.000 A 
ATOM      7  N   UNL     1      46.060   4.979  12.757  0.00  0.00    +0.000 NA
ATOM      8  H   UNL     1      45.164   6.719  10.401  0.00  0.00    +0.000 HD
ENDROOT
BRANCH   5   9
ATOM      9  C   UNL     1      48.309   6.177  15.554  0.00  0.00    +0.000 C 
ATOM     10  N   UNL     1      47.884   5.392  16.592  0.00  0.00    +0.000 N 
ATOM     11  O   UNL     1      49.243   6.954  15.718  0.00  0.00    +0.000 OA
ATOM     12  H   UNL     1      47.120   4.734  16.571  0.00  0.00    +0.000 HD
ATOM     13  H   UNL     1      48.376   5.504  17.471  0.00  0.00    +0.000 HD
ENDBRANCH   5   9
BRANCH   1  14
ATOM     14  C   UNL     1      44.693   4.696  10.512  0.00  0.00    +0.000 C 
BRANCH  14  15
ATOM     15  C   UNL     1      44.199   4.446   9.083  0.00  0.00    +0.000 C 
BRANCH  15  20
ATOM     16  C   UNL     1      46.562   2.537   6.758  0.00  0.00    +0.000 A 
ATOM     17  C   UNL     1      46.584   1.280   7.378  0.00  0.00    +0.000 A 
ATOM     18  C   UNL     1      45.806   1.033   8.510  0.00  0.00    +0.000 A 
ATOM     19  C   UNL     1      45.010   2.044   9.047  0.00  0.00    +0.000 A 
ATOM     20  C   UNL     1      44.972   3.311   8.448  0.00  0.00    +0.000 A 
ATOM     21  C   UNL     1      45.742   3.541   7.297  0.00  0.00    +0.000 A 
BRANCH  16  22
ATOM     22  C   UNL     1      47.459   2.829   5.581  0.00  0.00    +0.000 C 
BRANCH  22  23
ATOM     23  N   UNL     1      48.542   1.859   5.458  0.00  0.00    +0.000 NA
ATOM     24  H   UNL     1      48.303   1.193   4.728  0.00  0.00    +0.000 HD
ATOM     25  H   UNL     1      48.600   1.328   6.327  0.00  0.00    +0.000 HD
ENDBRANCH  22  23
ENDBRANCH  16  22
ENDBRANCH  15  20
ENDBRANCH  14  15
ENDBRANCH   1  14
TORSDOF 6
ENDMDL
MODEL 6
REMARK VINA RESULT:    -6.198      3.476      5.966
REMARK INTER + INTRA:          -8.828
REMARK INTER:                  -8.493
REMARK INTRA:                  -0.335
REMARK UNBOUND:                -0.637
REMARK  Name = 
REMARK  6 active torsions:
REMARK  status: ('A' for Active; 'I' for Inactive)
REMARK    1  A    between atoms: N_1  and  C_2
REMARK    2  A    between atoms: C_2  and  C_3
REMARK    3  A    between atoms: C_7  and  C_8
REMARK    4  A    between atoms: C_8  and  C_9
REMARK    5  A    between atoms: C_9  and  N_10
REMARK    6  A    between atoms: C_14  and  C_15
REMARK                            x       y       z     vdW  Elec       q    Type
REMARK                         _______ _______ _______ _____ _____    ______ ____
ROOT
ATOM      1  N   UNL     1      47.075   5.145  14.967  0.00  0.00    +0.000 N 
ATOM      2  C   UNL     1      46.435   4.823  13.751  0.00  0.00    +0.000 A 
ATOM      3  C   UNL     1      46.280   5.813  12.783  0.00  0.00    +0.000 A 
ATOM      4  C   UNL     1      45.649   5.500  11.574  0.00  0.00    +0.000 A 
ATOM      5  C   UNL     1      45.182   4.203  11.350  0.00  0.00    +0.000 A 
ATOM      6  C   UNL     1      45.361   3.291  12.372  0.00  0.00    +0.000 A 
ATOM      7  N   UNL     1      45.965   3.576  13.552  0.00  0.00    +0.000 NA
ATOM      8  H   UNL     1      47.987   5.539  14.752  0.00  0.00    +0.000 HD
ENDROOT
BRANCH   5   9
ATOM      9  C   UNL     1      44.532   3.865  10.062  0.00  0.00    +0.000 C 
ATOM     10  N   UNL     1      43.710   4.785   9.469  0.00  0.00    +0.000 N 
ATOM     11  O   UNL     1      44.715   2.776   9.530  0.00  0.00    +0.000 OA
ATOM     12  H   UNL     1      43.479   5.699   9.826  0.00  0.00    +0.000 HD
ATOM     13  H   UNL     1      43.277   4.505   8.597  0.00  0.00    +0.000 HD
ENDBRANCH   5   9
BRANCH   1  14
ATOM     14  C   UNL     1      47.163   3.991  15.872  0.00  0.00    +0.000 C 
BRANCH  14  15
ATOM     15  C   UNL     1      47.549   4.418  17.292  0.00  0.00    +0.000 C 
BRANCH  15  20
ATOM     16  C   UNL     1      50.962   2.695  17.425  0.00  0.00    +0.000 A 
ATOM     17  C   UNL     1      51.791   3.776  17.755  0.00  0.00    +0.000 A 
ATOM     18  C   UNL     1      51.250   5.043  17.980  0.00  0.00    +0.000 A 
ATOM     19  C   UNL     1      49.875   5.249  17.862  0.00  0.00    +0.000 A 
ATOM     20  C   UNL     1      49.025   4.185  17.530  0.00  0.00    +0.000 A 
ATOM     21  C   UNL     1      49.578   2.911  17.327  0.00  0.00    +0.000 A 
BRANCH  16  22
ATOM     22  C   UNL     1      51.552   1.344  17.106  0.00  0.00    +0.000 C 
BRANCH  22  23
ATOM     23  N   UNL     1      51.376   0.394  18.198  0.00  0.00    +0.000 NA
ATOM     24  H   UNL     1      51.398   0.900  19.081  0.00  0.00    +0.000 HD
ATOM     25  H   UNL     1      52.176  -0.239  18.208  0.00  0.00    +0.000 HD
ENDBRANCH  22  23
ENDBRANCH  16  22
ENDBRANCH  15  20
ENDBRANCH  14  15
ENDBRANCH   1  14
TORSDOF 6
ENDMDL
MODEL 7
REMARK VINA RESULT:    -6.089      3.348      7.300
REMARK INTER + INTRA:          -8.683
REMARK INTER:                  -8.193
REMARK INTRA:                  -0.491
REMARK UNBOUND:                -0.637
REMARK  Name = 
REMARK  6 active torsions:
REMARK  status: ('A' for Active; 'I' for Inactive)
REMARK    1  A    between atoms: N_1  and  C_2
REMARK    2  A    between atoms: C_2  and  C_3
REMARK    3  A    between atoms: C_7  and  C_8
REMARK    4  A    between atoms: C_8  and  C_9
REMARK    5  A    between atoms: C_9  and  N_10
REMARK    6  A    between atoms: C_14  and  C_15
REMARK                            x       y       z     vdW  Elec       q    Type
REMARK                         _______ _______ _______ _____ _____    ______ ____
ROOT
ATOM      1  N   UNL     1      48.335   7.103  13.524  0.00  0.00    +0.000 N 
ATOM      2  C   UNL     1      48.132   6.180  14.571  0.00  0.00    +0.000 A 
ATOM      3  C   UNL     1      48.634   6.471  15.838  0.00  0.00    +0.000 A 
ATOM      4  C   UNL     1      48.433   5.562  16.883  0.00  0.00    +0.000 A 
ATOM      5  C   UNL     1      47.734   4.376  16.647  0.00  0.00    +0.000 A 
ATOM      6  C   UNL     1      47.289   4.162  15.356  0.00  0.00    +0.000 A 
ATOM      7  N   UNL     1      47.478   5.028  14.330  0.00  0.00    +0.000 NA
ATOM      8  H   UNL     1      47.975   8.006  13.819  0.00  0.00    +0.000 HD
ENDROOT
BRANCH   5   9
ATOM      9  C   UNL     1      47.503   3.422  17.757  0.00  0.00    +0.000 C 
ATOM     10  N   UNL     1      48.249   3.536  18.899  0.00  0.00    +0.000 N 
ATOM     11  O   UNL     1      46.662   2.535  17.661  0.00  0.00    +0.000 OA
ATOM     12  H   UNL     1      48.974   4.214  19.075  0.00  0.00    +0.000 HD
ATOM     13  H   UNL     1      48.066   2.854  19.625  0.00  0.00    +0.000 HD
ENDBRANCH   5   9
BRANCH   1  14
ATOM     14  C   UNL     1      47.739   6.650  12.259  0.00  0.00    +0.000 C 
BRANCH  14  15
ATOM     15  C   UNL     1      46.379   7.313  12.009  0.00  0.00    +0.000 C 
BRANCH  15  20
ATOM     16  C   UNL     1      44.371   4.410  10.536  0.00  0.00    +0.000 A 
ATOM     17  C   UNL     1      43.459   4.166  11.573  0.00  0.00    +0.000 A 
ATOM     18  C   UNL     1      43.459   4.962  12.719  0.00  0.00    +0.000 A 
ATOM     19  C   UNL     1      44.381   6.000  12.852  0.00  0.00    +0.000 A 
ATOM     20  C   UNL     1      45.305   6.262  11.831  0.00  0.00    +0.000 A 
ATOM     21  C   UNL     1      45.282   5.469  10.673  0.00  0.00    +0.000 A 
BRANCH  16  22
ATOM     22  C   UNL     1      44.424   3.504   9.331  0.00  0.00    +0.000 C 
BRANCH  22  23
ATOM     23  N   UNL     1      44.810   2.142   9.681  0.00  0.00    +0.000 NA
ATOM     24  H   UNL     1      45.398   1.767   8.941  0.00  0.00    +0.000 HD
ATOM     25  H   UNL     1      43.971   1.563   9.706  0.00  0.00    +0.000 HD
ENDBRANCH  22  23
ENDBRANCH  16  22
ENDBRANCH  15  20
ENDBRANCH  14  15
ENDBRANCH   1  14
TORSDOF 6
ENDMDL
MODEL 8
REMARK VINA RESULT:    -5.768      4.002      6.162
REMARK INTER + INTRA:          -8.259
REMARK INTER:                  -7.743
REMARK INTRA:                  -0.517
REMARK UNBOUND:                -0.637
REMARK  Name = 
REMARK  6 active torsions:
REMARK  status: ('A' for Active; 'I' for Inactive)
REMARK    1  A    between atoms: N_1  and  C_2
REMARK    2  A    between atoms: C_2  and  C_3
REMARK    3  A    between atoms: C_7  and  C_8
REMARK    4  A    between atoms: C_8  and  C_9
REMARK    5  A    between atoms: C_9  and  N_10
REMARK    6  A    between atoms: C_14  and  C_15
REMARK                            x       y       z     vdW  Elec       q    Type
REMARK                         _______ _______ _______ _____ _____    ______ ____
ROOT
ATOM      1  N   UNL     1      47.502   7.386  13.958  0.00  0.00    +0.000 N 
ATOM      2  C   UNL     1      46.573   6.441  13.476  0.00  0.00    +0.000 A 
ATOM      3  C   UNL     1      45.428   6.889  12.821  0.00  0.00    +0.000 A 
ATOM      4  C   UNL     1      44.503   5.956  12.337  0.00  0.00    +0.000 A 
ATOM      5  C   UNL     1      44.735   4.591  12.516  0.00  0.00    +0.000 A 
ATOM      6  C   UNL     1      45.887   4.238  13.193  0.00  0.00    +0.000 A 
ATOM      7  N   UNL     1      46.792   5.126  13.674  0.00  0.00    +0.000 NA
ATOM      8  H   UNL     1      47.781   7.983  13.184  0.00  0.00    +0.000 HD
ENDROOT
BRANCH   5   9
ATOM      9  C   UNL     1      43.767   3.602  11.986  0.00  0.00    +0.000 C 
ATOM     10  N   UNL     1      43.755   2.337  12.508  0.00  0.00    +0.000 N 
ATOM     11  O   UNL     1      42.988   3.900  11.087  0.00  0.00    +0.000 OA
ATOM     12  H   UNL     1      44.359   1.983  13.234  0.00  0.00    +0.000 HD
ATOM     13  H   UNL     1      43.086   1.691  12.106  0.00  0.00    +0.000 HD
ENDBRANCH   5   9
BRANCH   1  14
ATOM     14  C   UNL     1      48.653   6.750  14.615  0.00  0.00    +0.000 C 
BRANCH  14  15
ATOM     15  C   UNL     1      48.815   7.234  16.060  0.00  0.00    +0.000 C 
BRANCH  15  20
ATOM     16  C   UNL     1      49.253   3.773  17.630  0.00  0.00    +0.000 A 
ATOM     17  C   UNL     1      48.651   3.972  18.880  0.00  0.00    +0.000 A 
ATOM     18  C   UNL     1      48.065   5.198  19.198  0.00  0.00    +0.000 A 
ATOM     19  C   UNL     1      48.088   6.246  18.278  0.00  0.00    +0.000 A 
ATOM     20  C   UNL     1      48.687   6.074  17.023  0.00  0.00    +0.000 A 
ATOM     21  C   UNL     1      49.254   4.830  16.705  0.00  0.00    +0.000 A 
BRANCH  16  22
ATOM     22  C   UNL     1      49.955   2.476  17.312  0.00  0.00    +0.000 C 
BRANCH  22  23
ATOM     23  N   UNL     1      49.402   1.825  16.130  0.00  0.00    +0.000 NA
ATOM     24  H   UNL     1      48.398   1.716  16.255  0.00  0.00    +0.000 HD
ATOM     25  H   UNL     1      49.790   0.884  16.067  0.00  0.00    +0.000 HD
ENDBRANCH  22  23
ENDBRANCH  16  22
ENDBRANCH  15  20
ENDBRANCH  14  15
ENDBRANCH   1  14
TORSDOF 6
ENDMDL
MODEL 9
REMARK VINA RESULT:    -5.733      3.669      7.260
REMARK INTER + INTRA:          -8.214
REMARK INTER:                  -8.170
REMARK INTRA:                  -0.044
REMARK UNBOUND:                -0.637
REMARK  Name = 
REMARK  6 active torsions:
REMARK  status: ('A' for Active; 'I' for Inactive)
REMARK    1  A    between atoms: N_1  and  C_2
REMARK    2  A    between atoms: C_2  and  C_3
REMARK    3  A    between atoms: C_7  and  C_8
REMARK    4  A    between atoms: C_8  and  C_9
REMARK    5  A    between atoms: C_9  and  N_10
REMARK    6  A    between atoms: C_14  and  C_15
REMARK                            x       y       z     vdW  Elec       q    Type
REMARK                         _______ _______ _______ _____ _____    ______ ____
ROOT
ATOM      1  N   UNL     1      45.972   4.858  11.899  0.00  0.00    +0.000 N 
ATOM      2  C   UNL     1      46.569   5.923  12.607  0.00  0.00    +0.000 A 
ATOM      3  C   UNL     1      47.543   5.641  13.562  0.00  0.00    +0.000 A 
ATOM      4  C   UNL     1      48.142   6.693  14.265  0.00  0.00    +0.000 A 
ATOM      5  C   UNL     1      47.757   8.010  14.004  0.00  0.00    +0.000 A 
ATOM      6  C   UNL     1      46.771   8.195  13.054  0.00  0.00    +0.000 A 
ATOM      7  N   UNL     1      46.176   7.189  12.366  0.00  0.00    +0.000 NA
ATOM      8  H   UNL     1      46.710   4.312  11.462  0.00  0.00    +0.000 HD
ENDROOT
BRANCH   5   9
ATOM      9  C   UNL     1      48.405   9.126  14.733  0.00  0.00    +0.000 C 
ATOM     10  N   UNL     1      49.382   9.852  14.107  0.00  0.00    +0.000 N 
ATOM     11  O   UNL     1      48.082   9.399  15.884  0.00  0.00    +0.000 OA
ATOM     12  H   UNL     1      49.733   9.703  13.174  0.00  0.00    +0.000 HD
ATOM     13  H   UNL     1      49.805  10.596  14.648  0.00  0.00    +0.000 HD
ENDBRANCH   5   9
BRANCH   1  14
ATOM     14  C   UNL     1      44.974   5.325  10.927  0.00  0.00    +0.000 C 
BRANCH  14  15
ATOM     15  C   UNL     1      45.580   5.479   9.528  0.00  0.00    +0.000 C 
BRANCH  15  20
ATOM     16  C   UNL     1      46.537   2.760   7.013  0.00  0.00    +0.000 A 
ATOM     17  C   UNL     1      46.031   1.620   7.652  0.00  0.00    +0.000 A 
ATOM     18  C   UNL     1      45.344   1.729   8.861  0.00  0.00    +0.000 A 
ATOM     19  C   UNL     1      45.169   2.979   9.457  0.00  0.00    +0.000 A 
ATOM     20  C   UNL     1      45.668   4.134   8.840  0.00  0.00    +0.000 A 
ATOM     21  C   UNL     1      46.338   4.014   7.612  0.00  0.00    +0.000 A 
BRANCH  16  22
ATOM     22  C   UNL     1      47.346   2.636   5.746  0.00  0.00    +0.000 C 
BRANCH  22  23
ATOM     23  N   UNL     1      48.540   1.818   5.932  0.00  0.00    +0.000 NA
ATOM     24  H   UNL     1      48.983   1.675   5.027  0.00  0.00    +0.000 HD
ATOM     25  H   UNL     1      48.253   0.897   6.263  0.00  0.00    +0.000 HD
ENDBRANCH  22  23
ENDBRANCH  16  22
ENDBRANCH  15  20
ENDBRANCH  14  15
ENDBRANCH   1  14
TORSDOF 6
ENDMDL
