MODEL 1
REMARK VINA RESULT:    -6.802      0.000      0.000
REMARK INTER + INTRA:          -8.647
REMARK INTER:                  -8.194
REMARK INTRA:                  -0.453
REMARK UNBOUND:                -0.453
REMARK  Name = 
REMARK  4 active torsions:
REMARK  status: ('A' for Active; 'I' for Inactive)
REMARK    1  A    between atoms: N_1  and  C_2
REMARK    2  A    between atoms: C_2  and  C_3
REMARK    3  A    between atoms: C_6  and  C_7
REMARK    4  A    between atoms: C_7  and  N_8
REMARK                            x       y       z     vdW  Elec       q    Type
REMARK                         _______ _______ _______ _____ _____    ______ ____
ROOT
ATOM      1  C   UNL     1      44.304   6.376  11.569  0.00  0.00    +0.000 C 
ENDROOT
BRANCH   1   2
ATOM      2  N   UNL     1      44.226   4.950  11.298  0.00  0.00    +0.000 N 
ATOM      3  C   UNL     1      43.461   4.076  12.030  0.00  0.00    +0.000 A 
ATOM      4  C   UNL     1      43.472   2.858  11.392  0.00  0.00    +0.000 A 
ATOM      5  C   UNL     1      44.256   2.996  10.217  0.00  0.00    +0.000 A 
ATOM      6  C   UNL     1      44.579   2.117   9.160  0.00  0.00    +0.000 A 
ATOM      7  C   UNL     1      45.391   2.572   8.116  0.00  0.00    +0.000 A 
ATOM      8  C   UNL     1      45.889   3.866   8.135  0.00  0.00    +0.000 A 
ATOM      9  F   UNL     1      46.672   4.277   7.128  0.00  0.00    +0.000 F 
ATOM     10  C   UNL     1      45.592   4.758   9.166  0.00  0.00    +0.000 A 
ATOM     11  C   UNL     1      44.752   4.306  10.194  0.00  0.00    +0.000 A 
ENDBRANCH   1   2
BRANCH   1  15
ATOM     12  C   UNL     1      48.074   7.692  13.360  0.00  0.00    +0.000 C 
ATOM     13  C   UNL     1      46.867   8.634  13.481  0.00  0.00    +0.000 C 
ATOM     14  C   UNL     1      45.729   8.258  12.538  0.00  0.00    +0.000 C 
ATOM     15  C   UNL     1      45.274   6.796  12.692  0.00  0.00    +0.000 C 
ATOM     16  C   UNL     1      46.470   5.822  12.693  0.00  0.00    +0.000 C 
ATOM     17  C   UNL     1      47.604   6.253  13.621  0.00  0.00    +0.000 C 
BRANCH  12  18
ATOM     18  C   UNL     1      48.808   7.804  12.007  0.00  0.00    +0.000 C 
BRANCH  18  19
ATOM     19  N   UNL     1      50.162   7.264  12.072  0.00  0.00    +0.000 NA
ATOM     20  H   UNL     1      50.762   7.770  11.420  0.00  0.00    +0.000 HD
ATOM     21  H   UNL     1      50.159   6.293  11.764  0.00  0.00    +0.000 HD
ENDBRANCH  18  19
ENDBRANCH  12  18
ENDBRANCH   1  15
TORSDOF 4
ENDMDL
MODEL 2
REMARK VINA RESULT:    -6.223      1.102      1.706
REMARK INTER + INTRA:          -7.949
REMARK INTER:                  -7.637
REMARK INTRA:                  -0.313
REMARK UNBOUND:                -0.453
REMARK  Name = 
REMARK  4 active torsions:
REMARK  status: ('A' for Active; 'I' for Inactive)
REMARK    1  A    between atoms: N_1  and  C_2
REMARK    2  A    between atoms: C_2  and  C_3
REMARK    3  A    between atoms: C_6  and  C_7
REMARK    4  A    between atoms: C_7  and  N_8
REMARK                            x       y       z     vdW  Elec       q    Type
REMARK                         _______ _______ _______ _____ _____    ______ ____
ROOT
ATOM      1  C   UNL     1      44.461   6.419  11.635  0.00  0.00    +0.000 C 
ENDROOT
BRANCH   1   2
ATOM      2  N   UNL     1      44.340   4.995  11.368  0.00  0.00    +0.000 N 
ATOM      3  C   UNL     1      43.583   4.139  12.130  0.00  0.00    +0.000 A 
ATOM      4  C   UNL     1      43.541   2.921  11.492  0.00  0.00    +0.000 A 
ATOM      5  C   UNL     1      44.284   3.041  10.289  0.00  0.00    +0.000 A 
ATOM      6  C   UNL     1      44.546   2.155   9.221  0.00  0.00    +0.000 A 
ATOM      7  C   UNL     1      45.327   2.591   8.146  0.00  0.00    +0.000 A 
ATOM      8  C   UNL     1      45.856   3.873   8.145  0.00  0.00    +0.000 A 
ATOM      9  F   UNL     1      46.609   4.266   7.108  0.00  0.00    +0.000 F 
ATOM     10  C   UNL     1      45.619   4.771   9.186  0.00  0.00    +0.000 A 
ATOM     11  C   UNL     1      44.808   4.339  10.246  0.00  0.00    +0.000 A 
ENDBRANCH   1   2
BRANCH   1  15
ATOM     12  C   UNL     1      48.112   8.377  13.045  0.00  0.00    +0.000 C 
ATOM     13  C   UNL     1      48.229   6.921  12.569  0.00  0.00    +0.000 C 
ATOM     14  C   UNL     1      46.874   6.232  12.443  0.00  0.00    +0.000 C 
ATOM     15  C   UNL     1      45.887   7.001  11.548  0.00  0.00    +0.000 C 
ATOM     16  C   UNL     1      45.826   8.497  11.917  0.00  0.00    +0.000 C 
ATOM     17  C   UNL     1      47.202   9.141  12.071  0.00  0.00    +0.000 C 
BRANCH  12  18
ATOM     18  C   UNL     1      47.613   8.511  14.500  0.00  0.00    +0.000 C 
BRANCH  18  19
ATOM     19  N   UNL     1      48.336   7.629  15.410  0.00  0.00    +0.000 NA
ATOM     20  H   UNL     1      47.685   7.236  16.090  0.00  0.00    +0.000 HD
ATOM     21  H   UNL     1      49.015   8.169  15.943  0.00  0.00    +0.000 HD
ENDBRANCH  18  19
ENDBRANCH  12  18
ENDBRANCH   1  15
TORSDOF 4
ENDMDL
MODEL 3
REMARK VINA RESULT:    -6.014      2.686      5.913
REMARK INTER + INTRA:          -7.698
REMARK INTER:                  -7.680
REMARK INTRA:                  -0.018
REMARK UNBOUND:                -0.453
REMARK  Name = 
REMARK  4 active torsions:
REMARK  status: ('A' for Active; 'I' for Inactive)
REMARK    1  A    between atoms: N_1  and  C_2
REMARK    2  A    between atoms: C_2  and  C_3
REMARK    3  A    between atoms: C_6  and  C_7
REMARK    4  A    between atoms: C_7  and  N_8
REMARK                            x       y       z     vdW  Elec       q    Type
REMARK                         _______ _______ _______ _____ _____    ______ ____
ROOT
ATOM      1  C   UNL     1      44.833   4.497   9.016  0.00  0.00    +0.000 C 
ENDROOT
BRANCH   1   2
ATOM      2  N   UNL     1      44.728   4.292  10.452  0.00  0.00    +0.000 N 
ATOM      3  C   UNL     1      43.962   3.308  11.026  0.00  0.00    +0.000 A 
ATOM      4  C   UNL     1      44.241   3.279  12.373  0.00  0.00    +0.000 A 
ATOM      5  C   UNL     1      45.227   4.267  12.629  0.00  0.00    +0.000 A 
ATOM      6  C   UNL     1      45.928   4.658  13.790  0.00  0.00    +0.000 A 
ATOM      7  C   UNL     1      46.869   5.689  13.708  0.00  0.00    +0.000 A 
ATOM      8  C   UNL     1      47.091   6.333  12.500  0.00  0.00    +0.000 A 
ATOM      9  F   UNL     1      47.992   7.324  12.447  0.00  0.00    +0.000 F 
ATOM     10  C   UNL     1      46.413   5.974  11.335  0.00  0.00    +0.000 A 
ATOM     11  C   UNL     1      45.494   4.918  11.417  0.00  0.00    +0.000 A 
ENDBRANCH   1   2
BRANCH   1  15
ATOM     12  C   UNL     1      46.908   1.376   6.758  0.00  0.00    +0.000 C 
ATOM     13  C   UNL     1      46.139   0.946   8.016  0.00  0.00    +0.000 C 
ATOM     14  C   UNL     1      45.763   2.124   8.909  0.00  0.00    +0.000 C 
ATOM     15  C   UNL     1      44.983   3.221   8.163  0.00  0.00    +0.000 C 
ATOM     16  C   UNL     1      45.661   3.602   6.832  0.00  0.00    +0.000 C 
ATOM     17  C   UNL     1      46.056   2.394   5.984  0.00  0.00    +0.000 C 
BRANCH  12  18
ATOM     18  C   UNL     1      48.315   1.936   7.058  0.00  0.00    +0.000 C 
BRANCH  18  19
ATOM     19  N   UNL     1      48.817   2.767   5.969  0.00  0.00    +0.000 NA
ATOM     20  H   UNL     1      48.526   2.369   5.076  0.00  0.00    +0.000 HD
ATOM     21  H   UNL     1      49.836   2.754   5.970  0.00  0.00    +0.000 HD
ENDBRANCH  18  19
ENDBRANCH  12  18
ENDBRANCH   1  15
TORSDOF 4
ENDMDL
MODEL 4
REMARK VINA RESULT:    -5.929      3.596      6.995
REMARK INTER + INTRA:          -7.595
REMARK INTER:                  -7.090
REMARK INTRA:                  -0.504
REMARK UNBOUND:                -0.453
REMARK  Name = 
REMARK  4 active torsions:
REMARK  status: ('A' for Active; 'I' for Inactive)
REMARK    1  A    between atoms: N_1  and  C_2
REMARK    2  A    between atoms: C_2  and  C_3
REMARK    3  A    between atoms: C_6  and  C_7
REMARK    4  A    between atoms: C_7  and  N_8
REMARK                            x       y       z     vdW  Elec       q    Type
REMARK                         _______ _______ _______ _____ _____    ______ ____
ROOT
ATOM      1  C   UNL     1      47.378   5.468  13.209  0.00  0.00    +0.000 C 
ENDROOT
BRANCH   1   2
ATOM      2  N   UNL     1      47.993   5.904  14.452  0.00  0.00    +0.000 N 
ATOM      3  C   UNL     1      48.600   7.125  14.615  0.00  0.00    +0.000 A 
ATOM      4  C   UNL     1      48.899   7.281  15.948  0.00  0.00    +0.000 A 
ATOM      5  C   UNL     1      48.442   6.124  16.629  0.00  0.00    +0.000 A 
ATOM      6  C   UNL     1      48.425   5.744  17.989  0.00  0.00    +0.000 A 
ATOM      7  C   UNL     1      47.881   4.506  18.347  0.00  0.00    +0.000 A 
ATOM      8  C   UNL     1      47.386   3.655  17.371  0.00  0.00    +0.000 A 
ATOM      9  F   UNL     1      46.877   2.470  17.738  0.00  0.00    +0.000 F 
ATOM     10  C   UNL     1      47.391   3.998  16.019  0.00  0.00    +0.000 A 
ATOM     11  C   UNL     1      47.909   5.254  15.669  0.00  0.00    +0.000 A 
ENDBRANCH   1   2
BRANCH   1  15
ATOM     12  C   UNL     1      43.349   5.066  11.549  0.00  0.00    +0.000 C 
ATOM     13  C   UNL     1      43.578   4.555  12.979  0.00  0.00    +0.000 C 
ATOM     14  C   UNL     1      45.058   4.413  13.324  0.00  0.00    +0.000 C 
ATOM     15  C   UNL     1      45.859   5.706  13.091  0.00  0.00    +0.000 C 
ATOM     16  C   UNL     1      45.568   6.318  11.706  0.00  0.00    +0.000 C 
ATOM     17  C   UNL     1      44.077   6.409  11.382  0.00  0.00    +0.000 C 
BRANCH  12  18
ATOM     18  C   UNL     1      43.776   4.059  10.459  0.00  0.00    +0.000 C 
BRANCH  18  19
ATOM     19  N   UNL     1      43.758   4.653   9.127  0.00  0.00    +0.000 NA
ATOM     20  H   UNL     1      43.001   4.240   8.581  0.00  0.00    +0.000 HD
ATOM     21  H   UNL     1      44.621   4.423   8.638  0.00  0.00    +0.000 HD
ENDBRANCH  18  19
ENDBRANCH  12  18
ENDBRANCH   1  15
TORSDOF 4
ENDMDL
MODEL 5
REMARK VINA RESULT:    -5.915      2.353      6.153
REMARK INTER + INTRA:          -7.578
REMARK INTER:                  -7.042
REMARK INTRA:                  -0.536
REMARK UNBOUND:                -0.453
REMARK  Name = 
REMARK  4 active torsions:
REMARK  status: ('A' for Active; 'I' for Inactive)
REMARK    1  A    between atoms: N_1  and  C_2
REMARK    2  A    between atoms: C_2  and  C_3
REMARK    3  A    between atoms: C_6  and  C_7
REMARK    4  A    between atoms: C_7  and  N_8
REMARK                            x       y       z     vdW  Elec       q    Type
REMARK                         _______ _______ _______ _____ _____    ______ ____
ROOT
ATOM      1  C   UNL     1      46.049   5.408  12.177  0.00  0.00    +0.000 C 
ENDROOT
BRANCH   1   2
ATOM      2  N   UNL     1      46.078   6.861  12.174  0.00  0.00    +0.000 N 
ATOM      3  C   UNL     1      45.019   7.645  12.562  0.00  0.00    +0.000 A 
ATOM      4  C   UNL     1      45.450   8.950  12.617  0.00  0.00    +0.000 A 
ATOM      5  C   UNL     1      46.825   8.964  12.268  0.00  0.00    +0.000 A 
ATOM      6  C   UNL     1      47.797   9.986  12.201  0.00  0.00    +0.000 A 
ATOM      7  C   UNL     1      49.104   9.664  11.822  0.00  0.00    +0.000 A 
ATOM      8  C   UNL     1      49.432   8.357  11.494  0.00  0.00    +0.000 A 
ATOM      9  F   UNL     1      50.689   8.074  11.126  0.00  0.00    +0.000 F 
ATOM     10  C   UNL     1      48.495   7.324  11.546  0.00  0.00    +0.000 A 
ATOM     11  C   UNL     1      47.193   7.648  11.958  0.00  0.00    +0.000 A 
ENDBRANCH   1   2
BRANCH   1  15
ATOM     12  C   UNL     1      44.605   2.865   8.921  0.00  0.00    +0.000 C 
ATOM     13  C   UNL     1      44.138   2.524  10.344  0.00  0.00    +0.000 C 
ATOM     14  C   UNL     1      44.963   3.227  11.418  0.00  0.00    +0.000 C 
ATOM     15  C   UNL     1      45.019   4.754  11.233  0.00  0.00    +0.000 C 
ATOM     16  C   UNL     1      45.370   5.142   9.783  0.00  0.00    +0.000 C 
ATOM     17  C   UNL     1      44.550   4.390   8.737  0.00  0.00    +0.000 C 
BRANCH  12  18
ATOM     18  C   UNL     1      46.004   2.310   8.582  0.00  0.00    +0.000 C 
BRANCH  18  19
ATOM     19  N   UNL     1      45.983   0.869   8.359  0.00  0.00    +0.000 NA
ATOM     20  H   UNL     1      46.045   0.385   9.255  0.00  0.00    +0.000 HD
ATOM     21  H   UNL     1      46.806   0.592   7.827  0.00  0.00    +0.000 HD
ENDBRANCH  18  19
ENDBRANCH  12  18
ENDBRANCH   1  15
TORSDOF 4
ENDMDL
MODEL 6
REMARK VINA RESULT:    -5.668      3.628      5.028
REMARK INTER + INTRA:          -7.281
REMARK INTER:                  -6.844
REMARK INTRA:                  -0.437
REMARK UNBOUND:                -0.453
REMARK  Name = 
REMARK  4 active torsions:
REMARK  status: ('A' for Active; 'I' for Inactive)
REMARK    1  A    between atoms: N_1  and  C_2
REMARK    2  A    between atoms: C_2  and  C_3
REMARK    3  A    between atoms: C_6  and  C_7
REMARK    4  A    between atoms: C_7  and  N_8
REMARK                            x       y       z     vdW  Elec       q    Type
REMARK                         _______ _______ _______ _____ _____    ______ ____
ROOT
ATOM      1  C   UNL     1      47.421   4.837  14.017  0.00  0.00    +0.000 C 
ENDROOT
BRANCH   1   2
ATOM      2  N   UNL     1      46.343   5.624  13.442  0.00  0.00    +0.000 N 
ATOM      3  C   UNL     1      46.405   6.984  13.260  0.00  0.00    +0.000 A 
ATOM      4  C   UNL     1      45.307   7.370  12.528  0.00  0.00    +0.000 A 
ATOM      5  C   UNL     1      44.554   6.203  12.235  0.00  0.00    +0.000 A 
ATOM      6  C   UNL     1      43.380   5.971  11.487  0.00  0.00    +0.000 A 
ATOM      7  C   UNL     1      42.884   4.668  11.379  0.00  0.00    +0.000 A 
ATOM      8  C   UNL     1      43.530   3.621  12.020  0.00  0.00    +0.000 A 
ATOM      9  F   UNL     1      43.031   2.382  11.909  0.00  0.00    +0.000 F 
ATOM     10  C   UNL     1      44.690   3.817  12.769  0.00  0.00    +0.000 A 
ATOM     11  C   UNL     1      45.201   5.122  12.848  0.00  0.00    +0.000 A 
ENDBRANCH   1   2
BRANCH   1  15
ATOM     12  C   UNL     1      48.923   3.846  18.006  0.00  0.00    +0.000 C 
ATOM     13  C   UNL     1      48.499   5.300  17.751  0.00  0.00    +0.000 C 
ATOM     14  C   UNL     1      48.337   5.615  16.268  0.00  0.00    +0.000 C 
ATOM     15  C   UNL     1      47.377   4.652  15.548  0.00  0.00    +0.000 C 
ATOM     16  C   UNL     1      47.695   3.179  15.870  0.00  0.00    +0.000 C 
ATOM     17  C   UNL     1      47.887   2.911  17.362  0.00  0.00    +0.000 C 
BRANCH  12  18
ATOM     18  C   UNL     1      50.350   3.525  17.512  0.00  0.00    +0.000 C 
BRANCH  18  19
ATOM     19  N   UNL     1      51.274   3.297  18.619  0.00  0.00    +0.000 NA
ATOM     20  H   UNL     1      50.850   2.656  19.289  0.00  0.00    +0.000 HD
ATOM     21  H   UNL     1      51.431   4.171  19.119  0.00  0.00    +0.000 HD
ENDBRANCH  18  19
ENDBRANCH  12  18
ENDBRANCH   1  15
TORSDOF 4
ENDMDL
MODEL 7
REMARK VINA RESULT:    -5.547      2.529      6.361
REMARK INTER + INTRA:          -7.135
REMARK INTER:                  -6.720
REMARK INTRA:                  -0.415
REMARK UNBOUND:                -0.453
REMARK  Name = 
REMARK  4 active torsions:
REMARK  status: ('A' for Active; 'I' for Inactive)
REMARK    1  A    between atoms: N_1  and  C_2
REMARK    2  A    between atoms: C_2  and  C_3
REMARK    3  A    between atoms: C_6  and  C_7
REMARK    4  A    between atoms: C_7  and  N_8
REMARK                            x       y       z     vdW  Elec       q    Type
REMARK                         _______ _______ _______ _____ _____    ______ ____
ROOT
ATOM      1  C   UNL     1      46.549   6.665  12.429  0.00  0.00    +0.000 C 
ENDROOT
BRANCH   1   2
ATOM      2  N   UNL     1      47.042   7.996  12.117  0.00  0.00    +0.000 N 
ATOM      3  C   UNL     1      46.302   9.141  12.285  0.00  0.00    +0.000 A 
ATOM      4  C   UNL     1      47.129  10.220  12.077  0.00  0.00    +0.000 A 
ATOM      5  C   UNL     1      48.426   9.719  11.789  0.00  0.00    +0.000 A 
ATOM      6  C   UNL     1      49.671  10.338  11.545  0.00  0.00    +0.000 A 
ATOM      7  C   UNL     1      50.793   9.542  11.296  0.00  0.00    +0.000 A 
ATOM      8  C   UNL     1      50.675   8.161  11.269  0.00  0.00    +0.000 A 
ATOM      9  F   UNL     1      51.763   7.419  11.020  0.00  0.00    +0.000 F 
ATOM     10  C   UNL     1      49.459   7.518  11.503  0.00  0.00    +0.000 A 
ATOM     11  C   UNL     1      48.343   8.321  11.783  0.00  0.00    +0.000 A 
ENDBRANCH   1   2
BRANCH   1  15
ATOM     12  C   UNL     1      43.033   4.245  11.465  0.00  0.00    +0.000 C 
ATOM     13  C   UNL     1      42.951   5.149  12.704  0.00  0.00    +0.000 C 
ATOM     14  C   UNL     1      44.316   5.663  13.150  0.00  0.00    +0.000 C 
ATOM     15  C   UNL     1      45.089   6.377  12.026  0.00  0.00    +0.000 C 
ATOM     16  C   UNL     1      45.096   5.552  10.723  0.00  0.00    +0.000 C 
ATOM     17  C   UNL     1      43.717   5.024  10.331  0.00  0.00    +0.000 C 
BRANCH  12  18
ATOM     18  C   UNL     1      43.746   2.901  11.729  0.00  0.00    +0.000 C 
BRANCH  18  19
ATOM     19  N   UNL     1      43.938   2.133  10.504  0.00  0.00    +0.000 NA
ATOM     20  H   UNL     1      44.379   2.722   9.798  0.00  0.00    +0.000 HD
ATOM     21  H   UNL     1      43.033   1.861  10.125  0.00  0.00    +0.000 HD
ENDBRANCH  18  19
ENDBRANCH  12  18
ENDBRANCH   1  15
TORSDOF 4
ENDMDL
MODEL 8
REMARK VINA RESULT:    -5.438      2.605      5.656
REMARK INTER + INTRA:          -7.003
REMARK INTER:                  -6.564
REMARK INTRA:                  -0.439
REMARK UNBOUND:                -0.453
REMARK  Name = 
REMARK  4 active torsions:
REMARK  status: ('A' for Active; 'I' for Inactive)
REMARK    1  A    between atoms: N_1  and  C_2
REMARK    2  A    between atoms: C_2  and  C_3
REMARK    3  A    between atoms: C_6  and  C_7
REMARK    4  A    between atoms: C_7  and  N_8
REMARK                            x       y       z     vdW  Elec       q    Type
REMARK                         _______ _______ _______ _____ _____    ______ ____
ROOT
ATOM      1  C   UNL     1      46.398   3.378  12.993  0.00  0.00    +0.000 C 
ENDROOT
BRANCH   1   2
ATOM      2  N   UNL     1      46.910   4.340  13.955  0.00  0.00    +0.000 N 
ATOM      3  C   UNL     1      47.085   4.063  15.289  0.00  0.00    +0.000 A 
ATOM      4  C   UNL     1      47.755   5.119  15.861  0.00  0.00    +0.000 A 
ATOM      5  C   UNL     1      48.016   6.067  14.838  0.00  0.00    +0.000 A 
ATOM      6  C   UNL     1      48.703   7.301  14.814  0.00  0.00    +0.000 A 
ATOM      7  C   UNL     1      48.794   8.009  13.612  0.00  0.00    +0.000 A 
ATOM      8  C   UNL     1      48.196   7.513  12.464  0.00  0.00    +0.000 A 
ATOM      9  F   UNL     1      48.290   8.213  11.325  0.00  0.00    +0.000 F 
ATOM     10  C   UNL     1      47.507   6.299  12.455  0.00  0.00    +0.000 A 
ATOM     11  C   UNL     1      47.446   5.577  13.656  0.00  0.00    +0.000 A 
ENDBRANCH   1   2
BRANCH   1  15
ATOM     12  C   UNL     1      43.055   5.704  11.393  0.00  0.00    +0.000 C 
ATOM     13  C   UNL     1      43.615   4.575  10.515  0.00  0.00    +0.000 C 
ATOM     14  C   UNL     1      44.974   4.075  10.994  0.00  0.00    +0.000 C 
ATOM     15  C   UNL     1      44.971   3.642  12.471  0.00  0.00    +0.000 C 
ATOM     16  C   UNL     1      44.309   4.700  13.376  0.00  0.00    +0.000 C 
ATOM     17  C   UNL     1      42.968   5.203  12.843  0.00  0.00    +0.000 C 
BRANCH  12  18
ATOM     18  C   UNL     1      43.863   7.015  11.301  0.00  0.00    +0.000 C 
BRANCH  18  19
ATOM     19  N   UNL     1      43.026   8.149  10.924  0.00  0.00    +0.000 NA
ATOM     20  H   UNL     1      43.056   8.273   9.912  0.00  0.00    +0.000 HD
ATOM     21  H   UNL     1      43.406   9.004  11.328  0.00  0.00    +0.000 HD
ENDBRANCH  18  19
ENDBRANCH  12  18
ENDBRANCH   1  15
TORSDOF 4
ENDMDL
MODEL 9
REMARK VINA RESULT:    -5.290      3.761      6.950
REMARK INTER + INTRA:          -6.825
REMARK INTER:                  -6.363
REMARK INTRA:                  -0.462
REMARK UNBOUND:                -0.453
REMARK  Name = 
REMARK  4 active torsions:
REMARK  status: ('A' for Active; 'I' for Inactive)
REMARK    1  A    between atoms: N_1  and  C_2
REMARK    2  A    between atoms: C_2  and  C_3
REMARK    3  A    between atoms: C_6  and  C_7
REMARK    4  A    between atoms: C_7  and  N_8
REMARK                            x       y       z     vdW  Elec       q    Type
REMARK                         _______ _______ _______ _____ _____    ______ ____
ROOT
ATOM      1  C   UNL     1      47.029   4.258  14.285  0.00  0.00    +0.000 C 
ENDROOT
BRANCH   1   2
ATOM      2  N   UNL     1      47.372   4.543  15.668  0.00  0.00    +0.000 N 
ATOM      3  C   UNL     1      47.038   3.725  16.720  0.00  0.00    +0.000 A 
ATOM      4  C   UNL     1      47.676   4.193  17.845  0.00  0.00    +0.000 A 
ATOM      5  C   UNL     1      48.442   5.326  17.467  0.00  0.00    +0.000 A 
ATOM      6  C   UNL     1      49.326   6.175  18.167  0.00  0.00    +0.000 A 
ATOM      7  C   UNL     1      49.947   7.227  17.486  0.00  0.00    +0.000 A 
ATOM      8  C   UNL     1      49.677   7.443  16.143  0.00  0.00    +0.000 A 
ATOM      9  F   UNL     1      50.278   8.463  15.514  0.00  0.00    +0.000 F 
ATOM     10  C   UNL     1      48.806   6.625  15.423  0.00  0.00    +0.000 A 
ATOM     11  C   UNL     1      48.210   5.552  16.104  0.00  0.00    +0.000 A 
ENDBRANCH   1   2
BRANCH   1  15
ATOM     12  C   UNL     1      44.505   5.916  11.118  0.00  0.00    +0.000 C 
ATOM     13  C   UNL     1      43.800   5.335  12.352  0.00  0.00    +0.000 C 
ATOM     14  C   UNL     1      44.725   4.478  13.210  0.00  0.00    +0.000 C 
ATOM     15  C   UNL     1      46.008   5.214  13.634  0.00  0.00    +0.000 C 
ATOM     16  C   UNL     1      46.688   5.914  12.440  0.00  0.00    +0.000 C 
ATOM     17  C   UNL     1      45.721   6.731  11.584  0.00  0.00    +0.000 C 
BRANCH  12  18
ATOM     18  C   UNL     1      44.910   4.848  10.080  0.00  0.00    +0.000 C 
BRANCH  18  19
ATOM     19  N   UNL     1      43.816   4.526   9.170  0.00  0.00    +0.000 NA
ATOM     20  H   UNL     1      43.940   5.034   8.295  0.00  0.00    +0.000 HD
ATOM     21  H   UNL     1      42.935   4.850   9.566  0.00  0.00    +0.000 HD
ENDBRANCH  18  19
ENDBRANCH  12  18
ENDBRANCH   1  15
TORSDOF 4
ENDMDL
