MODEL 1
REMARK VINA RESULT:    -8.306      0.000      0.000
REMARK INTER + INTRA:         -11.145
REMARK INTER:                 -10.491
REMARK INTRA:                  -0.654
REMARK UNBOUND:                -0.654
REMARK  Name = 
REMARK  5 active torsions:
REMARK  status: ('A' for Active; 'I' for Inactive)
REMARK    1  A    between atoms: N_1  and  C_2
REMARK    2  A    between atoms: C_2  and  C_3
REMARK    3  A    between atoms: C_3  and  C_4
REMARK    4  A    between atoms: C_7  and  C_8
REMARK    5  A    between atoms: C_8  and  C_9
REMARK                            x       y       z     vdW  Elec       q    Type
REMARK                         _______ _______ _______ _____ _____    ______ ____
ROOT
ATOM      1  C   UNL     1      45.871   3.402   7.747  0.00  0.00    +0.000 A 
ATOM      2  C   UNL     1      46.116   4.704   8.205  0.00  0.00    +0.000 A 
ATOM      3  C   UNL     1      45.577   5.147   9.417  0.00  0.00    +0.000 A 
ATOM      4  C   UNL     1      44.790   4.293  10.205  0.00  0.00    +0.000 A 
ATOM      5  C   UNL     1      44.539   3.004   9.730  0.00  0.00    +0.000 A 
ATOM      6  F   UNL     1      43.790   2.159  10.454  0.00  0.00    +0.000 F 
ATOM      7  C   UNL     1      45.069   2.555   8.521  0.00  0.00    +0.000 A 
ENDROOT
BRANCH   1   8
ATOM      8  C   UNL     1      46.492   2.909   6.461  0.00  0.00    +0.000 C 
BRANCH   8   9
ATOM      9  C   UNL     1      47.578   1.857   6.718  0.00  0.00    +0.000 C 
BRANCH   9  10
ATOM     10  N   UNL     1      48.586   1.866   5.660  0.00  0.00    +0.000 NA
ATOM     11  H   UNL     1      48.995   2.797   5.594  0.00  0.00    +0.000 HD
ATOM     12  H   UNL     1      48.142   1.688   4.760  0.00  0.00    +0.000 HD
ENDBRANCH   9  10
ENDBRANCH   8   9
ENDBRANCH   1   8
BRANCH   4  13
ATOM     13  C   UNL     1      44.258   4.745  11.541  0.00  0.00    +0.000 C 
BRANCH  13  14
ATOM     14  C   UNL     1      45.369   4.602  12.528  0.00  0.00    +0.000 A 
ATOM     15  N   UNL     1      45.585   3.425  13.147  0.00  0.00    +0.000 NA
ATOM     16  N   UNL     1      46.634   3.682  13.957  0.00  0.00    +0.000 N 
ATOM     17  C   UNL     1      47.076   4.969  13.904  0.00  0.00    +0.000 A 
ATOM     18  N   UNL     1      48.096   5.494  14.611  0.00  0.00    +0.000 NA
ATOM     19  C   UNL     1      48.287   6.808  14.344  0.00  0.00    +0.000 A 
ATOM     20  C   UNL     1      47.536   7.578  13.463  0.00  0.00    +0.000 A 
ATOM     21  C   UNL     1      46.487   6.978  12.762  0.00  0.00    +0.000 A 
ATOM     22  C   UNL     1      46.259   5.613  12.988  0.00  0.00    +0.000 A 
ATOM     23  H   UNL     1      47.005   2.941  14.537  0.00  0.00    +0.000 HD
ENDBRANCH  13  14
ENDBRANCH   4  13
TORSDOF 5
ENDMDL
MODEL 2
REMARK VINA RESULT:    -8.068      1.564      2.026
REMARK INTER + INTRA:         -10.845
REMARK INTER:                 -10.055
REMARK INTRA:                  -0.790
REMARK UNBOUND:                -0.654
REMARK  Name = 
REMARK  5 active torsions:
REMARK  status: ('A' for Active; 'I' for Inactive)
REMARK    1  A    between atoms: N_1  and  C_2
REMARK    2  A    between atoms: C_2  and  C_3
REMARK    3  A    between atoms: C_3  and  C_4
REMARK    4  A    between atoms: C_7  and  C_8
REMARK    5  A    between atoms: C_8  and  C_9
REMARK                            x       y       z     vdW  Elec       q    Type
REMARK                         _______ _______ _______ _____ _____    ______ ____
ROOT
ATOM      1  C   UNL     1      45.963   2.418   8.145  0.00  0.00    +0.000 A 
ATOM      2  C   UNL     1      45.987   3.809   7.980  0.00  0.00    +0.000 A 
ATOM      3  C   UNL     1      45.186   4.635   8.775  0.00  0.00    +0.000 A 
ATOM      4  C   UNL     1      44.352   4.089   9.762  0.00  0.00    +0.000 A 
ATOM      5  C   UNL     1      44.325   2.701   9.906  0.00  0.00    +0.000 A 
ATOM      6  F   UNL     1      43.539   2.140  10.838  0.00  0.00    +0.000 F 
ATOM      7  C   UNL     1      45.117   1.869   9.115  0.00  0.00    +0.000 A 
ENDROOT
BRANCH   1   8
ATOM      8  C   UNL     1      46.863   1.529   7.318  0.00  0.00    +0.000 C 
BRANCH   8   9
ATOM      9  C   UNL     1      48.073   2.295   6.770  0.00  0.00    +0.000 C 
BRANCH   9  10
ATOM     10  N   UNL     1      48.434   1.829   5.432  0.00  0.00    +0.000 NA
ATOM     11  H   UNL     1      47.723   1.180   5.099  0.00  0.00    +0.000 HD
ATOM     12  H   UNL     1      49.304   1.298   5.476  0.00  0.00    +0.000 HD
ENDBRANCH   9  10
ENDBRANCH   8   9
ENDBRANCH   1   8
BRANCH   4  13
ATOM     13  C   UNL     1      43.534   4.978  10.662  0.00  0.00    +0.000 C 
BRANCH  13  14
ATOM     14  C   UNL     1      44.493   5.809  11.450  0.00  0.00    +0.000 A 
ATOM     15  N   UNL     1      44.551   7.142  11.267  0.00  0.00    +0.000 NA
ATOM     16  N   UNL     1      45.521   7.536  12.120  0.00  0.00    +0.000 N 
ATOM     17  C   UNL     1      46.100   6.517  12.813  0.00  0.00    +0.000 A 
ATOM     18  N   UNL     1      47.093   6.627  13.717  0.00  0.00    +0.000 NA
ATOM     19  C   UNL     1      47.461   5.430  14.229  0.00  0.00    +0.000 A 
ATOM     20  C   UNL     1      46.921   4.195  13.885  0.00  0.00    +0.000 A 
ATOM     21  C   UNL     1      45.897   4.144  12.936  0.00  0.00    +0.000 A 
ATOM     22  C   UNL     1      45.464   5.361  12.389  0.00  0.00    +0.000 A 
ATOM     23  H   UNL     1      45.757   8.518  12.182  0.00  0.00    +0.000 HD
ENDBRANCH  13  14
ENDBRANCH   4  13
TORSDOF 5
ENDMDL
MODEL 3
REMARK VINA RESULT:    -7.772      1.704      2.037
REMARK INTER + INTRA:         -10.472
REMARK INTER:                  -9.848
REMARK INTRA:                  -0.624
REMARK UNBOUND:                -0.654
REMARK  Name = 
REMARK  5 active torsions:
REMARK  status: ('A' for Active; 'I' for Inactive)
REMARK    1  A    between atoms: N_1  and  C_2
REMARK    2  A    between atoms: C_2  and  C_3
REMARK    3  A    between atoms: C_3  and  C_4
REMARK    4  A    between atoms: C_7  and  C_8
REMARK    5  A    between atoms: C_8  and  C_9
REMARK                            x       y       z     vdW  Elec       q    Type
REMARK                         _______ _______ _______ _____ _____    ______ ____
ROOT
ATOM      1  C   UNL     1      45.866   2.553   8.293  0.00  0.00    +0.000 A 
ATOM      2  C   UNL     1      45.926   3.950   8.201  0.00  0.00    +0.000 A 
ATOM      3  C   UNL     1      45.144   4.754   9.036  0.00  0.00    +0.000 A 
ATOM      4  C   UNL     1      44.291   4.179   9.990  0.00  0.00    +0.000 A 
ATOM      5  C   UNL     1      44.227   2.786  10.061  0.00  0.00    +0.000 A 
ATOM      6  F   UNL     1      43.423   2.199  10.960  0.00  0.00    +0.000 F 
ATOM      7  C   UNL     1      45.001   1.976   9.230  0.00  0.00    +0.000 A 
ENDROOT
BRANCH   1   8
ATOM      8  C   UNL     1      46.745   1.686   7.423  0.00  0.00    +0.000 C 
BRANCH   8   9
ATOM      9  C   UNL     1      47.941   2.466   6.864  0.00  0.00    +0.000 C 
BRANCH   9  10
ATOM     10  N   UNL     1      48.503   1.805   5.687  0.00  0.00    +0.000 NA
ATOM     11  H   UNL     1      49.518   1.889   5.708  0.00  0.00    +0.000 HD
ATOM     12  H   UNL     1      48.196   2.288   4.843  0.00  0.00    +0.000 HD
ENDBRANCH   9  10
ENDBRANCH   8   9
ENDBRANCH   1   8
BRANCH   4  13
ATOM     13  C   UNL     1      43.492   5.041  10.933  0.00  0.00    +0.000 C 
BRANCH  13  14
ATOM     14  C   UNL     1      44.466   5.725  11.835  0.00  0.00    +0.000 A 
ATOM     15  N   UNL     1      45.121   5.031  12.786  0.00  0.00    +0.000 NA
ATOM     16  N   UNL     1      45.880   5.967  13.395  0.00  0.00    +0.000 N 
ATOM     17  C   UNL     1      45.717   7.225  12.898  0.00  0.00    +0.000 A 
ATOM     18  N   UNL     1      46.341   8.339  13.325  0.00  0.00    +0.000 NA
ATOM     19  C   UNL     1      45.962   9.441  12.636  0.00  0.00    +0.000 A 
ATOM     20  C   UNL     1      45.027   9.475  11.606  0.00  0.00    +0.000 A 
ATOM     21  C   UNL     1      44.409   8.287  11.211  0.00  0.00    +0.000 A 
ATOM     22  C   UNL     1      44.782   7.113  11.881  0.00  0.00    +0.000 A 
ATOM     23  H   UNL     1      46.487   5.693  14.157  0.00  0.00    +0.000 HD
ENDBRANCH  13  14
ENDBRANCH   4  13
TORSDOF 5
ENDMDL
MODEL 4
REMARK VINA RESULT:    -7.262      2.020      6.221
REMARK INTER + INTRA:          -9.827
REMARK INTER:                  -9.145
REMARK INTRA:                  -0.681
REMARK UNBOUND:                -0.654
REMARK  Name = 
REMARK  5 active torsions:
REMARK  status: ('A' for Active; 'I' for Inactive)
REMARK    1  A    between atoms: N_1  and  C_2
REMARK    2  A    between atoms: C_2  and  C_3
REMARK    3  A    between atoms: C_3  and  C_4
REMARK    4  A    between atoms: C_7  and  C_8
REMARK    5  A    between atoms: C_8  and  C_9
REMARK                            x       y       z     vdW  Elec       q    Type
REMARK                         _______ _______ _______ _____ _____    ______ ____
ROOT
ATOM      1  C   UNL     1      46.809   6.054  12.944  0.00  0.00    +0.000 A 
ATOM      2  C   UNL     1      46.897   6.530  11.629  0.00  0.00    +0.000 A 
ATOM      3  C   UNL     1      46.036   6.048  10.637  0.00  0.00    +0.000 A 
ATOM      4  C   UNL     1      45.060   5.087  10.941  0.00  0.00    +0.000 A 
ATOM      5  C   UNL     1      44.994   4.608  12.251  0.00  0.00    +0.000 A 
ATOM      6  F   UNL     1      44.075   3.687  12.580  0.00  0.00    +0.000 F 
ATOM      7  C   UNL     1      45.850   5.080  13.245  0.00  0.00    +0.000 A 
ENDROOT
BRANCH   1   8
ATOM      8  C   UNL     1      47.707   6.608  14.024  0.00  0.00    +0.000 C 
BRANCH   8   9
ATOM      9  C   UNL     1      47.962   8.109  13.840  0.00  0.00    +0.000 C 
BRANCH   9  10
ATOM     10  N   UNL     1      46.785   8.896  14.205  0.00  0.00    +0.000 NA
ATOM     11  H   UNL     1      46.942   9.334  15.113  0.00  0.00    +0.000 HD
ATOM     12  H   UNL     1      45.982   8.279  14.325  0.00  0.00    +0.000 HD
ENDBRANCH   9  10
ENDBRANCH   8   9
ENDBRANCH   1   8
BRANCH   4  13
ATOM     13  C   UNL     1      44.091   4.610   9.890  0.00  0.00    +0.000 C 
BRANCH  13  14
ATOM     14  C   UNL     1      44.615   3.315   9.363  0.00  0.00    +0.000 A 
ATOM     15  N   UNL     1      44.134   2.145   9.824  0.00  0.00    +0.000 NA
ATOM     16  N   UNL     1      44.843   1.220   9.142  0.00  0.00    +0.000 N 
ATOM     17  C   UNL     1      45.771   1.745   8.295  0.00  0.00    +0.000 A 
ATOM     18  N   UNL     1      46.615   1.053   7.506  0.00  0.00    +0.000 NA
ATOM     19  C   UNL     1      47.426   1.860   6.782  0.00  0.00    +0.000 A 
ATOM     20  C   UNL     1      47.439   3.250   6.822  0.00  0.00    +0.000 A 
ATOM     21  C   UNL     1      46.542   3.912   7.665  0.00  0.00    +0.000 A 
ATOM     22  C   UNL     1      45.666   3.121   8.422  0.00  0.00    +0.000 A 
ATOM     23  H   UNL     1      44.661   0.238   9.303  0.00  0.00    +0.000 HD
ENDBRANCH  13  14
ENDBRANCH   4  13
TORSDOF 5
ENDMDL
MODEL 5
REMARK VINA RESULT:    -7.099      2.327      6.376
REMARK INTER + INTRA:          -9.621
REMARK INTER:                  -9.030
REMARK INTRA:                  -0.590
REMARK UNBOUND:                -0.654
REMARK  Name = 
REMARK  5 active torsions:
REMARK  status: ('A' for Active; 'I' for Inactive)
REMARK    1  A    between atoms: N_1  and  C_2
REMARK    2  A    between atoms: C_2  and  C_3
REMARK    3  A    between atoms: C_3  and  C_4
REMARK    4  A    between atoms: C_7  and  C_8
REMARK    5  A    between atoms: C_8  and  C_9
REMARK                            x       y       z     vdW  Elec       q    Type
REMARK                         _______ _______ _______ _____ _____    ______ ____
ROOT
ATOM      1  C   UNL     1      46.993   6.878  13.250  0.00  0.00    +0.000 A 
ATOM      2  C   UNL     1      46.571   5.553  13.416  0.00  0.00    +0.000 A 
ATOM      3  C   UNL     1      45.435   5.078  12.753  0.00  0.00    +0.000 A 
ATOM      4  C   UNL     1      44.702   5.915  11.899  0.00  0.00    +0.000 A 
ATOM      5  C   UNL     1      45.123   7.239  11.754  0.00  0.00    +0.000 A 
ATOM      6  F   UNL     1      44.448   8.071  10.947  0.00  0.00    +0.000 F 
ATOM      7  C   UNL     1      46.253   7.722  12.414  0.00  0.00    +0.000 A 
ENDROOT
BRANCH   1   8
ATOM      8  C   UNL     1      48.247   7.377  13.930  0.00  0.00    +0.000 C 
BRANCH   8   9
ATOM      9  C   UNL     1      48.166   8.875  14.247  0.00  0.00    +0.000 C 
BRANCH   9  10
ATOM     10  N   UNL     1      47.507   9.111  15.531  0.00  0.00    +0.000 NA
ATOM     11  H   UNL     1      46.820   8.376  15.696  0.00  0.00    +0.000 HD
ATOM     12  H   UNL     1      46.982   9.985  15.492  0.00  0.00    +0.000 HD
ENDBRANCH   9  10
ENDBRANCH   8   9
ENDBRANCH   1   8
BRANCH   4  13
ATOM     13  C   UNL     1      43.514   5.392  11.134  0.00  0.00    +0.000 C 
BRANCH  13  14
ATOM     14  C   UNL     1      43.903   4.065  10.571  0.00  0.00    +0.000 A 
ATOM     15  N   UNL     1      43.430   2.927  11.115  0.00  0.00    +0.000 NA
ATOM     16  N   UNL     1      44.000   1.958  10.366  0.00  0.00    +0.000 N 
ATOM     17  C   UNL     1      44.832   2.424   9.394  0.00  0.00    +0.000 A 
ATOM     18  N   UNL     1      45.532   1.678   8.516  0.00  0.00    +0.000 NA
ATOM     19  C   UNL     1      46.278   2.433   7.676  0.00  0.00    +0.000 A 
ATOM     20  C   UNL     1      46.361   3.822   7.685  0.00  0.00    +0.000 A 
ATOM     21  C   UNL     1      45.616   4.540   8.623  0.00  0.00    +0.000 A 
ATOM     22  C   UNL     1      44.810   3.805   9.505  0.00  0.00    +0.000 A 
ATOM     23  H   UNL     1      43.794   0.989  10.570  0.00  0.00    +0.000 HD
ENDBRANCH  13  14
ENDBRANCH   4  13
TORSDOF 5
ENDMDL
MODEL 6
REMARK VINA RESULT:    -7.051      2.051      6.246
REMARK INTER + INTRA:          -9.560
REMARK INTER:                  -9.087
REMARK INTRA:                  -0.473
REMARK UNBOUND:                -0.654
REMARK  Name = 
REMARK  5 active torsions:
REMARK  status: ('A' for Active; 'I' for Inactive)
REMARK    1  A    between atoms: N_1  and  C_2
REMARK    2  A    between atoms: C_2  and  C_3
REMARK    3  A    between atoms: C_3  and  C_4
REMARK    4  A    between atoms: C_7  and  C_8
REMARK    5  A    between atoms: C_8  and  C_9
REMARK                            x       y       z     vdW  Elec       q    Type
REMARK                         _______ _______ _______ _____ _____    ______ ____
ROOT
ATOM      1  C   UNL     1      46.125   5.385  13.102  0.00  0.00    +0.000 A 
ATOM      2  C   UNL     1      45.007   4.541  13.122  0.00  0.00    +0.000 A 
ATOM      3  C   UNL     1      44.340   4.213  11.937  0.00  0.00    +0.000 A 
ATOM      4  C   UNL     1      44.784   4.713  10.703  0.00  0.00    +0.000 A 
ATOM      5  C   UNL     1      45.890   5.565  10.698  0.00  0.00    +0.000 A 
ATOM      6  F   UNL     1      46.344   6.065   9.539  0.00  0.00    +0.000 F 
ATOM      7  C   UNL     1      46.559   5.901  11.875  0.00  0.00    +0.000 A 
ENDROOT
BRANCH   1   8
ATOM      8  C   UNL     1      46.873   5.701  14.376  0.00  0.00    +0.000 C 
BRANCH   8   9
ATOM      9  C   UNL     1      47.069   4.454  15.247  0.00  0.00    +0.000 C 
BRANCH   9  10
ATOM     10  N   UNL     1      47.544   3.321  14.453  0.00  0.00    +0.000 NA
ATOM     11  H   UNL     1      48.293   2.848  14.957  0.00  0.00    +0.000 HD
ATOM     12  H   UNL     1      47.957   3.660  13.584  0.00  0.00    +0.000 HD
ENDBRANCH   9  10
ENDBRANCH   8   9
ENDBRANCH   1   8
BRANCH   4  13
ATOM     13  C   UNL     1      44.107   4.314   9.418  0.00  0.00    +0.000 C 
BRANCH  13  14
ATOM     14  C   UNL     1      44.758   3.055   8.950  0.00  0.00    +0.000 A 
ATOM     15  N   UNL     1      44.364   1.861   9.434  0.00  0.00    +0.000 NA
ATOM     16  N   UNL     1      45.174   0.982   8.805  0.00  0.00    +0.000 N 
ATOM     17  C   UNL     1      46.080   1.560   7.969  0.00  0.00    +0.000 A 
ATOM     18  N   UNL     1      47.006   0.920   7.229  0.00  0.00    +0.000 NA
ATOM     19  C   UNL     1      47.768   1.772   6.504  0.00  0.00    +0.000 A 
ATOM     20  C   UNL     1      47.659   3.159   6.499  0.00  0.00    +0.000 A 
ATOM     21  C   UNL     1      46.681   3.766   7.291  0.00  0.00    +0.000 A 
ATOM     22  C   UNL     1      45.852   2.924   8.048  0.00  0.00    +0.000 A 
ATOM     23  H   UNL     1      45.071  -0.007   8.992  0.00  0.00    +0.000 HD
ENDBRANCH  13  14
ENDBRANCH   4  13
TORSDOF 5
ENDMDL
MODEL 7
REMARK VINA RESULT:    -6.887      1.715      6.504
REMARK INTER + INTRA:          -9.353
REMARK INTER:                  -8.609
REMARK INTRA:                  -0.743
REMARK UNBOUND:                -0.654
REMARK  Name = 
REMARK  5 active torsions:
REMARK  status: ('A' for Active; 'I' for Inactive)
REMARK    1  A    between atoms: N_1  and  C_2
REMARK    2  A    between atoms: C_2  and  C_3
REMARK    3  A    between atoms: C_3  and  C_4
REMARK    4  A    between atoms: C_7  and  C_8
REMARK    5  A    between atoms: C_8  and  C_9
REMARK                            x       y       z     vdW  Elec       q    Type
REMARK                         _______ _______ _______ _____ _____    ______ ____
ROOT
ATOM      1  C   UNL     1      45.967   4.776  13.169  0.00  0.00    +0.000 A 
ATOM      2  C   UNL     1      46.294   5.749  12.215  0.00  0.00    +0.000 A 
ATOM      3  C   UNL     1      45.858   5.626  10.892  0.00  0.00    +0.000 A 
ATOM      4  C   UNL     1      45.074   4.532  10.495  0.00  0.00    +0.000 A 
ATOM      5  C   UNL     1      44.769   3.561  11.451  0.00  0.00    +0.000 A 
ATOM      6  F   UNL     1      44.023   2.499  11.110  0.00  0.00    +0.000 F 
ATOM      7  C   UNL     1      45.203   3.673  12.771  0.00  0.00    +0.000 A 
ENDROOT
BRANCH   1   8
ATOM      8  C   UNL     1      46.399   4.933  14.608  0.00  0.00    +0.000 C 
BRANCH   8   9
ATOM      9  C   UNL     1      47.331   3.798  15.051  0.00  0.00    +0.000 C 
BRANCH   9  10
ATOM     10  N   UNL     1      47.110   3.446  16.452  0.00  0.00    +0.000 NA
ATOM     11  H   UNL     1      46.935   4.295  16.988  0.00  0.00    +0.000 HD
ATOM     12  H   UNL     1      47.958   3.035  16.842  0.00  0.00    +0.000 HD
ENDBRANCH   9  10
ENDBRANCH   8   9
ENDBRANCH   1   8
BRANCH   4  13
ATOM     13  C   UNL     1      44.550   4.426   9.086  0.00  0.00    +0.000 C 
BRANCH  13  14
ATOM     14  C   UNL     1      45.669   3.921   8.238  0.00  0.00    +0.000 A 
ATOM     15  N   UNL     1      46.423   4.777   7.520  0.00  0.00    +0.000 NA
ATOM     16  N   UNL     1      47.299   3.970   6.884  0.00  0.00    +0.000 N 
ATOM     17  C   UNL     1      47.121   2.644   7.139  0.00  0.00    +0.000 A 
ATOM     18  N   UNL     1      47.846   1.629   6.632  0.00  0.00    +0.000 NA
ATOM     19  C   UNL     1      47.419   0.420   7.068  0.00  0.00    +0.000 A 
ATOM     20  C   UNL     1      46.350   0.196   7.930  0.00  0.00    +0.000 A 
ATOM     21  C   UNL     1      45.632   1.291   8.419  0.00  0.00    +0.000 A 
ATOM     22  C   UNL     1      46.047   2.567   8.012  0.00  0.00    +0.000 A 
ATOM     23  H   UNL     1      47.996   4.379   6.275  0.00  0.00    +0.000 HD
ENDBRANCH  13  14
ENDBRANCH   4  13
TORSDOF 5
ENDMDL
MODEL 8
REMARK VINA RESULT:    -6.847      1.947      5.923
REMARK INTER + INTRA:          -9.303
REMARK INTER:                  -8.716
REMARK INTRA:                  -0.588
REMARK UNBOUND:                -0.654
REMARK  Name = 
REMARK  5 active torsions:
REMARK  status: ('A' for Active; 'I' for Inactive)
REMARK    1  A    between atoms: N_1  and  C_2
REMARK    2  A    between atoms: C_2  and  C_3
REMARK    3  A    between atoms: C_3  and  C_4
REMARK    4  A    between atoms: C_7  and  C_8
REMARK    5  A    between atoms: C_8  and  C_9
REMARK                            x       y       z     vdW  Elec       q    Type
REMARK                         _______ _______ _______ _____ _____    ______ ____
ROOT
ATOM      1  C   UNL     1      46.842   7.227  13.002  0.00  0.00    +0.000 A 
ATOM      2  C   UNL     1      46.217   7.785  11.880  0.00  0.00    +0.000 A 
ATOM      3  C   UNL     1      45.129   7.144  11.277  0.00  0.00    +0.000 A 
ATOM      4  C   UNL     1      44.635   5.936  11.792  0.00  0.00    +0.000 A 
ATOM      5  C   UNL     1      45.277   5.381  12.901  0.00  0.00    +0.000 A 
ATOM      6  F   UNL     1      44.835   4.227  13.422  0.00  0.00    +0.000 F 
ATOM      7  C   UNL     1      46.365   6.012  13.506  0.00  0.00    +0.000 A 
ENDROOT
BRANCH   1   8
ATOM      8  C   UNL     1      47.987   7.943  13.680  0.00  0.00    +0.000 C 
BRANCH   8   9
ATOM      9  C   UNL     1      49.261   7.089  13.702  0.00  0.00    +0.000 C 
BRANCH   9  10
ATOM     10  N   UNL     1      49.546   6.597  15.049  0.00  0.00    +0.000 NA
ATOM     11  H   UNL     1      49.524   5.578  15.046  0.00  0.00    +0.000 HD
ATOM     12  H   UNL     1      48.808   6.894  15.688  0.00  0.00    +0.000 HD
ENDBRANCH   9  10
ENDBRANCH   8   9
ENDBRANCH   1   8
BRANCH   4  13
ATOM     13  C   UNL     1      43.426   5.273  11.185  0.00  0.00    +0.000 C 
BRANCH  13  14
ATOM     14  C   UNL     1      43.887   3.992  10.572  0.00  0.00    +0.000 A 
ATOM     15  N   UNL     1      43.469   2.810  11.064  0.00  0.00    +0.000 NA
ATOM     16  N   UNL     1      44.094   1.903  10.282  0.00  0.00    +0.000 N 
ATOM     17  C   UNL     1      44.911   2.450   9.340  0.00  0.00    +0.000 A 
ATOM     18  N   UNL     1      45.656   1.779   8.441  0.00  0.00    +0.000 NA
ATOM     19  C   UNL     1      46.371   2.605   7.641  0.00  0.00    +0.000 A 
ATOM     20  C   UNL     1      46.383   3.994   7.708  0.00  0.00    +0.000 A 
ATOM     21  C   UNL     1      45.593   4.634   8.666  0.00  0.00    +0.000 A 
ATOM     22  C   UNL     1      44.817   3.823   9.507  0.00  0.00    +0.000 A 
ATOM     23  H   UNL     1      43.936   0.917  10.444  0.00  0.00    +0.000 HD
ENDBRANCH  13  14
ENDBRANCH   4  13
TORSDOF 5
ENDMDL
MODEL 9
REMARK VINA RESULT:    -5.763      2.913      3.471
REMARK INTER + INTRA:          -7.934
REMARK INTER:                  -7.934
REMARK INTRA:                   0.001
REMARK UNBOUND:                -0.654
REMARK  Name = 
REMARK  5 active torsions:
REMARK  status: ('A' for Active; 'I' for Inactive)
REMARK    1  A    between atoms: N_1  and  C_2
REMARK    2  A    between atoms: C_2  and  C_3
REMARK    3  A    between atoms: C_3  and  C_4
REMARK    4  A    between atoms: C_7  and  C_8
REMARK    5  A    between atoms: C_8  and  C_9
REMARK                            x       y       z     vdW  Elec       q    Type
REMARK                         _______ _______ _______ _____ _____    ______ ____
ROOT
ATOM      1  C   UNL     1      45.647   3.372   7.920  0.00  0.00    +0.000 A 
ATOM      2  C   UNL     1      44.844   2.669   8.828  0.00  0.00    +0.000 A 
ATOM      3  C   UNL     1      44.579   3.192  10.099  0.00  0.00    +0.000 A 
ATOM      4  C   UNL     1      45.102   4.435  10.485  0.00  0.00    +0.000 A 
ATOM      5  C   UNL     1      45.914   5.118   9.578  0.00  0.00    +0.000 A 
ATOM      6  F   UNL     1      46.434   6.309   9.911  0.00  0.00    +0.000 F 
ATOM      7  C   UNL     1      46.187   4.603   8.311  0.00  0.00    +0.000 A 
ENDROOT
BRANCH   1   8
ATOM      8  C   UNL     1      45.895   2.830   6.533  0.00  0.00    +0.000 C 
BRANCH   8   9
ATOM      9  C   UNL     1      47.393   2.711   6.225  0.00  0.00    +0.000 C 
BRANCH   9  10
ATOM     10  N   UNL     1      47.910   1.398   6.605  0.00  0.00    +0.000 NA
ATOM     11  H   UNL     1      48.868   1.304   6.269  0.00  0.00    +0.000 HD
ATOM     12  H   UNL     1      47.374   0.668   6.136  0.00  0.00    +0.000 HD
ENDBRANCH   9  10
ENDBRANCH   8   9
ENDBRANCH   1   8
BRANCH   4  13
ATOM     13  C   UNL     1      44.769   5.030  11.829  0.00  0.00    +0.000 C 
BRANCH  13  14
ATOM     14  C   UNL     1      44.182   6.380  11.579  0.00  0.00    +0.000 A 
ATOM     15  N   UNL     1      42.956   6.501  11.033  0.00  0.00    +0.000 NA
ATOM     16  N   UNL     1      42.778   7.836  10.947  0.00  0.00    +0.000 N 
ATOM     17  C   UNL     1      43.841   8.568  11.383  0.00  0.00    +0.000 A 
ATOM     18  N   UNL     1      43.932   9.912  11.401  0.00  0.00    +0.000 NA
ATOM     19  C   UNL     1      45.121  10.343  11.885  0.00  0.00    +0.000 A 
ATOM     20  C   UNL     1      46.167   9.533  12.314  0.00  0.00    +0.000 A 
ATOM     21  C   UNL     1      46.015   8.146  12.268  0.00  0.00    +0.000 A 
ATOM     22  C   UNL     1      44.793   7.648  11.792  0.00  0.00    +0.000 A 
ATOM     23  H   UNL     1      41.911   8.197  10.571  0.00  0.00    +0.000 HD
ENDBRANCH  13  14
ENDBRANCH   4  13
TORSDOF 5
ENDMDL
