MODEL 1
REMARK VINA RESULT:    -7.722      0.000      0.000
REMARK INTER + INTRA:          -9.488
REMARK INTER:                  -9.527
REMARK INTRA:                   0.040
REMARK UNBOUND:                 0.040
REMARK  Name = 
REMARK  4 active torsions:
REMARK  status: ('A' for Active; 'I' for Inactive)
REMARK    1  A    between atoms: C_2  and  C_4
REMARK    2  A    between atoms: C_8  and  C_9
REMARK    3  A    between atoms: C_9  and  C_10
REMARK    4  A    between atoms: C_10  and  C_11
REMARK                            x       y       z     vdW  Elec       q    Type
REMARK                         _______ _______ _______ _____ _____    ______ ____
ROOT
ATOM      1  C   UNL     1      46.104   2.244   8.101  0.00  0.00    +0.000 A 
ATOM      2  C   UNL     1      46.028   3.374   7.330  0.00  0.00    +0.000 A 
ATOM      3  N   UNL     1      45.322   4.427   7.761  0.00  0.00    +0.000 NA
ATOM      4  N   UNL     1      44.702   4.333   8.969  0.00  0.00    +0.000 NA
ATOM      5  C   UNL     1      44.756   3.186   9.682  0.00  0.00    +0.000 A 
ATOM      6  N   UNL     1      45.467   2.108   9.296  0.00  0.00    +0.000 NA
ENDROOT
BRANCH   1   8
ATOM      7  N   UNL     1      48.072   1.443   6.936  0.00  0.00    +0.000 N 
ATOM      8  C   UNL     1      46.948   1.109   7.643  0.00  0.00    +0.000 C 
ATOM      9  O   UNL     1      46.649  -0.056   7.865  0.00  0.00    +0.000 OA
ATOM     10  H   UNL     1      48.659   0.708   6.565  0.00  0.00    +0.000 HD
ATOM     11  H   UNL     1      48.283   2.413   6.733  0.00  0.00    +0.000 HD
ENDBRANCH   1   8
BRANCH   5  12
ATOM     12  C   UNL     1      44.140   3.140  11.057  0.00  0.00    +0.000 C 
BRANCH  12  13
ATOM     13  C   UNL     1      44.040   4.421  11.895  0.00  0.00    +0.000 C 
ATOM     14  C   UNL     1      42.930   4.571  12.925  0.00  0.00    +0.000 C 
ATOM     15  C   UNL     1      42.936   5.459  11.714  0.00  0.00    +0.000 C 
BRANCH  13  16
ATOM     16  C   UNL     1      45.428   4.982  12.198  0.00  0.00    +0.000 A 
ATOM     17  C   UNL     1      45.931   6.128  11.567  0.00  0.00    +0.000 A 
ATOM     18  C   UNL     1      47.141   6.685  11.975  0.00  0.00    +0.000 A 
ATOM     19  C   UNL     1      47.830   6.078  13.009  0.00  0.00    +0.000 A 
ATOM     20  N   UNL     1      47.408   4.959  13.631  0.00  0.00    +0.000 NA
ATOM     21  C   UNL     1      46.231   4.443  13.208  0.00  0.00    +0.000 A 
ENDBRANCH  13  16
ENDBRANCH  12  13
ENDBRANCH   5  12
TORSDOF 4
ENDMDL
MODEL 2
REMARK VINA RESULT:    -7.671      1.376      1.855
REMARK INTER + INTRA:          -9.426
REMARK INTER:                  -9.077
REMARK INTRA:                  -0.349
REMARK UNBOUND:                 0.040
REMARK  Name = 
REMARK  4 active torsions:
REMARK  status: ('A' for Active; 'I' for Inactive)
REMARK    1  A    between atoms: C_2  and  C_4
REMARK    2  A    between atoms: C_8  and  C_9
REMARK    3  A    between atoms: C_9  and  C_10
REMARK    4  A    between atoms: C_10  and  C_11
REMARK                            x       y       z     vdW  Elec       q    Type
REMARK                         _______ _______ _______ _____ _____    ______ ____
ROOT
ATOM      1  C   UNL     1      46.534   2.544   7.283  0.00  0.00    +0.000 A 
ATOM      2  C   UNL     1      46.417   1.278   7.794  0.00  0.00    +0.000 A 
ATOM      3  N   UNL     1      45.587   1.049   8.820  0.00  0.00    +0.000 NA
ATOM      4  N   UNL     1      44.878   2.099   9.319  0.00  0.00    +0.000 NA
ATOM      5  C   UNL     1      45.055   3.344   8.824  0.00  0.00    +0.000 A 
ATOM      6  N   UNL     1      45.865   3.618   7.782  0.00  0.00    +0.000 NA
ENDROOT
BRANCH   1   8
ATOM      7  N   UNL     1      48.738   2.514   6.276  0.00  0.00    +0.000 N 
ATOM      8  C   UNL     1      47.404   2.769   6.099  0.00  0.00    +0.000 C 
ATOM      9  O   UNL     1      46.962   3.178   5.034  0.00  0.00    +0.000 OA
ATOM     10  H   UNL     1      49.380   2.691   5.516  0.00  0.00    +0.000 HD
ATOM     11  H   UNL     1      49.089   2.210   7.176  0.00  0.00    +0.000 HD
ENDBRANCH   1   8
BRANCH   5  12
ATOM     12  C   UNL     1      44.190   4.470   9.330  0.00  0.00    +0.000 C 
BRANCH  12  13
ATOM     13  C   UNL     1      44.006   4.676  10.839  0.00  0.00    +0.000 C 
ATOM     14  C   UNL     1      43.071   3.767  11.622  0.00  0.00    +0.000 C 
ATOM     15  C   UNL     1      42.722   5.219  11.462  0.00  0.00    +0.000 C 
BRANCH  13  16
ATOM     16  C   UNL     1      45.305   5.155  11.485  0.00  0.00    +0.000 A 
ATOM     17  C   UNL     1      46.007   6.276  11.024  0.00  0.00    +0.000 A 
ATOM     18  C   UNL     1      47.107   6.760  11.728  0.00  0.00    +0.000 A 
ATOM     19  C   UNL     1      47.489   6.104  12.884  0.00  0.00    +0.000 A 
ATOM     20  N   UNL     1      46.869   5.005  13.358  0.00  0.00    +0.000 NA
ATOM     21  C   UNL     1      45.806   4.561  12.648  0.00  0.00    +0.000 A 
ENDBRANCH  13  16
ENDBRANCH  12  13
ENDBRANCH   5  12
TORSDOF 4
ENDMDL
MODEL 3
REMARK VINA RESULT:    -7.105      3.338      6.664
REMARK INTER + INTRA:          -8.727
REMARK INTER:                  -8.589
REMARK INTRA:                  -0.138
REMARK UNBOUND:                 0.040
REMARK  Name = 
REMARK  4 active torsions:
REMARK  status: ('A' for Active; 'I' for Inactive)
REMARK    1  A    between atoms: C_2  and  C_4
REMARK    2  A    between atoms: C_8  and  C_9
REMARK    3  A    between atoms: C_9  and  C_10
REMARK    4  A    between atoms: C_10  and  C_11
REMARK                            x       y       z     vdW  Elec       q    Type
REMARK                         _______ _______ _______ _____ _____    ______ ____
ROOT
ATOM      1  C   UNL     1      47.596   4.728  16.284  0.00  0.00    +0.000 A 
ATOM      2  C   UNL     1      48.420   5.736  15.854  0.00  0.00    +0.000 A 
ATOM      3  N   UNL     1      48.476   6.039  14.552  0.00  0.00    +0.000 NA
ATOM      4  N   UNL     1      47.697   5.327  13.692  0.00  0.00    +0.000 NA
ATOM      5  C   UNL     1      46.934   4.307  14.143  0.00  0.00    +0.000 A 
ATOM      6  N   UNL     1      46.833   3.977  15.446  0.00  0.00    +0.000 NA
ENDROOT
BRANCH   1   8
ATOM      7  N   UNL     1      46.727   5.324  18.467  0.00  0.00    +0.000 N 
ATOM      8  C   UNL     1      47.491   4.450  17.741  0.00  0.00    +0.000 C 
ATOM      9  O   UNL     1      48.068   3.508  18.266  0.00  0.00    +0.000 OA
ATOM     10  H   UNL     1      46.657   5.205  19.468  0.00  0.00    +0.000 HD
ATOM     11  H   UNL     1      46.287   6.118  18.018  0.00  0.00    +0.000 HD
ENDBRANCH   1   8
BRANCH   5  12
ATOM     12  C   UNL     1      46.011   3.595  13.186  0.00  0.00    +0.000 C 
BRANCH  12  13
ATOM     13  C   UNL     1      44.959   4.390  12.403  0.00  0.00    +0.000 C 
ATOM     14  C   UNL     1      44.538   5.772  12.882  0.00  0.00    +0.000 C 
ATOM     15  C   UNL     1      43.545   4.646  12.919  0.00  0.00    +0.000 C 
BRANCH  13  16
ATOM     16  C   UNL     1      45.073   4.116  10.905  0.00  0.00    +0.000 A 
ATOM     17  C   UNL     1      44.640   2.918  10.323  0.00  0.00    +0.000 A 
ATOM     18  C   UNL     1      44.633   2.766   8.939  0.00  0.00    +0.000 A 
ATOM     19  C   UNL     1      45.068   3.822   8.158  0.00  0.00    +0.000 A 
ATOM     20  N   UNL     1      45.523   4.986   8.665  0.00  0.00    +0.000 NA
ATOM     21  C   UNL     1      45.518   5.098  10.014  0.00  0.00    +0.000 A 
ENDBRANCH  13  16
ENDBRANCH  12  13
ENDBRANCH   5  12
TORSDOF 4
ENDMDL
MODEL 4
REMARK VINA RESULT:    -6.740      2.609      5.633
REMARK INTER + INTRA:          -8.277
REMARK INTER:                  -8.058
REMARK INTRA:                  -0.218
REMARK UNBOUND:                 0.040
REMARK  Name = 
REMARK  4 active torsions:
REMARK  status: ('A' for Active; 'I' for Inactive)
REMARK    1  A    between atoms: C_2  and  C_4
REMARK    2  A    between atoms: C_8  and  C_9
REMARK    3  A    between atoms: C_9  and  C_10
REMARK    4  A    between atoms: C_10  and  C_11
REMARK                            x       y       z     vdW  Elec       q    Type
REMARK                         _______ _______ _______ _____ _____    ______ ____
ROOT
ATOM      1  C   UNL     1      47.801   6.225  13.186  0.00  0.00    +0.000 A 
ATOM      2  C   UNL     1      48.160   5.939  14.477  0.00  0.00    +0.000 A 
ATOM      3  N   UNL     1      47.518   4.975  15.149  0.00  0.00    +0.000 NA
ATOM      4  N   UNL     1      46.521   4.304  14.510  0.00  0.00    +0.000 NA
ATOM      5  C   UNL     1      46.158   4.645  13.254  0.00  0.00    +0.000 A 
ATOM      6  N   UNL     1      46.787   5.596  12.535  0.00  0.00    +0.000 NA
ENDROOT
BRANCH   1   8
ATOM      7  N   UNL     1      49.934   7.162  12.515  0.00  0.00    +0.000 N 
ATOM      8  C   UNL     1      48.570   7.249  12.430  0.00  0.00    +0.000 C 
ATOM      9  O   UNL     1      48.020   8.131  11.786  0.00  0.00    +0.000 OA
ATOM     10  H   UNL     1      50.503   7.858  12.054  0.00  0.00    +0.000 HD
ATOM     11  H   UNL     1      50.369   6.445  13.083  0.00  0.00    +0.000 HD
ENDBRANCH   1   8
BRANCH   5  12
ATOM     12  C   UNL     1      45.116   3.825  12.537  0.00  0.00    +0.000 C 
BRANCH  12  13
ATOM     13  C   UNL     1      44.361   4.421  11.343  0.00  0.00    +0.000 C 
ATOM     14  C   UNL     1      43.886   5.866  11.387  0.00  0.00    +0.000 C 
ATOM     15  C   UNL     1      42.872   4.758  11.374  0.00  0.00    +0.000 C 
BRANCH  13  16
ATOM     16  C   UNL     1      44.876   3.839  10.028  0.00  0.00    +0.000 A 
ATOM     17  C   UNL     1      45.444   4.634   9.024  0.00  0.00    +0.000 A 
ATOM     18  C   UNL     1      46.029   4.047   7.904  0.00  0.00    +0.000 A 
ATOM     19  C   UNL     1      46.029   2.667   7.808  0.00  0.00    +0.000 A 
ATOM     20  N   UNL     1      45.472   1.855   8.729  0.00  0.00    +0.000 NA
ATOM     21  C   UNL     1      44.910   2.459   9.803  0.00  0.00    +0.000 A 
ENDBRANCH  13  16
ENDBRANCH  12  13
ENDBRANCH   5  12
TORSDOF 4
ENDMDL
MODEL 5
REMARK VINA RESULT:    -6.364      3.447      6.627
REMARK INTER + INTRA:          -7.813
REMARK INTER:                  -7.757
REMARK INTRA:                  -0.056
REMARK UNBOUND:                 0.040
REMARK  Name = 
REMARK  4 active torsions:
REMARK  status: ('A' for Active; 'I' for Inactive)
REMARK    1  A    between atoms: C_2  and  C_4
REMARK    2  A    between atoms: C_8  and  C_9
REMARK    3  A    between atoms: C_9  and  C_10
REMARK    4  A    between atoms: C_10  and  C_11
REMARK                            x       y       z     vdW  Elec       q    Type
REMARK                         _______ _______ _______ _____ _____    ______ ____
ROOT
ATOM      1  C   UNL     1      47.907   4.904  15.994  0.00  0.00    +0.000 A 
ATOM      2  C   UNL     1      47.854   3.536  16.051  0.00  0.00    +0.000 A 
ATOM      3  N   UNL     1      47.506   2.838  14.963  0.00  0.00    +0.000 NA
ATOM      4  N   UNL     1      47.218   3.526  13.823  0.00  0.00    +0.000 NA
ATOM      5  C   UNL     1      47.231   4.877  13.815  0.00  0.00    +0.000 A 
ATOM      6  N   UNL     1      47.592   5.620  14.881  0.00  0.00    +0.000 NA
ENDROOT
BRANCH   1   8
ATOM      7  N   UNL     1      48.387   7.026  17.063  0.00  0.00    +0.000 N 
ATOM      8  C   UNL     1      48.363   5.662  17.189  0.00  0.00    +0.000 C 
ATOM      9  O   UNL     1      48.716   5.104  18.218  0.00  0.00    +0.000 OA
ATOM     10  H   UNL     1      48.729   7.587  17.831  0.00  0.00    +0.000 HD
ATOM     11  H   UNL     1      48.124   7.467  16.190  0.00  0.00    +0.000 HD
ENDBRANCH   1   8
BRANCH   5  12
ATOM     12  C   UNL     1      47.000   5.611  12.519  0.00  0.00    +0.000 C 
BRANCH  12  13
ATOM     13  C   UNL     1      45.573   5.813  11.997  0.00  0.00    +0.000 C 
ATOM     14  C   UNL     1      44.949   7.201  12.008  0.00  0.00    +0.000 C 
ATOM     15  C   UNL     1      44.386   6.134  12.902  0.00  0.00    +0.000 C 
BRANCH  13  16
ATOM     16  C   UNL     1      45.279   4.866  10.835  0.00  0.00    +0.000 A 
ATOM     17  C   UNL     1      45.562   5.196   9.504  0.00  0.00    +0.000 A 
ATOM     18  C   UNL     1      45.410   4.249   8.493  0.00  0.00    +0.000 A 
ATOM     19  C   UNL     1      44.968   2.984   8.837  0.00  0.00    +0.000 A 
ATOM     20  N   UNL     1      44.653   2.621  10.097  0.00  0.00    +0.000 NA
ATOM     21  C   UNL     1      44.811   3.566  11.053  0.00  0.00    +0.000 A 
ENDBRANCH  13  16
ENDBRANCH  12  13
ENDBRANCH   5  12
TORSDOF 4
ENDMDL
MODEL 6
REMARK VINA RESULT:    -6.312      2.250      4.063
REMARK INTER + INTRA:          -7.749
REMARK INTER:                  -7.812
REMARK INTRA:                   0.063
REMARK UNBOUND:                 0.040
REMARK  Name = 
REMARK  4 active torsions:
REMARK  status: ('A' for Active; 'I' for Inactive)
REMARK    1  A    between atoms: C_2  and  C_4
REMARK    2  A    between atoms: C_8  and  C_9
REMARK    3  A    between atoms: C_9  and  C_10
REMARK    4  A    between atoms: C_10  and  C_11
REMARK                            x       y       z     vdW  Elec       q    Type
REMARK                         _______ _______ _______ _____ _____    ______ ____
ROOT
ATOM      1  C   UNL     1      44.528   3.471  10.772  0.00  0.00    +0.000 A 
ATOM      2  C   UNL     1      43.682   2.712  11.536  0.00  0.00    +0.000 A 
ATOM      3  N   UNL     1      43.402   3.085  12.791  0.00  0.00    +0.000 NA
ATOM      4  N   UNL     1      43.975   4.225  13.265  0.00  0.00    +0.000 NA
ATOM      5  C   UNL     1      44.844   4.925  12.502  0.00  0.00    +0.000 A 
ATOM      6  N   UNL     1      45.142   4.596  11.229  0.00  0.00    +0.000 NA
ENDROOT
BRANCH   1   8
ATOM      7  N   UNL     1      44.187   3.873   8.407  0.00  0.00    +0.000 N 
ATOM      8  C   UNL     1      44.774   3.083   9.358  0.00  0.00    +0.000 C 
ATOM      9  O   UNL     1      45.444   2.105   9.059  0.00  0.00    +0.000 OA
ATOM     10  H   UNL     1      44.287   3.629   7.431  0.00  0.00    +0.000 HD
ATOM     11  H   UNL     1      43.606   4.659   8.676  0.00  0.00    +0.000 HD
ENDBRANCH   1   8
BRANCH   5  12
ATOM     12  C   UNL     1      45.392   6.232  13.015  0.00  0.00    +0.000 C 
BRANCH  12  13
ATOM     13  C   UNL     1      46.893   6.380  13.289  0.00  0.00    +0.000 C 
ATOM     14  C   UNL     1      47.538   7.757  13.267  0.00  0.00    +0.000 C 
ATOM     15  C   UNL     1      47.910   6.754  12.213  0.00  0.00    +0.000 C 
BRANCH  13  16
ATOM     16  C   UNL     1      47.364   5.344  14.308  0.00  0.00    +0.000 A 
ATOM     17  C   UNL     1      47.774   5.693  15.601  0.00  0.00    +0.000 A 
ATOM     18  C   UNL     1      48.060   4.707  16.542  0.00  0.00    +0.000 A 
ATOM     19  C   UNL     1      47.934   3.381  16.166  0.00  0.00    +0.000 A 
ATOM     20  N   UNL     1      47.572   2.989  14.928  0.00  0.00    +0.000 NA
ATOM     21  C   UNL     1      47.304   3.973  14.039  0.00  0.00    +0.000 A 
ENDBRANCH  13  16
ENDBRANCH  12  13
ENDBRANCH   5  12
TORSDOF 4
ENDMDL
MODEL 7
REMARK VINA RESULT:    -6.158      3.974      6.484
REMARK INTER + INTRA:          -7.558
REMARK INTER:                  -7.448
REMARK INTRA:                  -0.110
REMARK UNBOUND:                 0.040
REMARK  Name = 
REMARK  4 active torsions:
REMARK  status: ('A' for Active; 'I' for Inactive)
REMARK    1  A    between atoms: C_2  and  C_4
REMARK    2  A    between atoms: C_8  and  C_9
REMARK    3  A    between atoms: C_9  and  C_10
REMARK    4  A    between atoms: C_10  and  C_11
REMARK                            x       y       z     vdW  Elec       q    Type
REMARK                         _______ _______ _______ _____ _____    ______ ____
ROOT
ATOM      1  C   UNL     1      47.880   4.686  15.944  0.00  0.00    +0.000 A 
ATOM      2  C   UNL     1      48.439   5.761  16.584  0.00  0.00    +0.000 A 
ATOM      3  N   UNL     1      48.644   6.902  15.914  0.00  0.00    +0.000 NA
ATOM      4  N   UNL     1      48.279   6.952  14.604  0.00  0.00    +0.000 NA
ATOM      5  C   UNL     1      47.777   5.858  13.989  0.00  0.00    +0.000 A 
ATOM      6  N   UNL     1      47.537   4.695  14.627  0.00  0.00    +0.000 NA
ENDROOT
BRANCH   1   8
ATOM      7  N   UNL     1      48.598   2.520  16.760  0.00  0.00    +0.000 N 
ATOM      8  C   UNL     1      47.593   3.450  16.718  0.00  0.00    +0.000 C 
ATOM      9  O   UNL     1      46.518   3.262  17.269  0.00  0.00    +0.000 OA
ATOM     10  H   UNL     1      48.440   1.643  17.237  0.00  0.00    +0.000 HD
ATOM     11  H   UNL     1      49.468   2.680  16.267  0.00  0.00    +0.000 HD
ENDBRANCH   1   8
BRANCH   5  12
ATOM     12  C   UNL     1      47.294   5.966  12.565  0.00  0.00    +0.000 C 
BRANCH  12  13
ATOM     13  C   UNL     1      45.870   6.454  12.273  0.00  0.00    +0.000 C 
ATOM     14  C   UNL     1      45.652   7.739  11.488  0.00  0.00    +0.000 C 
ATOM     15  C   UNL     1      45.252   7.684  12.934  0.00  0.00    +0.000 C 
BRANCH  13  16
ATOM     16  C   UNL     1      44.923   5.274  12.063  0.00  0.00    +0.000 A 
ATOM     17  C   UNL     1      44.582   4.799  10.790  0.00  0.00    +0.000 A 
ATOM     18  C   UNL     1      43.830   3.635  10.648  0.00  0.00    +0.000 A 
ATOM     19  C   UNL     1      43.427   2.968  11.791  0.00  0.00    +0.000 A 
ATOM     20  N   UNL     1      43.701   3.395  13.039  0.00  0.00    +0.000 NA
ATOM     21  C   UNL     1      44.432   4.530  13.141  0.00  0.00    +0.000 A 
ENDBRANCH  13  16
ENDBRANCH  12  13
ENDBRANCH   5  12
TORSDOF 4
ENDMDL
MODEL 8
REMARK VINA RESULT:    -5.902      2.771      4.630
REMARK INTER + INTRA:          -7.242
REMARK INTER:                  -7.033
REMARK INTRA:                  -0.209
REMARK UNBOUND:                 0.040
REMARK  Name = 
REMARK  4 active torsions:
REMARK  status: ('A' for Active; 'I' for Inactive)
REMARK    1  A    between atoms: C_2  and  C_4
REMARK    2  A    between atoms: C_8  and  C_9
REMARK    3  A    between atoms: C_9  and  C_10
REMARK    4  A    between atoms: C_10  and  C_11
REMARK                            x       y       z     vdW  Elec       q    Type
REMARK                         _______ _______ _______ _____ _____    ______ ____
ROOT
ATOM      1  C   UNL     1      44.658   3.935  10.851  0.00  0.00    +0.000 A 
ATOM      2  C   UNL     1      44.045   3.222  11.847  0.00  0.00    +0.000 A 
ATOM      3  N   UNL     1      43.937   3.750  13.073  0.00  0.00    +0.000 NA
ATOM      4  N   UNL     1      44.445   4.996  13.282  0.00  0.00    +0.000 NA
ATOM      5  C   UNL     1      45.087   5.651  12.290  0.00  0.00    +0.000 A 
ATOM      6  N   UNL     1      45.205   5.166  11.038  0.00  0.00    +0.000 NA
ENDROOT
BRANCH   1   8
ATOM      7  N   UNL     1      44.162   4.136   8.487  0.00  0.00    +0.000 N 
ATOM      8  C   UNL     1      44.708   3.365   9.478  0.00  0.00    +0.000 C 
ATOM      9  O   UNL     1      45.190   2.265   9.247  0.00  0.00    +0.000 OA
ATOM     10  H   UNL     1      44.132   3.778   7.542  0.00  0.00    +0.000 HD
ATOM     11  H   UNL     1      43.736   5.029   8.705  0.00  0.00    +0.000 HD
ENDBRANCH   1   8
BRANCH   5  12
ATOM     12  C   UNL     1      45.557   7.065  12.521  0.00  0.00    +0.000 C 
BRANCH  12  13
ATOM     13  C   UNL     1      47.035   7.342  12.819  0.00  0.00    +0.000 C 
ATOM     14  C   UNL     1      48.043   6.203  12.792  0.00  0.00    +0.000 C 
ATOM     15  C   UNL     1      47.735   6.882  14.095  0.00  0.00    +0.000 C 
BRANCH  13  16
ATOM     16  C   UNL     1      47.444   8.721  12.304  0.00  0.00    +0.000 A 
ATOM     17  C   UNL     1      48.716   8.982  11.778  0.00  0.00    +0.000 A 
ATOM     18  C   UNL     1      48.999  10.213  11.192  0.00  0.00    +0.000 A 
ATOM     19  C   UNL     1      47.999  11.167  11.148  0.00  0.00    +0.000 A 
ATOM     20  N   UNL     1      46.768  10.981  11.664  0.00  0.00    +0.000 NA
ATOM     21  C   UNL     1      46.527   9.775  12.228  0.00  0.00    +0.000 A 
ENDBRANCH  13  16
ENDBRANCH  12  13
ENDBRANCH   5  12
TORSDOF 4
ENDMDL
MODEL 9
REMARK VINA RESULT:    -5.704      2.632      4.814
REMARK INTER + INTRA:          -6.998
REMARK INTER:                  -6.836
REMARK INTRA:                  -0.162
REMARK UNBOUND:                 0.040
REMARK  Name = 
REMARK  4 active torsions:
REMARK  status: ('A' for Active; 'I' for Inactive)
REMARK    1  A    between atoms: C_2  and  C_4
REMARK    2  A    between atoms: C_8  and  C_9
REMARK    3  A    between atoms: C_9  and  C_10
REMARK    4  A    between atoms: C_10  and  C_11
REMARK                            x       y       z     vdW  Elec       q    Type
REMARK                         _______ _______ _______ _____ _____    ______ ____
ROOT
ATOM      1  C   UNL     1      44.622   4.686  11.121  0.00  0.00    +0.000 A 
ATOM      2  C   UNL     1      43.870   4.784  12.263  0.00  0.00    +0.000 A 
ATOM      3  N   UNL     1      44.250   5.615  13.241  0.00  0.00    +0.000 NA
ATOM      4  N   UNL     1      45.385   6.345  13.058  0.00  0.00    +0.000 NA
ATOM      5  C   UNL     1      46.130   6.188  11.942  0.00  0.00    +0.000 A 
ATOM      6  N   UNL     1      45.778   5.376  10.925  0.00  0.00    +0.000 NA
ENDROOT
BRANCH   1   8
ATOM      7  N   UNL     1      44.115   4.383   8.771  0.00  0.00    +0.000 N 
ATOM      8  C   UNL     1      44.150   3.812  10.015  0.00  0.00    +0.000 C 
ATOM      9  O   UNL     1      43.794   2.657  10.204  0.00  0.00    +0.000 OA
ATOM     10  H   UNL     1      43.762   3.846   7.991  0.00  0.00    +0.000 HD
ATOM     11  H   UNL     1      44.380   5.352   8.642  0.00  0.00    +0.000 HD
ENDBRANCH   1   8
BRANCH   5  12
ATOM     12  C   UNL     1      47.329   7.075  11.722  0.00  0.00    +0.000 C 
BRANCH  12  13
ATOM     13  C   UNL     1      47.465   8.387  12.504  0.00  0.00    +0.000 C 
ATOM     14  C   UNL     1      46.352   9.423  12.449  0.00  0.00    +0.000 C 
ATOM     15  C   UNL     1      47.685   9.743  11.837  0.00  0.00    +0.000 C 
BRANCH  13  16
ATOM     16  C   UNL     1      48.222   8.165  13.812  0.00  0.00    +0.000 A 
ATOM     17  C   UNL     1      47.991   8.938  14.956  0.00  0.00    +0.000 A 
ATOM     18  C   UNL     1      48.601   8.611  16.165  0.00  0.00    +0.000 A 
ATOM     19  C   UNL     1      49.440   7.512  16.203  0.00  0.00    +0.000 A 
ATOM     20  N   UNL     1      49.720   6.750  15.127  0.00  0.00    +0.000 NA
ATOM     21  C   UNL     1      49.113   7.098  13.968  0.00  0.00    +0.000 A 
ENDBRANCH  13  16
ENDBRANCH  12  13
ENDBRANCH   5  12
TORSDOF 4
ENDMDL
