MODEL 1
REMARK VINA RESULT:    -9.021      0.000      0.000
REMARK INTER + INTRA:         -12.935
REMARK INTER:                 -12.185
REMARK INTRA:                  -0.750
REMARK UNBOUND:                -0.750
REMARK  Name = 
REMARK  7 active torsions:
REMARK  status: ('A' for Active; 'I' for Inactive)
REMARK    1  A    between atoms: C_1  and  C_2
REMARK    2  A    between atoms: C_2  and  N_3
REMARK    3  A    between atoms: C_2  and  C_13
REMARK    4  A    between atoms: C_4  and  C_6
REMARK    5  A    between atoms: C_16  and  C_17
REMARK    6  A    between atoms: C_17  and  N_18
REMARK    7  A    between atoms: C_19  and  C_21
REMARK                            x       y       z     vdW  Elec       q    Type
REMARK                         _______ _______ _______ _____ _____    ______ ____
ROOT
ATOM      1  C   UNL     1      45.063   5.495  11.558  0.00  0.00    +0.000 A 
ATOM      2  C   UNL     1      45.236   5.076  12.889  0.00  0.00    +0.000 A 
ATOM      3  C   UNL     1      46.350   5.475  13.631  0.00  0.00    +0.000 A 
ATOM      4  C   UNL     1      47.315   6.317  13.068  0.00  0.00    +0.000 A 
ATOM      5  C   UNL     1      47.152   6.735  11.742  0.00  0.00    +0.000 A 
ATOM      6  C   UNL     1      46.033   6.343  11.004  0.00  0.00    +0.000 A 
ENDROOT
BRANCH   1   8
ATOM      7  C   UNL     1      42.898   4.131  11.608  0.00  0.00    +0.000 C 
ATOM      8  C   UNL     1      43.825   5.048  10.799  0.00  0.00    +0.000 C 
BRANCH   8   9
ATOM      9  N   UNL     1      44.215   4.410   9.553  0.00  0.00    +0.000 N 
ATOM     10  C   UNL     1      44.911   3.226   9.527  0.00  0.00    +0.000 C 
ATOM     11  O   UNL     1      45.038   2.531  10.536  0.00  0.00    +0.000 OA
ATOM     12  H   UNL     1      44.200   4.981   8.707  0.00  0.00    +0.000 HD
BRANCH  10  13
ATOM     13  C   UNL     1      45.461   2.779   8.169  0.00  0.00    +0.000 C 
ATOM     14  C   UNL     1      45.902   1.306   8.273  0.00  0.00    +0.000 C 
ATOM     15  C   UNL     1      46.779   0.872   7.109  0.00  0.00    +0.000 C 
ATOM     16  C   UNL     1      47.999   1.767   7.060  0.00  0.00    +0.000 C 
ATOM     17  N   UNL     1      47.618   3.154   6.976  0.00  0.00    +0.000 N 
ATOM     18  C   UNL     1      46.540   3.700   7.609  0.00  0.00    +0.000 C 
ATOM     19  O   UNL     1      46.437   4.929   7.638  0.00  0.00    +0.000 OA
ATOM     20  H   UNL     1      48.306   3.834   6.671  0.00  0.00    +0.000 HD
ENDBRANCH  10  13
ENDBRANCH   8   9
ENDBRANCH   1   8
BRANCH   4  21
ATOM     21  C   UNL     1      48.521   6.750  13.858  0.00  0.00    +0.000 C 
BRANCH  21  22
ATOM     22  N   UNL     1      48.208   6.910  15.254  0.00  0.00    +0.000 N 
ATOM     23  C   UNL     1      49.148   6.647  16.217  0.00  0.00    +0.000 C 
ATOM     24  O   UNL     1      50.297   6.320  15.929  0.00  0.00    +0.000 OA
ATOM     25  H   UNL     1      47.226   6.966  15.509  0.00  0.00    +0.000 HD
BRANCH  23  26
ATOM     26  C   UNL     1      48.737   6.830  17.613  0.00  0.00    +0.000 A 
ATOM     27  C   UNL     1      48.383   8.097  18.060  0.00  0.00    +0.000 A 
ATOM     28  S   UNL     1      47.895   8.137  19.693  0.00  0.00    +0.000 S 
ATOM     29  C   UNL     1      48.183   6.470  19.875  0.00  0.00    +0.000 A 
ATOM     30  N   UNL     1      47.986   5.855  21.071  0.00  0.00    +0.000 NA
ATOM     31  C   UNL     1      48.275   4.598  21.078  0.00  0.00    +0.000 A 
ATOM     32  N   UNL     1      48.738   3.896  19.995  0.00  0.00    +0.000 N 
ATOM     33  C   UNL     1      48.924   4.469  18.759  0.00  0.00    +0.000 A 
ATOM     34  O   UNL     1      49.299   3.804  17.799  0.00  0.00    +0.000 OA
ATOM     35  C   UNL     1      48.628   5.886  18.701  0.00  0.00    +0.000 A 
ATOM     36  H   UNL     1      48.934   2.909  20.065  0.00  0.00    +0.000 HD
ENDBRANCH  23  26
ENDBRANCH  21  22
ENDBRANCH   4  21
TORSDOF 6
ENDMDL
MODEL 2
REMARK VINA RESULT:    -7.536      3.134      9.450
REMARK INTER + INTRA:         -10.930
REMARK INTER:                  -9.670
REMARK INTRA:                  -1.260
REMARK UNBOUND:                -0.750
REMARK  Name = 
REMARK  7 active torsions:
REMARK  status: ('A' for Active; 'I' for Inactive)
REMARK    1  A    between atoms: C_1  and  C_2
REMARK    2  A    between atoms: C_2  and  N_3
REMARK    3  A    between atoms: C_2  and  C_13
REMARK    4  A    between atoms: C_4  and  C_6
REMARK    5  A    between atoms: C_16  and  C_17
REMARK    6  A    between atoms: C_17  and  N_18
REMARK    7  A    between atoms: C_19  and  C_21
REMARK                            x       y       z     vdW  Elec       q    Type
REMARK                         _______ _______ _______ _____ _____    ______ ____
ROOT
ATOM      1  C   UNL     1      50.504   7.433  15.013  0.00  0.00    +0.000 A 
ATOM      2  C   UNL     1      49.252   6.822  15.197  0.00  0.00    +0.000 A 
ATOM      3  C   UNL     1      48.241   6.948  14.241  0.00  0.00    +0.000 A 
ATOM      4  C   UNL     1      48.461   7.675  13.066  0.00  0.00    +0.000 A 
ATOM      5  C   UNL     1      49.704   8.290  12.878  0.00  0.00    +0.000 A 
ATOM      6  C   UNL     1      50.717   8.157  13.831  0.00  0.00    +0.000 A 
ENDROOT
BRANCH   1   8
ATOM      7  C   UNL     1      52.998   7.548  15.578  0.00  0.00    +0.000 C 
ATOM      8  C   UNL     1      51.577   7.251  16.074  0.00  0.00    +0.000 C 
BRANCH   8   9
ATOM      9  N   UNL     1      51.498   5.909  16.628  0.00  0.00    +0.000 N 
ATOM     10  C   UNL     1      51.125   5.678  17.930  0.00  0.00    +0.000 C 
ATOM     11  O   UNL     1      50.619   6.564  18.622  0.00  0.00    +0.000 OA
ATOM     12  H   UNL     1      51.975   5.162  16.122  0.00  0.00    +0.000 HD
BRANCH  10  13
ATOM     13  C   UNL     1      51.303   4.250  18.455  0.00  0.00    +0.000 C 
ATOM     14  C   UNL     1      52.703   3.747  18.055  0.00  0.00    +0.000 C 
ATOM     15  C   UNL     1      52.852   2.241  18.209  0.00  0.00    +0.000 C 
ATOM     16  C   UNL     1      51.803   1.560  17.357  0.00  0.00    +0.000 C 
ATOM     17  N   UNL     1      50.481   2.021  17.699  0.00  0.00    +0.000 N 
ATOM     18  C   UNL     1      50.177   3.303  18.055  0.00  0.00    +0.000 C 
ATOM     19  O   UNL     1      48.989   3.629  18.116  0.00  0.00    +0.000 OA
ATOM     20  H   UNL     1      49.679   1.472  17.408  0.00  0.00    +0.000 HD
ENDBRANCH  10  13
ENDBRANCH   8   9
ENDBRANCH   1   8
BRANCH   4  21
ATOM     21  C   UNL     1      47.377   7.820  12.031  0.00  0.00    +0.000 C 
BRANCH  21  22
ATOM     22  N   UNL     1      46.738   6.559  11.757  0.00  0.00    +0.000 N 
ATOM     23  C   UNL     1      45.374   6.477  11.641  0.00  0.00    +0.000 C 
ATOM     24  O   UNL     1      44.656   7.473  11.713  0.00  0.00    +0.000 OA
ATOM     25  H   UNL     1      47.283   5.716  11.908  0.00  0.00    +0.000 HD
BRANCH  23  26
ATOM     26  C   UNL     1      44.810   5.151  11.370  0.00  0.00    +0.000 A 
ATOM     27  C   UNL     1      44.058   4.515  12.350  0.00  0.00    +0.000 A 
ATOM     28  S   UNL     1      43.443   3.000  11.869  0.00  0.00    +0.000 S 
ATOM     29  C   UNL     1      44.198   3.117  10.349  0.00  0.00    +0.000 A 
ATOM     30  N   UNL     1      44.092   2.112   9.439  0.00  0.00    +0.000 NA
ATOM     31  C   UNL     1      44.741   2.316   8.343  0.00  0.00    +0.000 A 
ATOM     32  N   UNL     1      45.482   3.437   8.070  0.00  0.00    +0.000 N 
ATOM     33  C   UNL     1      45.594   4.490   8.947  0.00  0.00    +0.000 A 
ATOM     34  O   UNL     1      46.230   5.497   8.655  0.00  0.00    +0.000 OA
ATOM     35  C   UNL     1      44.894   4.305  10.203  0.00  0.00    +0.000 A 
ATOM     36  H   UNL     1      45.957   3.539   7.185  0.00  0.00    +0.000 HD
ENDBRANCH  23  26
ENDBRANCH  21  22
ENDBRANCH   4  21
TORSDOF 6
ENDMDL
MODEL 3
REMARK VINA RESULT:    -7.306      5.112      8.014
REMARK INTER + INTRA:         -10.619
REMARK INTER:                  -9.485
REMARK INTRA:                  -1.133
REMARK UNBOUND:                -0.750
REMARK  Name = 
REMARK  7 active torsions:
REMARK  status: ('A' for Active; 'I' for Inactive)
REMARK    1  A    between atoms: C_1  and  C_2
REMARK    2  A    between atoms: C_2  and  N_3
REMARK    3  A    between atoms: C_2  and  C_13
REMARK    4  A    between atoms: C_4  and  C_6
REMARK    5  A    between atoms: C_16  and  C_17
REMARK    6  A    between atoms: C_17  and  N_18
REMARK    7  A    between atoms: C_19  and  C_21
REMARK                            x       y       z     vdW  Elec       q    Type
REMARK                         _______ _______ _______ _____ _____    ______ ____
ROOT
ATOM      1  C   UNL     1      47.843   6.475  13.469  0.00  0.00    +0.000 A 
ATOM      2  C   UNL     1      47.893   6.922  12.138  0.00  0.00    +0.000 A 
ATOM      3  C   UNL     1      48.928   7.747  11.692  0.00  0.00    +0.000 A 
ATOM      4  C   UNL     1      49.952   8.135  12.563  0.00  0.00    +0.000 A 
ATOM      5  C   UNL     1      49.907   7.698  13.891  0.00  0.00    +0.000 A 
ATOM      6  C   UNL     1      48.876   6.865  14.334  0.00  0.00    +0.000 A 
ENDROOT
BRANCH   1   8
ATOM      7  C   UNL     1      47.139   4.432  14.841  0.00  0.00    +0.000 C 
ATOM      8  C   UNL     1      46.705   5.564  13.899  0.00  0.00    +0.000 C 
BRANCH   8   9
ATOM      9  N   UNL     1      46.036   5.025  12.727  0.00  0.00    +0.000 N 
ATOM     10  C   UNL     1      44.687   4.765  12.712  0.00  0.00    +0.000 C 
ATOM     11  O   UNL     1      43.941   5.184  13.597  0.00  0.00    +0.000 OA
ATOM     12  H   UNL     1      46.619   4.596  12.007  0.00  0.00    +0.000 HD
BRANCH  10  13
ATOM     13  C   UNL     1      44.148   3.989  11.506  0.00  0.00    +0.000 C 
ATOM     14  C   UNL     1      45.244   3.029  11.005  0.00  0.00    +0.000 C 
ATOM     15  C   UNL     1      44.952   2.478   9.617  0.00  0.00    +0.000 C 
ATOM     16  C   UNL     1      44.811   3.637   8.654  0.00  0.00    +0.000 C 
ATOM     17  N   UNL     1      43.800   4.561   9.104  0.00  0.00    +0.000 N 
ATOM     18  C   UNL     1      43.570   4.879  10.411  0.00  0.00    +0.000 C 
ATOM     19  O   UNL     1      42.831   5.835  10.661  0.00  0.00    +0.000 OA
ATOM     20  H   UNL     1      43.415   5.227   8.444  0.00  0.00    +0.000 HD
ENDBRANCH  10  13
ENDBRANCH   8   9
ENDBRANCH   1   8
BRANCH   4  21
ATOM     21  C   UNL     1      51.070   9.028  12.094  0.00  0.00    +0.000 C 
BRANCH  21  22
ATOM     22  N   UNL     1      51.435   8.743  10.731  0.00  0.00    +0.000 N 
ATOM     23  C   UNL     1      52.716   8.369  10.413  0.00  0.00    +0.000 C 
ATOM     24  O   UNL     1      53.578   8.211  11.275  0.00  0.00    +0.000 OA
ATOM     25  H   UNL     1      50.810   9.072  10.001  0.00  0.00    +0.000 HD
BRANCH  23  26
ATOM     26  C   UNL     1      52.999   8.108   8.998  0.00  0.00    +0.000 A 
ATOM     27  C   UNL     1      52.862   9.136   8.074  0.00  0.00    +0.000 A 
ATOM     28  S   UNL     1      53.263   8.685   6.480  0.00  0.00    +0.000 S 
ATOM     29  C   UNL     1      53.588   7.085   6.959  0.00  0.00    +0.000 A 
ATOM     30  N   UNL     1      53.963   6.148   6.048  0.00  0.00    +0.000 NA
ATOM     31  C   UNL     1      54.145   4.969   6.541  0.00  0.00    +0.000 A 
ATOM     32  N   UNL     1      53.993   4.643   7.864  0.00  0.00    +0.000 N 
ATOM     33  C   UNL     1      53.644   5.563   8.825  0.00  0.00    +0.000 A 
ATOM     34  O   UNL     1      53.557   5.248  10.006  0.00  0.00    +0.000 OA
ATOM     35  C   UNL     1      53.413   6.902   8.320  0.00  0.00    +0.000 A 
ATOM     36  H   UNL     1      54.163   3.702   8.187  0.00  0.00    +0.000 HD
ENDBRANCH  23  26
ENDBRANCH  21  22
ENDBRANCH   4  21
TORSDOF 6
ENDMDL
MODEL 4
REMARK VINA RESULT:    -6.544      5.341      9.543
REMARK INTER + INTRA:          -9.590
REMARK INTER:                  -8.770
REMARK INTRA:                  -0.819
REMARK UNBOUND:                -0.750
REMARK  Name = 
REMARK  7 active torsions:
REMARK  status: ('A' for Active; 'I' for Inactive)
REMARK    1  A    between atoms: C_1  and  C_2
REMARK    2  A    between atoms: C_2  and  N_3
REMARK    3  A    between atoms: C_2  and  C_13
REMARK    4  A    between atoms: C_4  and  C_6
REMARK    5  A    between atoms: C_16  and  C_17
REMARK    6  A    between atoms: C_17  and  N_18
REMARK    7  A    between atoms: C_19  and  C_21
REMARK                            x       y       z     vdW  Elec       q    Type
REMARK                         _______ _______ _______ _____ _____    ______ ____
ROOT
ATOM      1  C   UNL     1      48.249   6.784  13.002  0.00  0.00    +0.000 A 
ATOM      2  C   UNL     1      48.191   7.348  11.716  0.00  0.00    +0.000 A 
ATOM      3  C   UNL     1      49.160   8.254  11.281  0.00  0.00    +0.000 A 
ATOM      4  C   UNL     1      50.226   8.609  12.116  0.00  0.00    +0.000 A 
ATOM      5  C   UNL     1      50.288   8.056  13.400  0.00  0.00    +0.000 A 
ATOM      6  C   UNL     1      49.322   7.142  13.830  0.00  0.00    +0.000 A 
ENDROOT
BRANCH   1   8
ATOM      7  C   UNL     1      45.753   6.352  13.368  0.00  0.00    +0.000 C 
ATOM      8  C   UNL     1      47.179   5.789  13.421  0.00  0.00    +0.000 C 
BRANCH   8   9
ATOM      9  N   UNL     1      47.478   5.275  14.748  0.00  0.00    +0.000 N 
ATOM     10  C   UNL     1      47.401   3.936  15.046  0.00  0.00    +0.000 C 
ATOM     11  O   UNL     1      47.304   3.084  14.161  0.00  0.00    +0.000 OA
ATOM     12  H   UNL     1      47.487   5.943  15.520  0.00  0.00    +0.000 HD
BRANCH  10  13
ATOM     13  C   UNL     1      47.513   3.551  16.524  0.00  0.00    +0.000 C 
ATOM     14  C   UNL     1      47.361   4.823  17.380  0.00  0.00    +0.000 C 
ATOM     15  C   UNL     1      47.805   4.619  18.820  0.00  0.00    +0.000 C 
ATOM     16  C   UNL     1      49.252   4.174  18.823  0.00  0.00    +0.000 C 
ATOM     17  N   UNL     1      49.429   2.992  18.018  0.00  0.00    +0.000 N 
ATOM     18  C   UNL     1      48.761   2.740  16.856  0.00  0.00    +0.000 C 
ATOM     19  O   UNL     1      49.148   1.807  16.147  0.00  0.00    +0.000 OA
ATOM     20  H   UNL     1      50.269   2.436  18.140  0.00  0.00    +0.000 HD
ENDBRANCH  10  13
ENDBRANCH   8   9
ENDBRANCH   1   8
BRANCH   4  21
ATOM     21  C   UNL     1      51.274   9.588  11.659  0.00  0.00    +0.000 C 
BRANCH  21  22
ATOM     22  N   UNL     1      51.664   9.344  10.295  0.00  0.00    +0.000 N 
ATOM     23  C   UNL     1      52.728   8.528  10.007  0.00  0.00    +0.000 C 
ATOM     24  O   UNL     1      53.349   7.937  10.888  0.00  0.00    +0.000 OA
ATOM     25  H   UNL     1      51.309   9.980   9.587  0.00  0.00    +0.000 HD
BRANCH  23  26
ATOM     26  C   UNL     1      53.059   8.345   8.589  0.00  0.00    +0.000 A 
ATOM     27  C   UNL     1      53.006   9.435   7.730  0.00  0.00    +0.000 A 
ATOM     28  S   UNL     1      53.453   9.067   6.127  0.00  0.00    +0.000 S 
ATOM     29  C   UNL     1      53.688   7.427   6.513  0.00  0.00    +0.000 A 
ATOM     30  N   UNL     1      54.059   6.533   5.558  0.00  0.00    +0.000 NA
ATOM     31  C   UNL     1      54.168   5.318   5.980  0.00  0.00    +0.000 A 
ATOM     32  N   UNL     1      53.946   4.916   7.271  0.00  0.00    +0.000 N 
ATOM     33  C   UNL     1      53.598   5.789   8.276  0.00  0.00    +0.000 A 
ATOM     34  O   UNL     1      53.448   5.404   9.430  0.00  0.00    +0.000 OA
ATOM     35  C   UNL     1      53.447   7.167   7.851  0.00  0.00    +0.000 A 
ATOM     36  H   UNL     1      54.061   3.950   7.539  0.00  0.00    +0.000 HD
ENDBRANCH  23  26
ENDBRANCH  21  22
ENDBRANCH   4  21
TORSDOF 6
ENDMDL
MODEL 5
REMARK VINA RESULT:    -6.156      5.847      9.989
REMARK INTER + INTRA:          -9.064
REMARK INTER:                  -7.996
REMARK INTRA:                  -1.068
REMARK UNBOUND:                -0.750
REMARK  Name = 
REMARK  7 active torsions:
REMARK  status: ('A' for Active; 'I' for Inactive)
REMARK    1  A    between atoms: C_1  and  C_2
REMARK    2  A    between atoms: C_2  and  N_3
REMARK    3  A    between atoms: C_2  and  C_13
REMARK    4  A    between atoms: C_4  and  C_6
REMARK    5  A    between atoms: C_16  and  C_17
REMARK    6  A    between atoms: C_17  and  N_18
REMARK    7  A    between atoms: C_19  and  C_21
REMARK                            x       y       z     vdW  Elec       q    Type
REMARK                         _______ _______ _______ _____ _____    ______ ____
ROOT
ATOM      1  C   UNL     1      48.292   6.805  13.024  0.00  0.00    +0.000 A 
ATOM      2  C   UNL     1      48.306   7.312  11.714  0.00  0.00    +0.000 A 
ATOM      3  C   UNL     1      49.285   8.220  11.302  0.00  0.00    +0.000 A 
ATOM      4  C   UNL     1      50.288   8.632  12.186  0.00  0.00    +0.000 A 
ATOM      5  C   UNL     1      50.278   8.135  13.494  0.00  0.00    +0.000 A 
ATOM      6  C   UNL     1      49.303   7.221  13.902  0.00  0.00    +0.000 A 
ENDROOT
BRANCH   1   8
ATOM      7  C   UNL     1      45.787   6.359  13.308  0.00  0.00    +0.000 C 
ATOM      8  C   UNL     1      47.215   5.807  13.417  0.00  0.00    +0.000 C 
BRANCH   8   9
ATOM      9  N   UNL     1      47.471   5.311  14.759  0.00  0.00    +0.000 N 
ATOM     10  C   UNL     1      47.466   3.969  15.054  0.00  0.00    +0.000 C 
ATOM     11  O   UNL     1      47.477   3.115  14.167  0.00  0.00    +0.000 OA
ATOM     12  H   UNL     1      47.392   5.976  15.530  0.00  0.00    +0.000 HD
BRANCH  10  13
ATOM     13  C   UNL     1      47.519   3.589  16.537  0.00  0.00    +0.000 C 
ATOM     14  C   UNL     1      47.446   4.876  17.381  0.00  0.00    +0.000 C 
ATOM     15  C   UNL     1      47.845   4.650  18.832  0.00  0.00    +0.000 C 
ATOM     16  C   UNL     1      49.254   4.097  18.867  0.00  0.00    +0.000 C 
ATOM     17  N   UNL     1      49.357   2.898  18.074  0.00  0.00    +0.000 N 
ATOM     18  C   UNL     1      48.696   2.689  16.899  0.00  0.00    +0.000 C 
ATOM     19  O   UNL     1      49.025   1.724  16.205  0.00  0.00    +0.000 OA
ATOM     20  H   UNL     1      50.150   2.282  18.217  0.00  0.00    +0.000 HD
ENDBRANCH  10  13
ENDBRANCH   8   9
ENDBRANCH   1   8
BRANCH   4  21
ATOM     21  C   UNL     1      51.346   9.612  11.755  0.00  0.00    +0.000 C 
BRANCH  21  22
ATOM     22  N   UNL     1      51.732   9.401  10.383  0.00  0.00    +0.000 N 
ATOM     23  C   UNL     1      52.816   8.621  10.074  0.00  0.00    +0.000 C 
ATOM     24  O   UNL     1      53.461   8.034  10.940  0.00  0.00    +0.000 OA
ATOM     25  H   UNL     1      51.353  10.038   9.688  0.00  0.00    +0.000 HD
BRANCH  23  26
ATOM     26  C   UNL     1      53.140   8.470   8.651  0.00  0.00    +0.000 A 
ATOM     27  C   UNL     1      53.515   7.223   8.165  0.00  0.00    +0.000 A 
ATOM     28  S   UNL     1      53.822   7.204   6.489  0.00  0.00    +0.000 S 
ATOM     29  C   UNL     1      53.512   8.872   6.359  0.00  0.00    +0.000 A 
ATOM     30  N   UNL     1      53.628   9.512   5.166  0.00  0.00    +0.000 NA
ATOM     31  C   UNL     1      53.398  10.780   5.217  0.00  0.00    +0.000 A 
ATOM     32  N   UNL     1      53.054  11.467   6.352  0.00  0.00    +0.000 N 
ATOM     33  C   UNL     1      52.896  10.858   7.575  0.00  0.00    +0.000 A 
ATOM     34  O   UNL     1      52.547  11.494   8.563  0.00  0.00    +0.000 OA
ATOM     35  C   UNL     1      53.159   9.432   7.575  0.00  0.00    +0.000 A 
ATOM     36  H   UNL     1      52.875  12.460   6.321  0.00  0.00    +0.000 HD
ENDBRANCH  23  26
ENDBRANCH  21  22
ENDBRANCH   4  21
TORSDOF 6
ENDMDL
