MODEL 1
REMARK VINA RESULT:    -8.366      0.000      0.000
REMARK INTER + INTRA:         -11.603
REMARK INTER:                 -10.812
REMARK INTRA:                  -0.791
REMARK UNBOUND:                -0.791
REMARK  Name = 
REMARK  5 active torsions:
REMARK  status: ('A' for Active; 'I' for Inactive)
REMARK    1  A    between atoms: C_2  and  C_19
REMARK    2  A    between atoms: N_3  and  C_4
REMARK    3  A    between atoms: C_4  and  C_5
REMARK    4  A    between atoms: C_8  and  C_9
REMARK    5  A    between atoms: C_9  and  N_10
REMARK                            x       y       z     vdW  Elec       q    Type
REMARK                         _______ _______ _______ _____ _____    ______ ____
ROOT
ATOM      1  C   UNL     1      47.751   7.181  13.762  0.00  0.00    +0.000 C 
ENDROOT
BRANCH   1   2
ATOM      2  C   UNL     1      46.825   6.347  12.932  0.00  0.00    +0.000 A 
ATOM      3  C   UNL     1      46.278   5.151  13.411  0.00  0.00    +0.000 A 
ATOM      4  C   UNL     1      45.391   4.423  12.617  0.00  0.00    +0.000 A 
ATOM      5  C   UNL     1      45.075   4.899  11.347  0.00  0.00    +0.000 A 
ATOM      6  N   UNL     1      45.647   6.021  10.838  0.00  0.00    +0.000 NA
ATOM      7  C   UNL     1      46.499   6.708  11.630  0.00  0.00    +0.000 A 
BRANCH   5   8
ATOM      8  C   UNL     1      44.008   4.216  10.508  0.00  0.00    +0.000 C 
BRANCH   8   9
ATOM      9  N   UNL     1      44.170   4.479   9.089  0.00  0.00    +0.000 N 
ATOM     10  C   UNL     1      45.055   3.600   8.478  0.00  0.00    +0.000 A 
ATOM     11  N   UNL     1      45.181   2.345   8.934  0.00  0.00    +0.000 NA
ATOM     12  C   UNL     1      46.057   1.541   8.307  0.00  0.00    +0.000 A 
ATOM     13  C   UNL     1      46.822   1.944   7.245  0.00  0.00    +0.000 A 
ATOM     14  C   UNL     1      46.632   3.247   6.855  0.00  0.00    +0.000 A 
ATOM     15  N   UNL     1      45.766   4.090   7.454  0.00  0.00    +0.000 NA
ATOM     16  H   UNL     1      44.453   5.416   8.833  0.00  0.00    +0.000 HD
ENDBRANCH   8   9
ENDBRANCH   5   8
ENDBRANCH   1   2
BRANCH   1  19
ATOM     17  O   UNL     1      48.485   8.206  16.306  0.00  0.00    +0.000 OA
ATOM     18  C   UNL     1      48.665   7.028  16.040  0.00  0.00    +0.000 C 
ATOM     19  N   UNL     1      48.254   6.421  14.875  0.00  0.00    +0.000 N 
ATOM     20  H   UNL     1      48.621   5.506  14.662  0.00  0.00    +0.000 HD
BRANCH  18  21
ATOM     21  C   UNL     1      49.529   6.146  16.816  0.00  0.00    +0.000 A 
ATOM     22  C   UNL     1      50.734   6.563  17.351  0.00  0.00    +0.000 A 
ATOM     23  S   UNL     1      51.755   5.232  17.720  0.00  0.00    +0.000 S 
ATOM     24  C   UNL     1      50.545   4.110  17.291  0.00  0.00    +0.000 A 
ATOM     25  N   UNL     1      50.778   2.772  17.222  0.00  0.00    +0.000 NA
ATOM     26  C   UNL     1      49.733   2.066  16.931  0.00  0.00    +0.000 A 
ATOM     27  N   UNL     1      48.465   2.569  16.755  0.00  0.00    +0.000 N 
ATOM     28  C   UNL     1      48.181   3.914  16.830  0.00  0.00    +0.000 A 
ATOM     29  O   UNL     1      47.035   4.340  16.749  0.00  0.00    +0.000 OA
ATOM     30  C   UNL     1      49.351   4.741  17.021  0.00  0.00    +0.000 A 
ATOM     31  H   UNL     1      47.678   1.956  16.615  0.00  0.00    +0.000 HD
ENDBRANCH  18  21
ENDBRANCH   1  19
TORSDOF 5
ENDMDL
MODEL 2
REMARK VINA RESULT:    -8.046      1.906      2.186
REMARK INTER + INTRA:         -11.190
REMARK INTER:                 -10.268
REMARK INTRA:                  -0.922
REMARK UNBOUND:                -0.791
REMARK  Name = 
REMARK  5 active torsions:
REMARK  status: ('A' for Active; 'I' for Inactive)
REMARK    1  A    between atoms: C_2  and  C_19
REMARK    2  A    between atoms: N_3  and  C_4
REMARK    3  A    between atoms: C_4  and  C_5
REMARK    4  A    between atoms: C_8  and  C_9
REMARK    5  A    between atoms: C_9  and  N_10
REMARK                            x       y       z     vdW  Elec       q    Type
REMARK                         _______ _______ _______ _____ _____    ______ ____
ROOT
ATOM      1  C   UNL     1      48.595   6.696  13.759  0.00  0.00    +0.000 C 
ENDROOT
BRANCH   1   2
ATOM      2  C   UNL     1      47.427   6.171  12.983  0.00  0.00    +0.000 A 
ATOM      3  C   UNL     1      46.996   6.778  11.797  0.00  0.00    +0.000 A 
ATOM      4  C   UNL     1      45.925   6.235  11.087  0.00  0.00    +0.000 A 
ATOM      5  C   UNL     1      45.293   5.097  11.582  0.00  0.00    +0.000 A 
ATOM      6  N   UNL     1      45.653   4.534  12.764  0.00  0.00    +0.000 NA
ATOM      7  C   UNL     1      46.695   5.078  13.430  0.00  0.00    +0.000 A 
BRANCH   5   8
ATOM      8  C   UNL     1      44.221   4.393  10.769  0.00  0.00    +0.000 C 
BRANCH   8   9
ATOM      9  N   UNL     1      44.330   4.678   9.348  0.00  0.00    +0.000 N 
ATOM     10  C   UNL     1      45.129   3.761   8.677  0.00  0.00    +0.000 A 
ATOM     11  N   UNL     1      45.200   2.490   9.102  0.00  0.00    +0.000 NA
ATOM     12  C   UNL     1      45.995   1.649   8.417  0.00  0.00    +0.000 A 
ATOM     13  C   UNL     1      46.731   2.030   7.327  0.00  0.00    +0.000 A 
ATOM     14  C   UNL     1      46.602   3.350   6.972  0.00  0.00    +0.000 A 
ATOM     15  N   UNL     1      45.819   4.230   7.630  0.00  0.00    +0.000 NA
ATOM     16  H   UNL     1      44.657   5.601   9.097  0.00  0.00    +0.000 HD
ENDBRANCH   8   9
ENDBRANCH   5   8
ENDBRANCH   1   2
BRANCH   1  19
ATOM     17  O   UNL     1      50.331   7.366  15.904  0.00  0.00    +0.000 OA
ATOM     18  C   UNL     1      49.131   7.243  16.096  0.00  0.00    +0.000 C 
ATOM     19  N   UNL     1      48.202   7.018  15.105  0.00  0.00    +0.000 N 
ATOM     20  H   UNL     1      47.275   6.733  15.381  0.00  0.00    +0.000 HD
BRANCH  18  21
ATOM     21  C   UNL     1      48.533   7.100  17.419  0.00  0.00    +0.000 A 
ATOM     22  C   UNL     1      48.064   8.178  18.146  0.00  0.00    +0.000 A 
ATOM     23  S   UNL     1      47.930   7.802  19.817  0.00  0.00    +0.000 S 
ATOM     24  C   UNL     1      48.370   6.177  19.546  0.00  0.00    +0.000 A 
ATOM     25  N   UNL     1      48.601   5.302  20.561  0.00  0.00    +0.000 NA
ATOM     26  C   UNL     1      48.874   4.098  20.171  0.00  0.00    +0.000 A 
ATOM     27  N   UNL     1      48.882   3.676  18.862  0.00  0.00    +0.000 N 
ATOM     28  C   UNL     1      48.640   4.523  17.805  0.00  0.00    +0.000 A 
ATOM     29  O   UNL     1      48.574   4.118  16.650  0.00  0.00    +0.000 OA
ATOM     30  C   UNL     1      48.465   5.903  18.199  0.00  0.00    +0.000 A 
ATOM     31  H   UNL     1      49.018   2.704  18.631  0.00  0.00    +0.000 HD
ENDBRANCH  18  21
ENDBRANCH   1  19
TORSDOF 5
ENDMDL
MODEL 3
REMARK VINA RESULT:    -7.511      3.152      8.435
REMARK INTER + INTRA:         -10.498
REMARK INTER:                  -9.636
REMARK INTRA:                  -0.862
REMARK UNBOUND:                -0.791
REMARK  Name = 
REMARK  5 active torsions:
REMARK  status: ('A' for Active; 'I' for Inactive)
REMARK    1  A    between atoms: C_2  and  C_19
REMARK    2  A    between atoms: N_3  and  C_4
REMARK    3  A    between atoms: C_4  and  C_5
REMARK    4  A    between atoms: C_8  and  C_9
REMARK    5  A    between atoms: C_9  and  N_10
REMARK                            x       y       z     vdW  Elec       q    Type
REMARK                         _______ _______ _______ _____ _____    ______ ____
ROOT
ATOM      1  C   UNL     1      47.471   6.894  12.424  0.00  0.00    +0.000 C 
ENDROOT
BRANCH   1   2
ATOM      2  C   UNL     1      47.800   6.319  13.767  0.00  0.00    +0.000 A 
ATOM      3  C   UNL     1      47.135   5.195  14.272  0.00  0.00    +0.000 A 
ATOM      4  C   UNL     1      47.498   4.671  15.513  0.00  0.00    +0.000 A 
ATOM      5  C   UNL     1      48.516   5.289  16.236  0.00  0.00    +0.000 A 
ATOM      6  N   UNL     1      49.126   6.419  15.794  0.00  0.00    +0.000 NA
ATOM      7  C   UNL     1      48.757   6.903  14.588  0.00  0.00    +0.000 A 
BRANCH   5   8
ATOM      8  C   UNL     1      49.038   4.668  17.520  0.00  0.00    +0.000 C 
BRANCH   8   9
ATOM      9  N   UNL     1      50.484   4.756  17.627  0.00  0.00    +0.000 N 
ATOM     10  C   UNL     1      51.097   3.510  17.654  0.00  0.00    +0.000 A 
ATOM     11  N   UNL     1      50.546   2.473  17.004  0.00  0.00    +0.000 NA
ATOM     12  C   UNL     1      51.180   1.290  17.071  0.00  0.00    +0.000 A 
ATOM     13  C   UNL     1      52.342   1.097  17.770  0.00  0.00    +0.000 A 
ATOM     14  C   UNL     1      52.825   2.211  18.410  0.00  0.00    +0.000 A 
ATOM     15  N   UNL     1      52.223   3.418  18.372  0.00  0.00    +0.000 NA
ATOM     16  H   UNL     1      50.848   5.287  18.407  0.00  0.00    +0.000 HD
ENDBRANCH   8   9
ENDBRANCH   5   8
ENDBRANCH   1   2
BRANCH   1  19
ATOM     17  O   UNL     1      44.770   7.376  11.693  0.00  0.00    +0.000 OA
ATOM     18  C   UNL     1      45.288   6.295  11.462  0.00  0.00    +0.000 C 
ATOM     19  N   UNL     1      46.614   6.002  11.689  0.00  0.00    +0.000 N 
ATOM     20  H   UNL     1      46.899   5.035  11.657  0.00  0.00    +0.000 HD
BRANCH  18  21
ATOM     21  C   UNL     1      44.537   5.093  11.117  0.00  0.00    +0.000 A 
ATOM     22  C   UNL     1      43.522   4.594  11.912  0.00  0.00    +0.000 A 
ATOM     23  S   UNL     1      43.203   2.942  11.567  0.00  0.00    +0.000 S 
ATOM     24  C   UNL     1      44.321   2.936  10.279  0.00  0.00    +0.000 A 
ATOM     25  N   UNL     1      44.671   1.800   9.619  0.00  0.00    +0.000 NA
ATOM     26  C   UNL     1      45.492   1.990   8.637  0.00  0.00    +0.000 A 
ATOM     27  N   UNL     1      45.952   3.216   8.219  0.00  0.00    +0.000 N 
ATOM     28  C   UNL     1      45.612   4.393   8.847  0.00  0.00    +0.000 A 
ATOM     29  O   UNL     1      45.966   5.484   8.417  0.00  0.00    +0.000 OA
ATOM     30  C   UNL     1      44.805   4.202  10.031  0.00  0.00    +0.000 A 
ATOM     31  H   UNL     1      46.523   3.303   7.392  0.00  0.00    +0.000 HD
ENDBRANCH  18  21
ENDBRANCH   1  19
TORSDOF 5
ENDMDL
MODEL 4
REMARK VINA RESULT:    -7.485      2.692      4.507
REMARK INTER + INTRA:         -10.464
REMARK INTER:                  -9.536
REMARK INTRA:                  -0.929
REMARK UNBOUND:                -0.791
REMARK  Name = 
REMARK  5 active torsions:
REMARK  status: ('A' for Active; 'I' for Inactive)
REMARK    1  A    between atoms: C_2  and  C_19
REMARK    2  A    between atoms: N_3  and  C_4
REMARK    3  A    between atoms: C_4  and  C_5
REMARK    4  A    between atoms: C_8  and  C_9
REMARK    5  A    between atoms: C_9  and  N_10
REMARK                            x       y       z     vdW  Elec       q    Type
REMARK                         _______ _______ _______ _____ _____    ______ ____
ROOT
ATOM      1  C   UNL     1      47.411   5.311  14.504  0.00  0.00    +0.000 C 
ENDROOT
BRANCH   1   2
ATOM      2  C   UNL     1      46.418   4.974  13.435  0.00  0.00    +0.000 A 
ATOM      3  C   UNL     1      45.931   5.942  12.549  0.00  0.00    +0.000 A 
ATOM      4  C   UNL     1      45.033   5.577  11.545  0.00  0.00    +0.000 A 
ATOM      5  C   UNL     1      44.627   4.248  11.452  0.00  0.00    +0.000 A 
ATOM      6  N   UNL     1      45.036   3.309  12.344  0.00  0.00    +0.000 NA
ATOM      7  C   UNL     1      45.907   3.689  13.304  0.00  0.00    +0.000 A 
BRANCH   5   8
ATOM      8  C   UNL     1      43.766   3.783  10.290  0.00  0.00    +0.000 C 
BRANCH   8   9
ATOM      9  N   UNL     1      44.232   4.302   9.016  0.00  0.00    +0.000 N 
ATOM     10  C   UNL     1      45.214   3.506   8.439  0.00  0.00    +0.000 A 
ATOM     11  N   UNL     1      45.219   2.181   8.652  0.00  0.00    +0.000 NA
ATOM     12  C   UNL     1      46.197   1.463   8.073  0.00  0.00    +0.000 A 
ATOM     13  C   UNL     1      47.177   2.017   7.294  0.00  0.00    +0.000 A 
ATOM     14  C   UNL     1      47.095   3.379   7.140  0.00  0.00    +0.000 A 
ATOM     15  N   UNL     1      46.135   4.141   7.703  0.00  0.00    +0.000 NA
ATOM     16  H   UNL     1      44.578   5.253   9.016  0.00  0.00    +0.000 HD
ENDBRANCH   8   9
ENDBRANCH   5   8
ENDBRANCH   1   2
BRANCH   1  19
ATOM     17  O   UNL     1      49.797   6.290  15.693  0.00  0.00    +0.000 OA
ATOM     18  C   UNL     1      49.162   6.988  14.919  0.00  0.00    +0.000 C 
ATOM     19  N   UNL     1      48.052   6.568  14.221  0.00  0.00    +0.000 N 
ATOM     20  H   UNL     1      47.484   7.267  13.767  0.00  0.00    +0.000 HD
BRANCH  18  21
ATOM     21  C   UNL     1      49.351   8.428  14.785  0.00  0.00    +0.000 A 
ATOM     22  C   UNL     1      49.551   9.259  15.872  0.00  0.00    +0.000 A 
ATOM     23  S   UNL     1      49.203  10.897  15.486  0.00  0.00    +0.000 S 
ATOM     24  C   UNL     1      48.917  10.512  13.850  0.00  0.00    +0.000 A 
ATOM     25  N   UNL     1      48.429  11.416  12.959  0.00  0.00    +0.000 NA
ATOM     26  C   UNL     1      48.324  10.966  11.751  0.00  0.00    +0.000 A 
ATOM     27  N   UNL     1      48.712   9.712  11.339  0.00  0.00    +0.000 N 
ATOM     28  C   UNL     1      49.225   8.771  12.202  0.00  0.00    +0.000 A 
ATOM     29  O   UNL     1      49.639   7.687  11.809  0.00  0.00    +0.000 OA
ATOM     30  C   UNL     1      49.229   9.196  13.584  0.00  0.00    +0.000 A 
ATOM     31  H   UNL     1      48.683   9.453  10.366  0.00  0.00    +0.000 HD
ENDBRANCH  18  21
ENDBRANCH   1  19
TORSDOF 5
ENDMDL
MODEL 5
REMARK VINA RESULT:    -7.399      3.115      8.078
REMARK INTER + INTRA:         -10.353
REMARK INTER:                  -9.385
REMARK INTRA:                  -0.968
REMARK UNBOUND:                -0.791
REMARK  Name = 
REMARK  5 active torsions:
REMARK  status: ('A' for Active; 'I' for Inactive)
REMARK    1  A    between atoms: C_2  and  C_19
REMARK    2  A    between atoms: N_3  and  C_4
REMARK    3  A    between atoms: C_4  and  C_5
REMARK    4  A    between atoms: C_8  and  C_9
REMARK    5  A    between atoms: C_9  and  N_10
REMARK                            x       y       z     vdW  Elec       q    Type
REMARK                         _______ _______ _______ _____ _____    ______ ____
ROOT
ATOM      1  C   UNL     1      46.997   8.413  12.687  0.00  0.00    +0.000 C 
ENDROOT
BRANCH   1   2
ATOM      2  C   UNL     1      47.715   7.853  13.876  0.00  0.00    +0.000 A 
ATOM      3  C   UNL     1      48.122   8.664  14.942  0.00  0.00    +0.000 A 
ATOM      4  C   UNL     1      48.757   8.095  16.046  0.00  0.00    +0.000 A 
ATOM      5  C   UNL     1      48.985   6.721  16.061  0.00  0.00    +0.000 A 
ATOM      6  N   UNL     1      48.658   5.928  15.008  0.00  0.00    +0.000 NA
ATOM      7  C   UNL     1      48.042   6.505  13.953  0.00  0.00    +0.000 A 
BRANCH   5   8
ATOM      8  C   UNL     1      49.541   6.043  17.301  0.00  0.00    +0.000 C 
BRANCH   8   9
ATOM      9  N   UNL     1      50.960   5.756  17.183  0.00  0.00    +0.000 N 
ATOM     10  C   UNL     1      51.250   4.408  17.349  0.00  0.00    +0.000 A 
ATOM     11  N   UNL     1      50.357   3.476  16.985  0.00  0.00    +0.000 NA
ATOM     12  C   UNL     1      50.690   2.187  17.175  0.00  0.00    +0.000 A 
ATOM     13  C   UNL     1      51.881   1.791  17.725  0.00  0.00    +0.000 A 
ATOM     14  C   UNL     1      52.726   2.814  18.075  0.00  0.00    +0.000 A 
ATOM     15  N   UNL     1      52.435   4.121  17.905  0.00  0.00    +0.000 NA
ATOM     16  H   UNL     1      51.578   6.274  17.794  0.00  0.00    +0.000 HD
ENDBRANCH   8   9
ENDBRANCH   5   8
ENDBRANCH   1   2
BRANCH   1  19
ATOM     17  O   UNL     1      44.464   7.672  11.639  0.00  0.00    +0.000 OA
ATOM     18  C   UNL     1      45.465   7.040  11.340  0.00  0.00    +0.000 C 
ATOM     19  N   UNL     1      46.744   7.381  11.717  0.00  0.00    +0.000 N 
ATOM     20  H   UNL     1      47.474   6.695  11.595  0.00  0.00    +0.000 HD
BRANCH  18  21
ATOM     21  C   UNL     1      45.433   5.717  10.726  0.00  0.00    +0.000 A 
ATOM     22  C   UNL     1      45.814   5.494   9.415  0.00  0.00    +0.000 A 
ATOM     23  S   UNL     1      45.177   4.015   8.817  0.00  0.00    +0.000 S 
ATOM     24  C   UNL     1      44.512   3.619  10.336  0.00  0.00    +0.000 A 
ATOM     25  N   UNL     1      43.697   2.547  10.522  0.00  0.00    +0.000 NA
ATOM     26  C   UNL     1      43.327   2.369  11.749  0.00  0.00    +0.000 A 
ATOM     27  N   UNL     1      43.741   3.130  12.816  0.00  0.00    +0.000 N 
ATOM     28  C   UNL     1      44.578   4.214  12.678  0.00  0.00    +0.000 A 
ATOM     29  O   UNL     1      45.001   4.836  13.645  0.00  0.00    +0.000 OA
ATOM     30  C   UNL     1      44.901   4.521  11.302  0.00  0.00    +0.000 A 
ATOM     31  H   UNL     1      43.484   2.885  13.760  0.00  0.00    +0.000 HD
ENDBRANCH  18  21
ENDBRANCH   1  19
TORSDOF 5
ENDMDL
MODEL 6
REMARK VINA RESULT:    -7.295      3.277      4.853
REMARK INTER + INTRA:         -10.218
REMARK INTER:                  -9.361
REMARK INTRA:                  -0.857
REMARK UNBOUND:                -0.791
REMARK  Name = 
REMARK  5 active torsions:
REMARK  status: ('A' for Active; 'I' for Inactive)
REMARK    1  A    between atoms: C_2  and  C_19
REMARK    2  A    between atoms: N_3  and  C_4
REMARK    3  A    between atoms: C_4  and  C_5
REMARK    4  A    between atoms: C_8  and  C_9
REMARK    5  A    between atoms: C_9  and  N_10
REMARK                            x       y       z     vdW  Elec       q    Type
REMARK                         _______ _______ _______ _____ _____    ______ ____
ROOT
ATOM      1  C   UNL     1      47.933   5.974  14.160  0.00  0.00    +0.000 C 
ENDROOT
BRANCH   1   2
ATOM      2  C   UNL     1      46.840   5.579  13.215  0.00  0.00    +0.000 A 
ATOM      3  C   UNL     1      46.432   6.413  12.168  0.00  0.00    +0.000 A 
ATOM      4  C   UNL     1      45.434   5.990  11.289  0.00  0.00    +0.000 A 
ATOM      5  C   UNL     1      44.849   4.741  11.482  0.00  0.00    +0.000 A 
ATOM      6  N   UNL     1      45.183   3.947  12.531  0.00  0.00    +0.000 NA
ATOM      7  C   UNL     1      46.155   4.379  13.364  0.00  0.00    +0.000 A 
BRANCH   5   8
ATOM      8  C   UNL     1      43.864   4.184  10.468  0.00  0.00    +0.000 C 
BRANCH   8   9
ATOM      9  N   UNL     1      44.213   4.545   9.105  0.00  0.00    +0.000 N 
ATOM     10  C   UNL     1      45.119   3.663   8.531  0.00  0.00    +0.000 A 
ATOM     11  N   UNL     1      45.123   2.370   8.892  0.00  0.00    +0.000 NA
ATOM     12  C   UNL     1      46.027   1.565   8.308  0.00  0.00    +0.000 A 
ATOM     13  C   UNL     1      46.936   2.001   7.381  0.00  0.00    +0.000 A 
ATOM     14  C   UNL     1      46.863   3.338   7.082  0.00  0.00    +0.000 A 
ATOM     15  N   UNL     1      45.975   4.185   7.644  0.00  0.00    +0.000 NA
ATOM     16  H   UNL     1      44.573   5.480   8.964  0.00  0.00    +0.000 HD
ENDBRANCH   8   9
ENDBRANCH   5   8
ENDBRANCH   1   2
BRANCH   1  19
ATOM     17  O   UNL     1      48.233   8.603  15.188  0.00  0.00    +0.000 OA
ATOM     18  C   UNL     1      48.743   8.296  14.122  0.00  0.00    +0.000 C 
ATOM     19  N   UNL     1      48.735   7.025  13.592  0.00  0.00    +0.000 N 
ATOM     20  H   UNL     1      49.001   6.912  12.626  0.00  0.00    +0.000 HD
BRANCH  18  21
ATOM     21  C   UNL     1      49.243   9.265  13.153  0.00  0.00    +0.000 A 
ATOM     22  C   UNL     1      48.426  10.201  12.545  0.00  0.00    +0.000 A 
ATOM     23  S   UNL     1      49.134  10.816  11.106  0.00  0.00    +0.000 S 
ATOM     24  C   UNL     1      50.571   9.936  11.367  0.00  0.00    +0.000 A 
ATOM     25  N   UNL     1      51.569   9.872  10.446  0.00  0.00    +0.000 NA
ATOM     26  C   UNL     1      52.606   9.202  10.834  0.00  0.00    +0.000 A 
ATOM     27  N   UNL     1      52.760   8.637  12.078  0.00  0.00    +0.000 N 
ATOM     28  C   UNL     1      51.784   8.690  13.046  0.00  0.00    +0.000 A 
ATOM     29  O   UNL     1      51.965   8.250  14.175  0.00  0.00    +0.000 OA
ATOM     30  C   UNL     1      50.560   9.314  12.597  0.00  0.00    +0.000 A 
ATOM     31  H   UNL     1      53.629   8.202  12.346  0.00  0.00    +0.000 HD
ENDBRANCH  18  21
ENDBRANCH   1  19
TORSDOF 5
ENDMDL
MODEL 7
REMARK VINA RESULT:    -7.239      2.421      3.285
REMARK INTER + INTRA:         -10.146
REMARK INTER:                  -9.327
REMARK INTRA:                  -0.819
REMARK UNBOUND:                -0.791
REMARK  Name = 
REMARK  5 active torsions:
REMARK  status: ('A' for Active; 'I' for Inactive)
REMARK    1  A    between atoms: C_2  and  C_19
REMARK    2  A    between atoms: N_3  and  C_4
REMARK    3  A    between atoms: C_4  and  C_5
REMARK    4  A    between atoms: C_8  and  C_9
REMARK    5  A    between atoms: C_9  and  N_10
REMARK                            x       y       z     vdW  Elec       q    Type
REMARK                         _______ _______ _______ _____ _____    ______ ____
ROOT
ATOM      1  C   UNL     1      48.676   7.402  13.830  0.00  0.00    +0.000 C 
ENDROOT
BRANCH   1   2
ATOM      2  C   UNL     1      47.573   6.709  13.090  0.00  0.00    +0.000 A 
ATOM      3  C   UNL     1      47.081   7.196  11.873  0.00  0.00    +0.000 A 
ATOM      4  C   UNL     1      46.077   6.500  11.200  0.00  0.00    +0.000 A 
ATOM      5  C   UNL     1      45.571   5.331  11.762  0.00  0.00    +0.000 A 
ATOM      6  N   UNL     1      45.987   4.879  12.974  0.00  0.00    +0.000 NA
ATOM      7  C   UNL     1      46.963   5.571  13.602  0.00  0.00    +0.000 A 
BRANCH   5   8
ATOM      8  C   UNL     1      44.583   4.469  10.996  0.00  0.00    +0.000 C 
BRANCH   8   9
ATOM      9  N   UNL     1      44.557   4.787   9.579  0.00  0.00    +0.000 N 
ATOM     10  C   UNL     1      45.256   3.865   8.809  0.00  0.00    +0.000 A 
ATOM     11  N   UNL     1      45.329   2.582   9.195  0.00  0.00    +0.000 NA
ATOM     12  C   UNL     1      46.023   1.737   8.413  0.00  0.00    +0.000 A 
ATOM     13  C   UNL     1      46.658   2.125   7.263  0.00  0.00    +0.000 A 
ATOM     14  C   UNL     1      46.535   3.457   6.954  0.00  0.00    +0.000 A 
ATOM     15  N   UNL     1      45.850   4.342   7.708  0.00  0.00    +0.000 NA
ATOM     16  H   UNL     1      44.886   5.707   9.317  0.00  0.00    +0.000 HD
ENDBRANCH   8   9
ENDBRANCH   5   8
ENDBRANCH   1   2
BRANCH   1  19
ATOM     17  O   UNL     1      50.624   6.530  15.702  0.00  0.00    +0.000 OA
ATOM     18  C   UNL     1      49.478   6.749  16.061  0.00  0.00    +0.000 C 
ATOM     19  N   UNL     1      48.493   7.266  15.251  0.00  0.00    +0.000 N 
ATOM     20  H   UNL     1      47.539   7.222  15.576  0.00  0.00    +0.000 HD
BRANCH  18  21
ATOM     21  C   UNL     1      48.927   6.295  17.333  0.00  0.00    +0.000 A 
ATOM     22  C   UNL     1      48.122   5.175  17.440  0.00  0.00    +0.000 A 
ATOM     23  S   UNL     1      47.205   5.194  18.892  0.00  0.00    +0.000 S 
ATOM     24  C   UNL     1      47.975   6.618  19.429  0.00  0.00    +0.000 A 
ATOM     25  N   UNL     1      47.578   7.290  20.542  0.00  0.00    +0.000 NA
ATOM     26  C   UNL     1      48.309   8.319  20.828  0.00  0.00    +0.000 A 
ATOM     27  N   UNL     1      49.432   8.706  20.136  0.00  0.00    +0.000 N 
ATOM     28  C   UNL     1      49.879   8.047  19.013  0.00  0.00    +0.000 A 
ATOM     29  O   UNL     1      50.923   8.355  18.452  0.00  0.00    +0.000 OA
ATOM     30  C   UNL     1      49.008   6.974  18.589  0.00  0.00    +0.000 A 
ATOM     31  H   UNL     1      50.006   9.468  20.462  0.00  0.00    +0.000 HD
ENDBRANCH  18  21
ENDBRANCH   1  19
TORSDOF 5
ENDMDL
MODEL 8
REMARK VINA RESULT:    -7.159      3.562      4.562
REMARK INTER + INTRA:         -10.043
REMARK INTER:                  -9.030
REMARK INTRA:                  -1.013
REMARK UNBOUND:                -0.791
REMARK  Name = 
REMARK  5 active torsions:
REMARK  status: ('A' for Active; 'I' for Inactive)
REMARK    1  A    between atoms: C_2  and  C_19
REMARK    2  A    between atoms: N_3  and  C_4
REMARK    3  A    between atoms: C_4  and  C_5
REMARK    4  A    between atoms: C_8  and  C_9
REMARK    5  A    between atoms: C_9  and  N_10
REMARK                            x       y       z     vdW  Elec       q    Type
REMARK                         _______ _______ _______ _____ _____    ______ ____
ROOT
ATOM      1  C   UNL     1      46.488   7.406  13.215  0.00  0.00    +0.000 C 
ENDROOT
BRANCH   1   2
ATOM      2  C   UNL     1      45.913   6.285  12.405  0.00  0.00    +0.000 A 
ATOM      3  C   UNL     1      45.376   6.496  11.130  0.00  0.00    +0.000 A 
ATOM      4  C   UNL     1      44.883   5.417  10.395  0.00  0.00    +0.000 A 
ATOM      5  C   UNL     1      44.925   4.143  10.956  0.00  0.00    +0.000 A 
ATOM      6  N   UNL     1      45.380   3.928  12.217  0.00  0.00    +0.000 NA
ATOM      7  C   UNL     1      45.854   4.990  12.905  0.00  0.00    +0.000 A 
BRANCH   5   8
ATOM      8  C   UNL     1      44.532   2.925  10.137  0.00  0.00    +0.000 C 
BRANCH   8   9
ATOM      9  N   UNL     1      44.389   3.234   8.724  0.00  0.00    +0.000 N 
ATOM     10  C   UNL     1      45.438   2.743   7.958  0.00  0.00    +0.000 A 
ATOM     11  N   UNL     1      46.073   1.619   8.326  0.00  0.00    +0.000 NA
ATOM     12  C   UNL     1      47.085   1.194   7.549  0.00  0.00    +0.000 A 
ATOM     13  C   UNL     1      47.496   1.854   6.421  0.00  0.00    +0.000 A 
ATOM     14  C   UNL     1      46.794   2.997   6.130  0.00  0.00    +0.000 A 
ATOM     15  N   UNL     1      45.773   3.463   6.880  0.00  0.00    +0.000 NA
ATOM     16  H   UNL     1      44.274   4.210   8.485  0.00  0.00    +0.000 HD
ENDBRANCH   8   9
ENDBRANCH   5   8
ENDBRANCH   1   2
BRANCH   1  19
ATOM     17  O   UNL     1      49.078   6.312  13.610  0.00  0.00    +0.000 OA
ATOM     18  C   UNL     1      48.932   7.330  12.953  0.00  0.00    +0.000 C 
ATOM     19  N   UNL     1      47.713   7.879  12.626  0.00  0.00    +0.000 N 
ATOM     20  H   UNL     1      47.698   8.818  12.258  0.00  0.00    +0.000 HD
BRANCH  18  21
ATOM     21  C   UNL     1      50.024   8.232  12.604  0.00  0.00    +0.000 A 
ATOM     22  C   UNL     1      50.828   8.036  11.496  0.00  0.00    +0.000 A 
ATOM     23  S   UNL     1      52.311   8.894  11.633  0.00  0.00    +0.000 S 
ATOM     24  C   UNL     1      51.822   9.621  13.096  0.00  0.00    +0.000 A 
ATOM     25  N   UNL     1      52.662  10.373  13.856  0.00  0.00    +0.000 NA
ATOM     26  C   UNL     1      52.108  10.889  14.906  0.00  0.00    +0.000 A 
ATOM     27  N   UNL     1      50.778  10.768  15.236  0.00  0.00    +0.000 N 
ATOM     28  C   UNL     1      49.889  10.030  14.488  0.00  0.00    +0.000 A 
ATOM     29  O   UNL     1      48.693   9.995  14.750  0.00  0.00    +0.000 OA
ATOM     30  C   UNL     1      50.506   9.331  13.384  0.00  0.00    +0.000 A 
ATOM     31  H   UNL     1      50.391  11.266  16.022  0.00  0.00    +0.000 HD
ENDBRANCH  18  21
ENDBRANCH   1  19
TORSDOF 5
ENDMDL
MODEL 9
REMARK VINA RESULT:    -6.825      3.314      4.074
REMARK INTER + INTRA:          -9.612
REMARK INTER:                  -8.556
REMARK INTRA:                  -1.056
REMARK UNBOUND:                -0.791
REMARK  Name = 
REMARK  5 active torsions:
REMARK  status: ('A' for Active; 'I' for Inactive)
REMARK    1  A    between atoms: C_2  and  C_19
REMARK    2  A    between atoms: N_3  and  C_4
REMARK    3  A    between atoms: C_4  and  C_5
REMARK    4  A    between atoms: C_8  and  C_9
REMARK    5  A    between atoms: C_9  and  N_10
REMARK                            x       y       z     vdW  Elec       q    Type
REMARK                         _______ _______ _______ _____ _____    ______ ____
ROOT
ATOM      1  C   UNL     1      46.000   8.068  13.282  0.00  0.00    +0.000 C 
ENDROOT
BRANCH   1   2
ATOM      2  C   UNL     1      45.613   6.841  12.515  0.00  0.00    +0.000 A 
ATOM      3  C   UNL     1      44.691   6.887  11.463  0.00  0.00    +0.000 A 
ATOM      4  C   UNL     1      44.386   5.726  10.753  0.00  0.00    +0.000 A 
ATOM      5  C   UNL     1      45.001   4.531  11.115  0.00  0.00    +0.000 A 
ATOM      6  N   UNL     1      45.846   4.452  12.175  0.00  0.00    +0.000 NA
ATOM      7  C   UNL     1      46.126   5.592  12.844  0.00  0.00    +0.000 A 
BRANCH   5   8
ATOM      8  C   UNL     1      44.807   3.277  10.280  0.00  0.00    +0.000 C 
BRANCH   8   9
ATOM      9  N   UNL     1      44.626   3.577   8.870  0.00  0.00    +0.000 N 
ATOM     10  C   UNL     1      45.552   2.930   8.061  0.00  0.00    +0.000 A 
ATOM     11  N   UNL     1      46.046   1.736   8.423  0.00  0.00    +0.000 NA
ATOM     12  C   UNL     1      46.943   1.160   7.604  0.00  0.00    +0.000 A 
ATOM     13  C   UNL     1      47.375   1.735   6.438  0.00  0.00    +0.000 A 
ATOM     14  C   UNL     1      46.822   2.959   6.155  0.00  0.00    +0.000 A 
ATOM     15  N   UNL     1      45.920   3.576   6.947  0.00  0.00    +0.000 NA
ATOM     16  H   UNL     1      44.634   4.554   8.612  0.00  0.00    +0.000 HD
ENDBRANCH   8   9
ENDBRANCH   5   8
ENDBRANCH   1   2
BRANCH   1  19
ATOM     17  O   UNL     1      47.891  10.148  13.675  0.00  0.00    +0.000 OA
ATOM     18  C   UNL     1      48.196   8.987  13.896  0.00  0.00    +0.000 C 
ATOM     19  N   UNL     1      47.323   7.925  13.829  0.00  0.00    +0.000 N 
ATOM     20  H   UNL     1      47.708   6.992  13.829  0.00  0.00    +0.000 HD
BRANCH  18  21
ATOM     21  C   UNL     1      49.572   8.525  14.049  0.00  0.00    +0.000 A 
ATOM     22  C   UNL     1      50.218   8.498  15.271  0.00  0.00    +0.000 A 
ATOM     23  S   UNL     1      51.925   8.442  15.081  0.00  0.00    +0.000 S 
ATOM     24  C   UNL     1      51.791   8.322  13.385  0.00  0.00    +0.000 A 
ATOM     25  N   UNL     1      52.869   8.382  12.559  0.00  0.00    +0.000 NA
ATOM     26  C   UNL     1      52.586   8.223  11.307  0.00  0.00    +0.000 A 
ATOM     27  N   UNL     1      51.333   7.954  10.809  0.00  0.00    +0.000 N 
ATOM     28  C   UNL     1      50.217   7.869  11.608  0.00  0.00    +0.000 A 
ATOM     29  O   UNL     1      49.121   7.552  11.162  0.00  0.00    +0.000 OA
ATOM     30  C   UNL     1      50.477   8.177  12.997  0.00  0.00    +0.000 A 
ATOM     31  H   UNL     1      51.195   7.754   9.830  0.00  0.00    +0.000 HD
ENDBRANCH  18  21
ENDBRANCH   1  19
TORSDOF 5
ENDMDL
