MODEL 1
REMARK VINA RESULT:    -8.190      0.000      0.000
REMARK INTER + INTRA:         -11.603
REMARK INTER:                 -10.585
REMARK INTRA:                  -1.019
REMARK UNBOUND:                -1.019
REMARK  Name = 
REMARK  6 active torsions:
REMARK  status: ('A' for Active; 'I' for Inactive)
REMARK    1  A    between atoms: C_1  and  O_2
REMARK    2  A    between atoms: O_2  and  C_3
REMARK    3  A    between atoms: C_7  and  N_8
REMARK    4  A    between atoms: C_12  and  C_13
REMARK    5  A    between atoms: C_13  and  N_14
REMARK    6  A    between atoms: C_15  and  C_17
REMARK                            x       y       z     vdW  Elec       q    Type
REMARK                         _______ _______ _______ _____ _____    ______ ____
ROOT
ATOM      1  N   UNL     1      44.801   5.736  10.046  0.00  0.00    +0.000 N 
ATOM      2  C   UNL     1      45.498   6.477  11.000  0.00  0.00    +0.000 A 
ATOM      3  C   UNL     1      44.851   7.546  11.618  0.00  0.00    +0.000 A 
ATOM      4  C   UNL     1      45.504   8.268  12.617  0.00  0.00    +0.000 A 
ATOM      5  C   UNL     1      46.795   7.906  12.991  0.00  0.00    +0.000 A 
ATOM      6  C   UNL     1      47.367   6.836  12.327  0.00  0.00    +0.000 A 
ATOM      7  N   UNL     1      46.749   6.127  11.360  0.00  0.00    +0.000 NA
ATOM      8  H   UNL     1      43.930   6.123   9.714  0.00  0.00    +0.000 HD
ENDROOT
BRANCH   1  13
ATOM      9  C   UNL     1      46.051   3.413   7.677  0.00  0.00    +0.000 A 
ATOM     10  C   UNL     1      45.543   2.182   8.049  0.00  0.00    +0.000 A 
ATOM     11  C   UNL     1      44.760   2.127   9.190  0.00  0.00    +0.000 A 
ATOM     12  C   UNL     1      44.510   3.300   9.896  0.00  0.00    +0.000 A 
ATOM     13  C   UNL     1      45.046   4.506   9.452  0.00  0.00    +0.000 A 
ATOM     14  N   UNL     1      45.828   4.560   8.353  0.00  0.00    +0.000 NA
BRANCH   9  16
ATOM     15  C   UNL     1      47.915   2.518   6.593  0.00  0.00    +0.000 C 
ATOM     16  O   UNL     1      46.826   3.434   6.533  0.00  0.00    +0.000 OA
ENDBRANCH   9  16
ENDBRANCH   1  13
BRANCH   5  17
ATOM     17  C   UNL     1      47.569   8.672  14.016  0.00  0.00    +0.000 C 
BRANCH  17  18
ATOM     18  N   UNL     1      47.872   7.840  15.153  0.00  0.00    +0.000 N 
ATOM     19  C   UNL     1      49.093   7.240  15.316  0.00  0.00    +0.000 C 
ATOM     20  O   UNL     1      50.019   7.414  14.528  0.00  0.00    +0.000 OA
ATOM     21  H   UNL     1      47.082   7.502  15.693  0.00  0.00    +0.000 HD
BRANCH  19  22
ATOM     22  C   UNL     1      49.261   6.431  16.529  0.00  0.00    +0.000 A 
ATOM     23  C   UNL     1      50.171   6.835  17.497  0.00  0.00    +0.000 A 
ATOM     24  S   UNL     1      50.226   5.808  18.856  0.00  0.00    +0.000 S 
ATOM     25  C   UNL     1      49.069   4.761  18.179  0.00  0.00    +0.000 A 
ATOM     26  N   UNL     1      48.680   3.634  18.834  0.00  0.00    +0.000 NA
ATOM     27  C   UNL     1      47.823   2.911  18.192  0.00  0.00    +0.000 A 
ATOM     28  N   UNL     1      47.310   3.221  16.959  0.00  0.00    +0.000 N 
ATOM     29  C   UNL     1      47.622   4.379  16.288  0.00  0.00    +0.000 A 
ATOM     30  O   UNL     1      47.059   4.688  15.246  0.00  0.00    +0.000 OA
ATOM     31  C   UNL     1      48.621   5.205  16.948  0.00  0.00    +0.000 A 
ATOM     32  H   UNL     1      46.623   2.624  16.524  0.00  0.00    +0.000 HD
ENDBRANCH  19  22
ENDBRANCH  17  18
ENDBRANCH   5  17
TORSDOF 5
ENDMDL
MODEL 2
REMARK VINA RESULT:    -7.541      4.524      9.212
REMARK INTER + INTRA:         -10.764
REMARK INTER:                  -9.795
REMARK INTRA:                  -0.970
REMARK UNBOUND:                -1.019
REMARK  Name = 
REMARK  6 active torsions:
REMARK  status: ('A' for Active; 'I' for Inactive)
REMARK    1  A    between atoms: C_1  and  O_2
REMARK    2  A    between atoms: O_2  and  C_3
REMARK    3  A    between atoms: C_7  and  N_8
REMARK    4  A    between atoms: C_12  and  C_13
REMARK    5  A    between atoms: C_13  and  N_14
REMARK    6  A    between atoms: C_15  and  C_17
REMARK                            x       y       z     vdW  Elec       q    Type
REMARK                         _______ _______ _______ _____ _____    ______ ____
ROOT
ATOM      1  N   UNL     1      51.767   1.018  17.417  0.00  0.00    +0.000 N 
ATOM      2  C   UNL     1      51.030   2.199  17.334  0.00  0.00    +0.000 A 
ATOM      3  C   UNL     1      49.638   2.118  17.313  0.00  0.00    +0.000 A 
ATOM      4  C   UNL     1      48.876   3.285  17.289  0.00  0.00    +0.000 A 
ATOM      5  C   UNL     1      49.515   4.521  17.294  0.00  0.00    +0.000 A 
ATOM      6  C   UNL     1      50.899   4.516  17.312  0.00  0.00    +0.000 A 
ATOM      7  N   UNL     1      51.650   3.396  17.337  0.00  0.00    +0.000 NA
ATOM      8  H   UNL     1      51.266   0.155  17.269  0.00  0.00    +0.000 HD
ENDROOT
BRANCH   1  13
ATOM      9  C   UNL     1      54.826   1.115  19.207  0.00  0.00    +0.000 A 
ATOM     10  C   UNL     1      55.755   0.478  18.405  0.00  0.00    +0.000 A 
ATOM     11  C   UNL     1      55.314  -0.047  17.202  0.00  0.00    +0.000 A 
ATOM     12  C   UNL     1      53.975   0.098  16.851  0.00  0.00    +0.000 A 
ATOM     13  C   UNL     1      53.101   0.763  17.705  0.00  0.00    +0.000 A 
ATOM     14  N   UNL     1      53.522   1.258  18.889  0.00  0.00    +0.000 NA
BRANCH   9  16
ATOM     15  C   UNL     1      54.702   2.881  20.728  0.00  0.00    +0.000 C 
ATOM     16  O   UNL     1      55.299   1.631  20.399  0.00  0.00    +0.000 OA
ENDBRANCH   9  16
ENDBRANCH   1  13
BRANCH   5  17
ATOM     17  C   UNL     1      48.758   5.808  17.215  0.00  0.00    +0.000 C 
BRANCH  17  18
ATOM     18  N   UNL     1      47.894   5.820  16.061  0.00  0.00    +0.000 N 
ATOM     19  C   UNL     1      48.320   6.250  14.832  0.00  0.00    +0.000 C 
ATOM     20  O   UNL     1      49.477   6.608  14.628  0.00  0.00    +0.000 OA
ATOM     21  H   UNL     1      46.897   5.746  16.238  0.00  0.00    +0.000 HD
BRANCH  19  22
ATOM     22  C   UNL     1      47.333   6.195  13.748  0.00  0.00    +0.000 A 
ATOM     23  C   UNL     1      46.959   7.368  13.107  0.00  0.00    +0.000 A 
ATOM     24  S   UNL     1      45.831   7.133  11.851  0.00  0.00    +0.000 S 
ATOM     25  C   UNL     1      45.767   5.460  12.149  0.00  0.00    +0.000 A 
ATOM     26  N   UNL     1      44.946   4.653  11.424  0.00  0.00    +0.000 NA
ATOM     27  C   UNL     1      44.970   3.411  11.777  0.00  0.00    +0.000 A 
ATOM     28  N   UNL     1      45.751   2.900  12.781  0.00  0.00    +0.000 N 
ATOM     29  C   UNL     1      46.643   3.662  13.497  0.00  0.00    +0.000 A 
ATOM     30  O   UNL     1      47.413   3.159  14.305  0.00  0.00    +0.000 OA
ATOM     31  C   UNL     1      46.620   5.079  13.170  0.00  0.00    +0.000 A 
ATOM     32  H   UNL     1      45.740   1.912  12.990  0.00  0.00    +0.000 HD
ENDBRANCH  19  22
ENDBRANCH  17  18
ENDBRANCH   5  17
TORSDOF 5
ENDMDL
MODEL 3
REMARK VINA RESULT:    -6.980      3.044      3.838
REMARK INTER + INTRA:         -10.039
REMARK INTER:                  -9.250
REMARK INTRA:                  -0.789
REMARK UNBOUND:                -1.019
REMARK  Name = 
REMARK  6 active torsions:
REMARK  status: ('A' for Active; 'I' for Inactive)
REMARK    1  A    between atoms: C_1  and  O_2
REMARK    2  A    between atoms: O_2  and  C_3
REMARK    3  A    between atoms: C_7  and  N_8
REMARK    4  A    between atoms: C_12  and  C_13
REMARK    5  A    between atoms: C_13  and  N_14
REMARK    6  A    between atoms: C_15  and  C_17
REMARK                            x       y       z     vdW  Elec       q    Type
REMARK                         _______ _______ _______ _____ _____    ______ ____
ROOT
ATOM      1  N   UNL     1      45.425   3.971  13.267  0.00  0.00    +0.000 N 
ATOM      2  C   UNL     1      46.394   4.649  14.006  0.00  0.00    +0.000 A 
ATOM      3  C   UNL     1      46.754   4.146  15.256  0.00  0.00    +0.000 A 
ATOM      4  C   UNL     1      47.762   4.770  15.991  0.00  0.00    +0.000 A 
ATOM      5  C   UNL     1      48.404   5.886  15.462  0.00  0.00    +0.000 A 
ATOM      6  C   UNL     1      47.985   6.324  14.218  0.00  0.00    +0.000 A 
ATOM      7  N   UNL     1      47.014   5.731  13.495  0.00  0.00    +0.000 NA
ATOM      8  H   UNL     1      44.897   3.260  13.750  0.00  0.00    +0.000 HD
ENDROOT
BRANCH   1  13
ATOM      9  C   UNL     1      44.850   2.903   9.936  0.00  0.00    +0.000 A 
ATOM     10  C   UNL     1      44.434   4.026   9.244  0.00  0.00    +0.000 A 
ATOM     11  C   UNL     1      44.307   5.209   9.954  0.00  0.00    +0.000 A 
ATOM     12  C   UNL     1      44.610   5.218  11.312  0.00  0.00    +0.000 A 
ATOM     13  C   UNL     1      45.035   4.049  11.937  0.00  0.00    +0.000 A 
ATOM     14  N   UNL     1      45.140   2.890  11.254  0.00  0.00    +0.000 NA
BRANCH   9  16
ATOM     15  C   UNL     1      46.052   1.791   8.273  0.00  0.00    +0.000 C 
ATOM     16  O   UNL     1      44.970   1.741   9.198  0.00  0.00    +0.000 OA
ENDBRANCH   9  16
ENDBRANCH   1  13
BRANCH   5  17
ATOM     17  C   UNL     1      49.453   6.633  16.222  0.00  0.00    +0.000 C 
BRANCH  17  18
ATOM     18  N   UNL     1      50.460   5.730  16.721  0.00  0.00    +0.000 N 
ATOM     19  C   UNL     1      50.666   5.534  18.062  0.00  0.00    +0.000 C 
ATOM     20  O   UNL     1      49.976   6.080  18.917  0.00  0.00    +0.000 OA
ATOM     21  H   UNL     1      51.178   5.441  16.066  0.00  0.00    +0.000 HD
BRANCH  19  22
ATOM     22  C   UNL     1      51.718   4.577  18.423  0.00  0.00    +0.000 A 
ATOM     23  C   UNL     1      52.791   5.002  19.193  0.00  0.00    +0.000 A 
ATOM     24  S   UNL     1      53.908   3.767  19.554  0.00  0.00    +0.000 S 
ATOM     25  C   UNL     1      53.022   2.629  18.653  0.00  0.00    +0.000 A 
ATOM     26  N   UNL     1      53.460   1.347  18.525  0.00  0.00    +0.000 NA
ATOM     27  C   UNL     1      52.710   0.598  17.786  0.00  0.00    +0.000 A 
ATOM     28  N   UNL     1      51.555   1.011  17.175  0.00  0.00    +0.000 N 
ATOM     29  C   UNL     1      51.038   2.276  17.328  0.00  0.00    +0.000 A 
ATOM     30  O   UNL     1      49.945   2.582  16.869  0.00  0.00    +0.000 OA
ATOM     31  C   UNL     1      51.871   3.173  18.112  0.00  0.00    +0.000 A 
ATOM     32  H   UNL     1      51.002   0.366  16.630  0.00  0.00    +0.000 HD
ENDBRANCH  19  22
ENDBRANCH  17  18
ENDBRANCH   5  17
TORSDOF 5
ENDMDL
MODEL 4
REMARK VINA RESULT:    -6.852      4.238      8.954
REMARK INTER + INTRA:          -9.874
REMARK INTER:                  -9.079
REMARK INTRA:                  -0.795
REMARK UNBOUND:                -1.019
REMARK  Name = 
REMARK  6 active torsions:
REMARK  status: ('A' for Active; 'I' for Inactive)
REMARK    1  A    between atoms: C_1  and  O_2
REMARK    2  A    between atoms: O_2  and  C_3
REMARK    3  A    between atoms: C_7  and  N_8
REMARK    4  A    between atoms: C_12  and  C_13
REMARK    5  A    between atoms: C_13  and  N_14
REMARK    6  A    between atoms: C_15  and  C_17
REMARK                            x       y       z     vdW  Elec       q    Type
REMARK                         _______ _______ _______ _____ _____    ______ ____
ROOT
ATOM      1  N   UNL     1      51.381   2.767  18.090  0.00  0.00    +0.000 N 
ATOM      2  C   UNL     1      50.788   3.904  17.541  0.00  0.00    +0.000 A 
ATOM      3  C   UNL     1      49.396   3.972  17.488  0.00  0.00    +0.000 A 
ATOM      4  C   UNL     1      48.776   5.121  16.998  0.00  0.00    +0.000 A 
ATOM      5  C   UNL     1      49.556   6.192  16.574  0.00  0.00    +0.000 A 
ATOM      6  C   UNL     1      50.930   6.044  16.656  0.00  0.00    +0.000 A 
ATOM      7  N   UNL     1      51.544   4.940  17.129  0.00  0.00    +0.000 NA
ATOM      8  H   UNL     1      50.782   1.971  18.250  0.00  0.00    +0.000 HD
ENDROOT
BRANCH   1  13
ATOM      9  C   UNL     1      54.425   0.984  18.446  0.00  0.00    +0.000 A 
ATOM     10  C   UNL     1      55.188   1.712  19.340  0.00  0.00    +0.000 A 
ATOM     11  C   UNL     1      54.657   2.896  19.824  0.00  0.00    +0.000 A 
ATOM     12  C   UNL     1      53.390   3.289  19.406  0.00  0.00    +0.000 A 
ATOM     13  C   UNL     1      52.675   2.496  18.513  0.00  0.00    +0.000 A 
ATOM     14  N   UNL     1      53.197   1.352  18.022  0.00  0.00    +0.000 NA
BRANCH   9  16
ATOM     15  C   UNL     1      54.675  -1.307  18.818  0.00  0.00    +0.000 C 
ATOM     16  O   UNL     1      54.981  -0.194  17.984  0.00  0.00    +0.000 OA
ENDBRANCH   9  16
ENDBRANCH   1  13
BRANCH   5  17
ATOM     17  C   UNL     1      48.955   7.430  15.988  0.00  0.00    +0.000 C 
BRANCH  17  18
ATOM     18  N   UNL     1      47.876   7.097  15.093  0.00  0.00    +0.000 N 
ATOM     19  C   UNL     1      48.093   6.719  13.794  0.00  0.00    +0.000 C 
ATOM     20  O   UNL     1      49.222   6.595  13.328  0.00  0.00    +0.000 OA
ATOM     21  H   UNL     1      46.946   7.397  15.370  0.00  0.00    +0.000 HD
BRANCH  19  22
ATOM     22  C   UNL     1      46.898   6.399  13.004  0.00  0.00    +0.000 A 
ATOM     23  C   UNL     1      46.225   7.418  12.344  0.00  0.00    +0.000 A 
ATOM     24  S   UNL     1      44.880   6.882  11.446  0.00  0.00    +0.000 S 
ATOM     25  C   UNL     1      45.121   5.273  11.944  0.00  0.00    +0.000 A 
ATOM     26  N   UNL     1      44.275   4.285  11.546  0.00  0.00    +0.000 NA
ATOM     27  C   UNL     1      44.553   3.118  12.024  0.00  0.00    +0.000 A 
ATOM     28  N   UNL     1      45.610   2.848  12.855  0.00  0.00    +0.000 N 
ATOM     29  C   UNL     1      46.529   3.798  13.231  0.00  0.00    +0.000 A 
ATOM     30  O   UNL     1      47.528   3.504  13.875  0.00  0.00    +0.000 OA
ATOM     31  C   UNL     1      46.233   5.140  12.757  0.00  0.00    +0.000 A 
ATOM     32  H   UNL     1      45.785   1.906  13.173  0.00  0.00    +0.000 HD
ENDBRANCH  19  22
ENDBRANCH  17  18
ENDBRANCH   5  17
TORSDOF 5
ENDMDL
MODEL 5
REMARK VINA RESULT:    -6.789      3.117      8.484
REMARK INTER + INTRA:          -9.793
REMARK INTER:                  -8.886
REMARK INTRA:                  -0.907
REMARK UNBOUND:                -1.019
REMARK  Name = 
REMARK  6 active torsions:
REMARK  status: ('A' for Active; 'I' for Inactive)
REMARK    1  A    between atoms: C_1  and  O_2
REMARK    2  A    between atoms: O_2  and  C_3
REMARK    3  A    between atoms: C_7  and  N_8
REMARK    4  A    between atoms: C_12  and  C_13
REMARK    5  A    between atoms: C_13  and  N_14
REMARK    6  A    between atoms: C_15  and  C_17
REMARK                            x       y       z     vdW  Elec       q    Type
REMARK                         _______ _______ _______ _____ _____    ______ ____
ROOT
ATOM      1  N   UNL     1      50.997   7.119  16.199  0.00  0.00    +0.000 N 
ATOM      2  C   UNL     1      50.164   7.286  15.093  0.00  0.00    +0.000 A 
ATOM      3  C   UNL     1      50.604   8.086  14.040  0.00  0.00    +0.000 A 
ATOM      4  C   UNL     1      49.816   8.224  12.897  0.00  0.00    +0.000 A 
ATOM      5  C   UNL     1      48.601   7.551  12.819  0.00  0.00    +0.000 A 
ATOM      6  C   UNL     1      48.234   6.780  13.908  0.00  0.00    +0.000 A 
ATOM      7  N   UNL     1      48.986   6.635  15.019  0.00  0.00    +0.000 NA
ATOM      8  H   UNL     1      51.795   7.733  16.267  0.00  0.00    +0.000 HD
ENDROOT
BRANCH   1  13
ATOM      9  C   UNL     1      51.361   4.036  17.912  0.00  0.00    +0.000 A 
ATOM     10  C   UNL     1      50.900   4.259  19.197  0.00  0.00    +0.000 A 
ATOM     11  C   UNL     1      50.475   5.539  19.514  0.00  0.00    +0.000 A 
ATOM     12  C   UNL     1      50.516   6.527  18.536  0.00  0.00    +0.000 A 
ATOM     13  C   UNL     1      50.980   6.223  17.259  0.00  0.00    +0.000 A 
ATOM     14  N   UNL     1      51.416   4.983  16.951  0.00  0.00    +0.000 NA
BRANCH   9  16
ATOM     15  C   UNL     1      50.696   1.901  17.241  0.00  0.00    +0.000 C 
ATOM     16  O   UNL     1      51.774   2.748  17.626  0.00  0.00    +0.000 OA
ENDBRANCH   9  16
ENDBRANCH   1  13
BRANCH   5  17
ATOM     17  C   UNL     1      47.685   7.700  11.646  0.00  0.00    +0.000 C 
BRANCH  17  18
ATOM     18  N   UNL     1      46.918   6.497  11.443  0.00  0.00    +0.000 N 
ATOM     19  C   UNL     1      45.559   6.458  11.615  0.00  0.00    +0.000 C 
ATOM     20  O   UNL     1      44.907   7.456  11.906  0.00  0.00    +0.000 OA
ATOM     21  H   UNL     1      47.436   5.625  11.420  0.00  0.00    +0.000 HD
BRANCH  19  22
ATOM     22  C   UNL     1      44.910   5.166  11.361  0.00  0.00    +0.000 A 
ATOM     23  C   UNL     1      44.103   4.606  12.341  0.00  0.00    +0.000 A 
ATOM     24  S   UNL     1      43.397   3.124  11.882  0.00  0.00    +0.000 S 
ATOM     25  C   UNL     1      44.183   3.155  10.374  0.00  0.00    +0.000 A 
ATOM     26  N   UNL     1      44.029   2.136   9.486  0.00  0.00    +0.000 NA
ATOM     27  C   UNL     1      44.709   2.269   8.396  0.00  0.00    +0.000 A 
ATOM     28  N   UNL     1      45.518   3.338   8.108  0.00  0.00    +0.000 N 
ATOM     29  C   UNL     1      45.655   4.421   8.943  0.00  0.00    +0.000 A 
ATOM     30  O   UNL     1      46.289   5.413   8.609  0.00  0.00    +0.000 OA
ATOM     31  C   UNL     1      44.947   4.296  10.207  0.00  0.00    +0.000 A 
ATOM     32  H   UNL     1      46.003   3.392   7.224  0.00  0.00    +0.000 HD
ENDBRANCH  19  22
ENDBRANCH  17  18
ENDBRANCH   5  17
TORSDOF 5
ENDMDL
MODEL 6
REMARK VINA RESULT:    -6.789      4.031      5.352
REMARK INTER + INTRA:          -9.792
REMARK INTER:                  -8.964
REMARK INTRA:                  -0.828
REMARK UNBOUND:                -1.019
REMARK  Name = 
REMARK  6 active torsions:
REMARK  status: ('A' for Active; 'I' for Inactive)
REMARK    1  A    between atoms: C_1  and  O_2
REMARK    2  A    between atoms: O_2  and  C_3
REMARK    3  A    between atoms: C_7  and  N_8
REMARK    4  A    between atoms: C_12  and  C_13
REMARK    5  A    between atoms: C_13  and  N_14
REMARK    6  A    between atoms: C_15  and  C_17
REMARK                            x       y       z     vdW  Elec       q    Type
REMARK                         _______ _______ _______ _____ _____    ______ ____
ROOT
ATOM      1  N   UNL     1      46.422   5.563  13.528  0.00  0.00    +0.000 N 
ATOM      2  C   UNL     1      47.104   5.116  14.660  0.00  0.00    +0.000 A 
ATOM      3  C   UNL     1      48.034   5.964  15.258  0.00  0.00    +0.000 A 
ATOM      4  C   UNL     1      48.688   5.565  16.424  0.00  0.00    +0.000 A 
ATOM      5  C   UNL     1      48.396   4.325  16.982  0.00  0.00    +0.000 A 
ATOM      6  C   UNL     1      47.464   3.540  16.325  0.00  0.00    +0.000 A 
ATOM      7  N   UNL     1      46.822   3.912  15.199  0.00  0.00    +0.000 NA
ATOM      8  H   UNL     1      46.769   6.401  13.088  0.00  0.00    +0.000 HD
ENDROOT
BRANCH   1  13
ATOM      9  C   UNL     1      44.502   3.660  11.233  0.00  0.00    +0.000 A 
ATOM     10  C   UNL     1      43.203   4.121  11.352  0.00  0.00    +0.000 A 
ATOM     11  C   UNL     1      42.955   5.110  12.290  0.00  0.00    +0.000 A 
ATOM     12  C   UNL     1      44.011   5.599  13.052  0.00  0.00    +0.000 A 
ATOM     13  C   UNL     1      45.295   5.095  12.867  0.00  0.00    +0.000 A 
ATOM     14  N   UNL     1      45.538   4.116  11.969  0.00  0.00    +0.000 NA
BRANCH   9  16
ATOM     15  C   UNL     1      44.632   3.173   8.954  0.00  0.00    +0.000 C 
ATOM     16  O   UNL     1      44.717   2.677  10.287  0.00  0.00    +0.000 OA
ENDBRANCH   9  16
ENDBRANCH   1  13
BRANCH   5  17
ATOM     17  C   UNL     1      49.101   3.816  18.199  0.00  0.00    +0.000 C 
BRANCH  17  18
ATOM     18  N   UNL     1      50.462   3.459  17.887  0.00  0.00    +0.000 N 
ATOM     19  C   UNL     1      51.520   3.871  18.655  0.00  0.00    +0.000 C 
ATOM     20  O   UNL     1      51.368   4.529  19.681  0.00  0.00    +0.000 OA
ATOM     21  H   UNL     1      50.640   3.115  16.950  0.00  0.00    +0.000 HD
BRANCH  19  22
ATOM     22  C   UNL     1      52.848   3.422  18.224  0.00  0.00    +0.000 A 
ATOM     23  C   UNL     1      53.919   4.303  18.286  0.00  0.00    +0.000 A 
ATOM     24  S   UNL     1      55.397   3.622  17.781  0.00  0.00    +0.000 S 
ATOM     25  C   UNL     1      54.651   2.138  17.417  0.00  0.00    +0.000 A 
ATOM     26  N   UNL     1      55.369   1.104  16.900  0.00  0.00    +0.000 NA
ATOM     27  C   UNL     1      54.673   0.048  16.638  0.00  0.00    +0.000 A 
ATOM     28  N   UNL     1      53.325  -0.072  16.858  0.00  0.00    +0.000 N 
ATOM     29  C   UNL     1      52.569   0.920  17.438  0.00  0.00    +0.000 A 
ATOM     30  O   UNL     1      51.395   0.742  17.732  0.00  0.00    +0.000 OA
ATOM     31  C   UNL     1      53.298   2.149  17.708  0.00  0.00    +0.000 A 
ATOM     32  H   UNL     1      52.845  -0.936  16.653  0.00  0.00    +0.000 HD
ENDBRANCH  19  22
ENDBRANCH  17  18
ENDBRANCH   5  17
TORSDOF 5
ENDMDL
MODEL 7
REMARK VINA RESULT:    -6.440      3.219      5.444
REMARK INTER + INTRA:          -9.341
REMARK INTER:                  -8.733
REMARK INTRA:                  -0.608
REMARK UNBOUND:                -1.019
REMARK  Name = 
REMARK  6 active torsions:
REMARK  status: ('A' for Active; 'I' for Inactive)
REMARK    1  A    between atoms: C_1  and  O_2
REMARK    2  A    between atoms: O_2  and  C_3
REMARK    3  A    between atoms: C_7  and  N_8
REMARK    4  A    between atoms: C_12  and  C_13
REMARK    5  A    between atoms: C_13  and  N_14
REMARK    6  A    between atoms: C_15  and  C_17
REMARK                            x       y       z     vdW  Elec       q    Type
REMARK                         _______ _______ _______ _____ _____    ______ ____
ROOT
ATOM      1  N   UNL     1      43.417   7.390  11.054  0.00  0.00    +0.000 N 
ATOM      2  C   UNL     1      44.188   6.451  11.738  0.00  0.00    +0.000 A 
ATOM      3  C   UNL     1      44.084   5.109  11.376  0.00  0.00    +0.000 A 
ATOM      4  C   UNL     1      44.886   4.157  12.005  0.00  0.00    +0.000 A 
ATOM      5  C   UNL     1      45.789   4.561  12.984  0.00  0.00    +0.000 A 
ATOM      6  C   UNL     1      45.828   5.910  13.288  0.00  0.00    +0.000 A 
ATOM      7  N   UNL     1      45.061   6.843  12.688  0.00  0.00    +0.000 NA
ATOM      8  H   UNL     1      42.685   7.033  10.458  0.00  0.00    +0.000 HD
ENDROOT
BRANCH   1  13
ATOM      9  C   UNL     1      42.313  10.699  10.415  0.00  0.00    +0.000 A 
ATOM     10  C   UNL     1      43.400  11.516  10.665  0.00  0.00    +0.000 A 
ATOM     11  C   UNL     1      44.566  10.916  11.111  0.00  0.00    +0.000 A 
ATOM     12  C   UNL     1      44.598   9.535  11.273  0.00  0.00    +0.000 A 
ATOM     13  C   UNL     1      43.466   8.776  10.988  0.00  0.00    +0.000 A 
ATOM     14  N   UNL     1      42.320   9.358  10.574  0.00  0.00    +0.000 NA
BRANCH   9  16
ATOM     15  C   UNL     1      39.985  10.798  10.564  0.00  0.00    +0.000 C 
ATOM     16  O   UNL     1      41.166  11.327   9.968  0.00  0.00    +0.000 OA
ENDBRANCH   9  16
ENDBRANCH   1  13
BRANCH   5  17
ATOM     17  C   UNL     1      46.637   3.584  13.733  0.00  0.00    +0.000 C 
BRANCH  17  18
ATOM     18  N   UNL     1      47.085   4.150  14.981  0.00  0.00    +0.000 N 
ATOM     19  C   UNL     1      47.956   3.494  15.811  0.00  0.00    +0.000 C 
ATOM     20  O   UNL     1      48.445   2.406  15.520  0.00  0.00    +0.000 OA
ATOM     21  H   UNL     1      46.544   4.925  15.349  0.00  0.00    +0.000 HD
BRANCH  19  22
ATOM     22  C   UNL     1      48.333   4.198  17.042  0.00  0.00    +0.000 A 
ATOM     23  C   UNL     1      48.163   3.567  18.266  0.00  0.00    +0.000 A 
ATOM     24  S   UNL     1      48.677   4.501  19.596  0.00  0.00    +0.000 S 
ATOM     25  C   UNL     1      49.102   5.802  18.586  0.00  0.00    +0.000 A 
ATOM     26  N   UNL     1      49.590   6.959  19.108  0.00  0.00    +0.000 NA
ATOM     27  C   UNL     1      49.839   7.877  18.234  0.00  0.00    +0.000 A 
ATOM     28  N   UNL     1      49.655   7.737  16.883  0.00  0.00    +0.000 N 
ATOM     29  C   UNL     1      49.227   6.566  16.302  0.00  0.00    +0.000 A 
ATOM     30  O   UNL     1      49.187   6.430  15.087  0.00  0.00    +0.000 OA
ATOM     31  C   UNL     1      48.887   5.517  17.250  0.00  0.00    +0.000 A 
ATOM     32  H   UNL     1      49.894   8.487  16.251  0.00  0.00    +0.000 HD
ENDBRANCH  19  22
ENDBRANCH  17  18
ENDBRANCH   5  17
TORSDOF 5
ENDMDL
MODEL 8
REMARK VINA RESULT:    -6.396      1.726      2.325
REMARK INTER + INTRA:          -9.285
REMARK INTER:                  -8.220
REMARK INTRA:                  -1.065
REMARK UNBOUND:                -1.019
REMARK  Name = 
REMARK  6 active torsions:
REMARK  status: ('A' for Active; 'I' for Inactive)
REMARK    1  A    between atoms: C_1  and  O_2
REMARK    2  A    between atoms: O_2  and  C_3
REMARK    3  A    between atoms: C_7  and  N_8
REMARK    4  A    between atoms: C_12  and  C_13
REMARK    5  A    between atoms: C_13  and  N_14
REMARK    6  A    between atoms: C_15  and  C_17
REMARK                            x       y       z     vdW  Elec       q    Type
REMARK                         _______ _______ _______ _____ _____    ______ ____
ROOT
ATOM      1  N   UNL     1      45.156   6.674  10.865  0.00  0.00    +0.000 N 
ATOM      2  C   UNL     1      46.163   7.209  11.669  0.00  0.00    +0.000 A 
ATOM      3  C   UNL     1      45.880   8.341  12.430  0.00  0.00    +0.000 A 
ATOM      4  C   UNL     1      46.850   8.863  13.286  0.00  0.00    +0.000 A 
ATOM      5  C   UNL     1      48.091   8.238  13.375  0.00  0.00    +0.000 A 
ATOM      6  C   UNL     1      48.294   7.121  12.584  0.00  0.00    +0.000 A 
ATOM      7  N   UNL     1      47.365   6.605  11.753  0.00  0.00    +0.000 NA
ATOM      8  H   UNL     1      44.331   7.239  10.730  0.00  0.00    +0.000 HD
ENDROOT
BRANCH   1  13
ATOM      9  C   UNL     1      44.148   3.320  10.312  0.00  0.00    +0.000 A 
ATOM     10  C   UNL     1      44.754   2.932   9.131  0.00  0.00    +0.000 A 
ATOM     11  C   UNL     1      45.521   3.872   8.462  0.00  0.00    +0.000 A 
ATOM     12  C   UNL     1      45.657   5.145   9.007  0.00  0.00    +0.000 A 
ATOM     13  C   UNL     1      45.027   5.458  10.208  0.00  0.00    +0.000 A 
ATOM     14  N   UNL     1      44.261   4.552  10.853  0.00  0.00    +0.000 NA
BRANCH   9  16
ATOM     15  C   UNL     1      43.391   2.522  12.370  0.00  0.00    +0.000 C 
ATOM     16  O   UNL     1      43.393   2.358  10.956  0.00  0.00    +0.000 OA
ENDBRANCH   9  16
ENDBRANCH   1  13
BRANCH   5  17
ATOM     17  C   UNL     1      49.191   8.778  14.232  0.00  0.00    +0.000 C 
BRANCH  17  18
ATOM     18  N   UNL     1      49.258   8.067  15.483  0.00  0.00    +0.000 N 
ATOM     19  C   UNL     1      50.418   7.498  15.940  0.00  0.00    +0.000 C 
ATOM     20  O   UNL     1      51.481   7.599  15.333  0.00  0.00    +0.000 OA
ATOM     21  H   UNL     1      48.375   7.778  15.891  0.00  0.00    +0.000 HD
BRANCH  19  22
ATOM     22  C   UNL     1      50.339   6.816  17.237  0.00  0.00    +0.000 A 
ATOM     23  C   UNL     1      51.107   7.277  18.297  0.00  0.00    +0.000 A 
ATOM     24  S   UNL     1      50.879   6.401  19.741  0.00  0.00    +0.000 S 
ATOM     25  C   UNL     1      49.779   5.344  18.988  0.00  0.00    +0.000 A 
ATOM     26  N   UNL     1      49.219   4.313  19.678  0.00  0.00    +0.000 NA
ATOM     27  C   UNL     1      48.430   3.568  18.978  0.00  0.00    +0.000 A 
ATOM     28  N   UNL     1      48.140   3.769  17.653  0.00  0.00    +0.000 N 
ATOM     29  C   UNL     1      48.629   4.832  16.932  0.00  0.00    +0.000 A 
ATOM     30  O   UNL     1      48.260   5.053  15.786  0.00  0.00    +0.000 OA
ATOM     31  C   UNL     1      49.562   5.674  17.663  0.00  0.00    +0.000 A 
ATOM     32  H   UNL     1      47.493   3.162  17.171  0.00  0.00    +0.000 HD
ENDBRANCH  19  22
ENDBRANCH  17  18
ENDBRANCH   5  17
TORSDOF 5
ENDMDL
MODEL 9
REMARK VINA RESULT:    -6.380      3.624      5.681
REMARK INTER + INTRA:          -9.264
REMARK INTER:                  -8.667
REMARK INTRA:                  -0.596
REMARK UNBOUND:                -1.019
REMARK  Name = 
REMARK  6 active torsions:
REMARK  status: ('A' for Active; 'I' for Inactive)
REMARK    1  A    between atoms: C_1  and  O_2
REMARK    2  A    between atoms: O_2  and  C_3
REMARK    3  A    between atoms: C_7  and  N_8
REMARK    4  A    between atoms: C_12  and  C_13
REMARK    5  A    between atoms: C_13  and  N_14
REMARK    6  A    between atoms: C_15  and  C_17
REMARK                            x       y       z     vdW  Elec       q    Type
REMARK                         _______ _______ _______ _____ _____    ______ ____
ROOT
ATOM      1  N   UNL     1      47.131   6.101  13.691  0.00  0.00    +0.000 N 
ATOM      2  C   UNL     1      47.513   5.308  14.772  0.00  0.00    +0.000 A 
ATOM      3  C   UNL     1      48.142   5.915  15.858  0.00  0.00    +0.000 A 
ATOM      4  C   UNL     1      48.482   5.156  16.977  0.00  0.00    +0.000 A 
ATOM      5  C   UNL     1      48.182   3.797  16.999  0.00  0.00    +0.000 A 
ATOM      6  C   UNL     1      47.560   3.270  15.881  0.00  0.00    +0.000 A 
ATOM      7  N   UNL     1      47.223   3.991  14.793  0.00  0.00    +0.000 NA
ATOM      8  H   UNL     1      47.494   7.042  13.664  0.00  0.00    +0.000 HD
ENDROOT
BRANCH   1  13
ATOM      9  C   UNL     1      44.347   4.840  11.893  0.00  0.00    +0.000 A 
ATOM     10  C   UNL     1      44.556   5.197  10.573  0.00  0.00    +0.000 A 
ATOM     11  C   UNL     1      45.687   5.939  10.278  0.00  0.00    +0.000 A 
ATOM     12  C   UNL     1      46.560   6.278  11.307  0.00  0.00    +0.000 A 
ATOM     13  C   UNL     1      46.290   5.872  12.610  0.00  0.00    +0.000 A 
ATOM     14  N   UNL     1      45.177   5.167  12.906  0.00  0.00    +0.000 NA
BRANCH   9  16
ATOM     15  C   UNL     1      43.498   2.720  12.375  0.00  0.00    +0.000 C 
ATOM     16  O   UNL     1      43.211   4.097  12.153  0.00  0.00    +0.000 OA
ENDBRANCH   9  16
ENDBRANCH   1  13
BRANCH   5  17
ATOM     17  C   UNL     1      48.569   2.917  18.145  0.00  0.00    +0.000 C 
BRANCH  17  18
ATOM     18  N   UNL     1      50.002   2.850  18.274  0.00  0.00    +0.000 N 
ATOM     19  C   UNL     1      50.780   2.117  17.417  0.00  0.00    +0.000 C 
ATOM     20  O   UNL     1      50.308   1.511  16.459  0.00  0.00    +0.000 OA
ATOM     21  H   UNL     1      50.394   3.147  19.162  0.00  0.00    +0.000 HD
BRANCH  19  22
ATOM     22  C   UNL     1      52.226   2.151  17.664  0.00  0.00    +0.000 A 
ATOM     23  C   UNL     1      52.923   0.958  17.797  0.00  0.00    +0.000 A 
ATOM     24  S   UNL     1      54.596   1.166  18.047  0.00  0.00    +0.000 S 
ATOM     25  C   UNL     1      54.442   2.859  18.033  0.00  0.00    +0.000 A 
ATOM     26  N   UNL     1      55.525   3.660  18.230  0.00  0.00    +0.000 NA
ATOM     27  C   UNL     1      55.262   4.924  18.230  0.00  0.00    +0.000 A 
ATOM     28  N   UNL     1      54.015   5.461  18.037  0.00  0.00    +0.000 N 
ATOM     29  C   UNL     1      52.904   4.698  17.769  0.00  0.00    +0.000 A 
ATOM     30  O   UNL     1      51.829   5.208  17.483  0.00  0.00    +0.000 OA
ATOM     31  C   UNL     1      53.139   3.263  17.806  0.00  0.00    +0.000 A 
ATOM     32  H   UNL     1      53.883   6.462  18.024  0.00  0.00    +0.000 HD
ENDBRANCH  19  22
ENDBRANCH  17  18
ENDBRANCH   5  17
TORSDOF 5
ENDMDL
