MODEL 1
REMARK VINA RESULT:    -8.366      0.000      0.000
REMARK INTER + INTRA:         -13.401
REMARK INTER:                 -12.034
REMARK INTRA:                  -1.367
REMARK UNBOUND:                -1.367
REMARK  Name = 
REMARK  8 active torsions:
REMARK  status: ('A' for Active; 'I' for Inactive)
REMARK    1  A    between atoms: C_2  and  C_20
REMARK    2  A    between atoms: N_3  and  C_4
REMARK    3  A    between atoms: C_4  and  C_5
REMARK    4  A    between atoms: C_8  and  C_9
REMARK    5  A    between atoms: C_9  and  O_10
REMARK    6  A    between atoms: C_9  and  C_11
REMARK    7  A    between atoms: C_11  and  C_12
REMARK    8  A    between atoms: C_12  and  N_13
REMARK                            x       y       z     vdW  Elec       q    Type
REMARK                         _______ _______ _______ _____ _____    ______ ____
ROOT
ATOM      1  C   UNL     1      46.804   7.916  13.238  0.00  0.00    +0.000 C 
ENDROOT
BRANCH   1   2
ATOM      2  C   UNL     1      46.071   6.921  12.391  0.00  0.00    +0.000 A 
ATOM      3  C   UNL     1      46.540   6.539  11.132  0.00  0.00    +0.000 A 
ATOM      4  C   UNL     1      45.808   5.634  10.368  0.00  0.00    +0.000 A 
ATOM      5  C   UNL     1      44.620   5.121  10.883  0.00  0.00    +0.000 A 
ATOM      6  N   UNL     1      44.187   5.422  12.132  0.00  0.00    +0.000 NA
ATOM      7  C   UNL     1      44.907   6.316  12.848  0.00  0.00    +0.000 A 
BRANCH   5   8
ATOM      8  C   UNL     1      43.828   4.113  10.070  0.00  0.00    +0.000 C 
BRANCH   8   9
ATOM      9  O   UNL     1      43.675   4.643   8.744  0.00  0.00    +0.000 OA
ATOM     10  H   UNL     1      44.110   3.998   8.154  0.00  0.00    +0.000 HD
ENDBRANCH   8   9
BRANCH   8  11
ATOM     11  C   UNL     1      44.482   2.733   9.939  0.00  0.00    +0.000 C 
BRANCH  11  12
ATOM     12  C   UNL     1      44.810   2.315   8.496  0.00  0.00    +0.000 C 
BRANCH  12  13
ATOM     13  N   UNL     1      46.238   2.523   8.190  0.00  0.00    +0.000 NA
ATOM     14  C   UNL     1      46.448   3.597   7.206  0.00  0.00    +0.000 C 
ATOM     15  C   UNL     1      46.751   2.899   5.894  0.00  0.00    +0.000 C 
ATOM     16  C   UNL     1      47.552   1.700   6.346  0.00  0.00    +0.000 C 
ATOM     17  C   UNL     1      46.864   1.302   7.639  0.00  0.00    +0.000 C 
ENDBRANCH  12  13
ENDBRANCH  11  12
ENDBRANCH   8  11
ENDBRANCH   5   8
ENDBRANCH   1   2
BRANCH   1  20
ATOM     18  O   UNL     1      49.335   6.722  13.505  0.00  0.00    +0.000 OA
ATOM     19  C   UNL     1      48.601   6.776  14.487  0.00  0.00    +0.000 C 
ATOM     20  N   UNL     1      47.337   7.305  14.427  0.00  0.00    +0.000 N 
ATOM     21  H   UNL     1      46.836   7.490  15.290  0.00  0.00    +0.000 HD
BRANCH  19  22
ATOM     22  C   UNL     1      49.003   6.221  15.786  0.00  0.00    +0.000 A 
ATOM     23  C   UNL     1      50.028   6.823  16.503  0.00  0.00    +0.000 A 
ATOM     24  S   UNL     1      50.391   6.029  17.968  0.00  0.00    +0.000 S 
ATOM     25  C   UNL     1      49.154   4.886  17.720  0.00  0.00    +0.000 A 
ATOM     26  N   UNL     1      48.906   3.913  18.638  0.00  0.00    +0.000 NA
ATOM     27  C   UNL     1      47.911   3.145  18.348  0.00  0.00    +0.000 A 
ATOM     28  N   UNL     1      47.149   3.253  17.214  0.00  0.00    +0.000 N 
ATOM     29  C   UNL     1      47.415   4.168  16.224  0.00  0.00    +0.000 A 
ATOM     30  O   UNL     1      46.796   4.150  15.162  0.00  0.00    +0.000 OA
ATOM     31  C   UNL     1      48.493   5.090  16.524  0.00  0.00    +0.000 A 
ATOM     32  H   UNL     1      46.398   2.602  17.032  0.00  0.00    +0.000 HD
ENDBRANCH  19  22
ENDBRANCH   1  20
TORSDOF 8
ENDMDL
MODEL 2
REMARK VINA RESULT:    -7.663      2.044      2.394
REMARK INTER + INTRA:         -12.390
REMARK INTER:                 -11.357
REMARK INTRA:                  -1.034
REMARK UNBOUND:                -1.367
REMARK  Name = 
REMARK  8 active torsions:
REMARK  status: ('A' for Active; 'I' for Inactive)
REMARK    1  A    between atoms: C_2  and  C_20
REMARK    2  A    between atoms: N_3  and  C_4
REMARK    3  A    between atoms: C_4  and  C_5
REMARK    4  A    between atoms: C_8  and  C_9
REMARK    5  A    between atoms: C_9  and  O_10
REMARK    6  A    between atoms: C_9  and  C_11
REMARK    7  A    between atoms: C_11  and  C_12
REMARK    8  A    between atoms: C_12  and  N_13
REMARK                            x       y       z     vdW  Elec       q    Type
REMARK                         _______ _______ _______ _____ _____    ______ ____
ROOT
ATOM      1  C   UNL     1      47.933   6.679  13.644  0.00  0.00    +0.000 C 
ENDROOT
BRANCH   1   2
ATOM      2  C   UNL     1      46.902   6.002  12.793  0.00  0.00    +0.000 A 
ATOM      3  C   UNL     1      46.583   6.467  11.515  0.00  0.00    +0.000 A 
ATOM      4  C   UNL     1      45.595   5.823  10.774  0.00  0.00    +0.000 A 
ATOM      5  C   UNL     1      44.949   4.719  11.325  0.00  0.00    +0.000 A 
ATOM      6  N   UNL     1      45.297   4.209  12.532  0.00  0.00    +0.000 NA
ATOM      7  C   UNL     1      46.248   4.861  13.239  0.00  0.00    +0.000 A 
BRANCH   5   8
ATOM      8  C   UNL     1      43.889   3.993  10.515  0.00  0.00    +0.000 C 
BRANCH   8   9
ATOM      9  O   UNL     1      43.636   4.767   9.332  0.00  0.00    +0.000 OA
ATOM     10  H   UNL     1      43.209   5.588   9.645  0.00  0.00    +0.000 HD
ENDBRANCH   8   9
BRANCH   8  11
ATOM     11  C   UNL     1      44.278   2.581  10.063  0.00  0.00    +0.000 C 
BRANCH  11  12
ATOM     12  C   UNL     1      44.616   2.458   8.569  0.00  0.00    +0.000 C 
BRANCH  12  13
ATOM     13  N   UNL     1      46.065   2.611   8.333  0.00  0.00    +0.000 NA
ATOM     14  C   UNL     1      46.363   3.684   7.370  0.00  0.00    +0.000 C 
ATOM     15  C   UNL     1      46.701   2.984   6.067  0.00  0.00    +0.000 C 
ATOM     16  C   UNL     1      47.432   1.751   6.545  0.00  0.00    +0.000 C 
ATOM     17  C   UNL     1      46.668   1.371   7.800  0.00  0.00    +0.000 C 
ENDBRANCH  12  13
ENDBRANCH  11  12
ENDBRANCH   8  11
ENDBRANCH   5   8
ENDBRANCH   1   2
BRANCH   1  20
ATOM     18  O   UNL     1      50.060   6.646  15.482  0.00  0.00    +0.000 OA
ATOM     19  C   UNL     1      48.952   6.275  15.855  0.00  0.00    +0.000 C 
ATOM     20  N   UNL     1      47.875   6.223  15.007  0.00  0.00    +0.000 N 
ATOM     21  H   UNL     1      46.948   6.081  15.394  0.00  0.00    +0.000 HD
BRANCH  19  22
ATOM     22  C   UNL     1      48.714   5.801  17.224  0.00  0.00    +0.000 A 
ATOM     23  C   UNL     1      48.944   4.468  17.541  0.00  0.00    +0.000 A 
ATOM     24  S   UNL     1      48.581   4.082  19.161  0.00  0.00    +0.000 S 
ATOM     25  C   UNL     1      48.156   5.693  19.509  0.00  0.00    +0.000 A 
ATOM     26  N   UNL     1      47.767   6.059  20.761  0.00  0.00    +0.000 NA
ATOM     27  C   UNL     1      47.520   7.318  20.897  0.00  0.00    +0.000 A 
ATOM     28  N   UNL     1      47.616   8.244  19.891  0.00  0.00    +0.000 N 
ATOM     29  C   UNL     1      47.928   7.905  18.597  0.00  0.00    +0.000 A 
ATOM     30  O   UNL     1      47.875   8.737  17.694  0.00  0.00    +0.000 OA
ATOM     31  C   UNL     1      48.263   6.508  18.399  0.00  0.00    +0.000 A 
ATOM     32  H   UNL     1      47.384   9.213  20.056  0.00  0.00    +0.000 HD
ENDBRANCH  19  22
ENDBRANCH   1  20
TORSDOF 8
ENDMDL
MODEL 3
REMARK VINA RESULT:    -7.197      2.055      2.666
REMARK INTER + INTRA:         -11.719
REMARK INTER:                 -10.626
REMARK INTRA:                  -1.094
REMARK UNBOUND:                -1.367
REMARK  Name = 
REMARK  8 active torsions:
REMARK  status: ('A' for Active; 'I' for Inactive)
REMARK    1  A    between atoms: C_2  and  C_20
REMARK    2  A    between atoms: N_3  and  C_4
REMARK    3  A    between atoms: C_4  and  C_5
REMARK    4  A    between atoms: C_8  and  C_9
REMARK    5  A    between atoms: C_9  and  O_10
REMARK    6  A    between atoms: C_9  and  C_11
REMARK    7  A    between atoms: C_11  and  C_12
REMARK    8  A    between atoms: C_12  and  N_13
REMARK                            x       y       z     vdW  Elec       q    Type
REMARK                         _______ _______ _______ _____ _____    ______ ____
ROOT
ATOM      1  C   UNL     1      48.792   6.888  13.811  0.00  0.00    +0.000 C 
ENDROOT
BRANCH   1   2
ATOM      2  C   UNL     1      47.441   6.286  13.571  0.00  0.00    +0.000 A 
ATOM      3  C   UNL     1      46.453   6.959  12.849  0.00  0.00    +0.000 A 
ATOM      4  C   UNL     1      45.202   6.373  12.678  0.00  0.00    +0.000 A 
ATOM      5  C   UNL     1      44.965   5.116  13.229  0.00  0.00    +0.000 A 
ATOM      6  N   UNL     1      45.934   4.415  13.870  0.00  0.00    +0.000 NA
ATOM      7  C   UNL     1      47.136   5.013  14.036  0.00  0.00    +0.000 A 
BRANCH   5   8
ATOM      8  C   UNL     1      43.613   4.454  13.027  0.00  0.00    +0.000 C 
BRANCH   8   9
ATOM      9  O   UNL     1      42.603   5.388  13.440  0.00  0.00    +0.000 OA
ATOM     10  H   UNL     1      42.653   6.125  12.801  0.00  0.00    +0.000 HD
ENDBRANCH   8   9
BRANCH   8  11
ATOM     11  C   UNL     1      43.301   4.053  11.581  0.00  0.00    +0.000 C 
BRANCH  11  12
ATOM     12  C   UNL     1      44.301   3.062  10.962  0.00  0.00    +0.000 C 
BRANCH  12  13
ATOM     13  N   UNL     1      44.107   2.948   9.504  0.00  0.00    +0.000 NA
ATOM     14  C   UNL     1      44.739   1.739   8.949  0.00  0.00    +0.000 C 
ATOM     15  C   UNL     1      46.010   2.214   8.271  0.00  0.00    +0.000 C 
ATOM     16  C   UNL     1      45.590   3.550   7.702  0.00  0.00    +0.000 C 
ATOM     17  C   UNL     1      44.679   4.105   8.782  0.00  0.00    +0.000 C 
ENDBRANCH  12  13
ENDBRANCH  11  12
ENDBRANCH   8  11
ENDBRANCH   5   8
ENDBRANCH   1   2
BRANCH   1  20
ATOM     18  O   UNL     1      48.295   8.739  15.868  0.00  0.00    +0.000 OA
ATOM     19  C   UNL     1      48.875   7.694  16.142  0.00  0.00    +0.000 C 
ATOM     20  N   UNL     1      49.190   6.760  15.187  0.00  0.00    +0.000 N 
ATOM     21  H   UNL     1      49.507   5.841  15.480  0.00  0.00    +0.000 HD
BRANCH  19  22
ATOM     22  C   UNL     1      49.328   7.394  17.506  0.00  0.00    +0.000 A 
ATOM     23  C   UNL     1      50.215   8.253  18.141  0.00  0.00    +0.000 A 
ATOM     24  S   UNL     1      50.665   7.735  19.702  0.00  0.00    +0.000 S 
ATOM     25  C   UNL     1      49.648   6.374  19.604  0.00  0.00    +0.000 A 
ATOM     26  N   UNL     1      49.542   5.504  20.645  0.00  0.00    +0.000 NA
ATOM     27  C   UNL     1      48.701   4.545  20.456  0.00  0.00    +0.000 A 
ATOM     28  N   UNL     1      47.963   4.368  19.314  0.00  0.00    +0.000 N 
ATOM     29  C   UNL     1      48.099   5.175  18.211  0.00  0.00    +0.000 A 
ATOM     30  O   UNL     1      47.523   4.911  17.158  0.00  0.00    +0.000 OA
ATOM     31  C   UNL     1      48.996   6.301  18.389  0.00  0.00    +0.000 A 
ATOM     32  H   UNL     1      47.339   3.580  19.218  0.00  0.00    +0.000 HD
ENDBRANCH  19  22
ENDBRANCH   1  20
TORSDOF 8
ENDMDL
MODEL 4
REMARK VINA RESULT:    -6.885      2.767      3.436
REMARK INTER + INTRA:         -11.272
REMARK INTER:                 -10.336
REMARK INTRA:                  -0.936
REMARK UNBOUND:                -1.367
REMARK  Name = 
REMARK  8 active torsions:
REMARK  status: ('A' for Active; 'I' for Inactive)
REMARK    1  A    between atoms: C_2  and  C_20
REMARK    2  A    between atoms: N_3  and  C_4
REMARK    3  A    between atoms: C_4  and  C_5
REMARK    4  A    between atoms: C_8  and  C_9
REMARK    5  A    between atoms: C_9  and  O_10
REMARK    6  A    between atoms: C_9  and  C_11
REMARK    7  A    between atoms: C_11  and  C_12
REMARK    8  A    between atoms: C_12  and  N_13
REMARK                            x       y       z     vdW  Elec       q    Type
REMARK                         _______ _______ _______ _____ _____    ______ ____
ROOT
ATOM      1  C   UNL     1      47.609   5.002  14.659  0.00  0.00    +0.000 C 
ENDROOT
BRANCH   1   2
ATOM      2  C   UNL     1      46.662   4.857  13.507  0.00  0.00    +0.000 A 
ATOM      3  C   UNL     1      46.362   5.929  12.662  0.00  0.00    +0.000 A 
ATOM      4  C   UNL     1      45.452   5.755  11.623  0.00  0.00    +0.000 A 
ATOM      5  C   UNL     1      44.863   4.506  11.443  0.00  0.00    +0.000 A 
ATOM      6  N   UNL     1      45.196   3.435  12.206  0.00  0.00    +0.000 NA
ATOM      7  C   UNL     1      46.071   3.634  13.219  0.00  0.00    +0.000 A 
BRANCH   5   8
ATOM      8  C   UNL     1      43.890   4.297  10.296  0.00  0.00    +0.000 C 
BRANCH   8   9
ATOM      9  O   UNL     1      43.063   5.468  10.206  0.00  0.00    +0.000 OA
ATOM     10  H   UNL     1      42.713   5.470   9.294  0.00  0.00    +0.000 HD
ENDBRANCH   8   9
BRANCH   8  11
ATOM     11  C   UNL     1      44.543   4.091   8.925  0.00  0.00    +0.000 C 
BRANCH  11  12
ATOM     12  C   UNL     1      45.008   2.652   8.648  0.00  0.00    +0.000 C 
BRANCH  12  13
ATOM     13  N   UNL     1      46.419   2.620   8.216  0.00  0.00    +0.000 NA
ATOM     14  C   UNL     1      46.722   3.659   7.218  0.00  0.00    +0.000 C 
ATOM     15  C   UNL     1      46.786   2.941   5.884  0.00  0.00    +0.000 C 
ATOM     16  C   UNL     1      47.408   1.616   6.261  0.00  0.00    +0.000 C 
ATOM     17  C   UNL     1      46.777   1.320   7.610  0.00  0.00    +0.000 C 
ENDBRANCH  12  13
ENDBRANCH  11  12
ENDBRANCH   8  11
ENDBRANCH   5   8
ENDBRANCH   1   2
BRANCH   1  20
ATOM     18  O   UNL     1      49.870   6.197  15.824  0.00  0.00    +0.000 OA
ATOM     19  C   UNL     1      48.884   6.891  15.603  0.00  0.00    +0.000 C 
ATOM     20  N   UNL     1      47.728   6.373  15.075  0.00  0.00    +0.000 N 
ATOM     21  H   UNL     1      47.007   7.007  14.746  0.00  0.00    +0.000 HD
BRANCH  19  22
ATOM     22  C   UNL     1      48.849   8.319  15.944  0.00  0.00    +0.000 A 
ATOM     23  C   UNL     1      49.300   9.258  15.025  0.00  0.00    +0.000 A 
ATOM     24  S   UNL     1      49.225  10.862  15.597  0.00  0.00    +0.000 S 
ATOM     25  C   UNL     1      48.538  10.363  17.072  0.00  0.00    +0.000 A 
ATOM     26  N   UNL     1      48.196  11.270  18.028  0.00  0.00    +0.000 NA
ATOM     27  C   UNL     1      47.641  10.760  19.075  0.00  0.00    +0.000 A 
ATOM     28  N   UNL     1      47.408   9.422  19.260  0.00  0.00    +0.000 N 
ATOM     29  C   UNL     1      47.809   8.466  18.358  0.00  0.00    +0.000 A 
ATOM     30  O   UNL     1      47.704   7.269  18.615  0.00  0.00    +0.000 OA
ATOM     31  C   UNL     1      48.393   8.990  17.138  0.00  0.00    +0.000 A 
ATOM     32  H   UNL     1      46.992   9.083  20.115  0.00  0.00    +0.000 HD
ENDBRANCH  19  22
ENDBRANCH   1  20
TORSDOF 8
ENDMDL
MODEL 5
REMARK VINA RESULT:    -6.884      2.224      3.473
REMARK INTER + INTRA:         -11.269
REMARK INTER:                 -10.138
REMARK INTRA:                  -1.131
REMARK UNBOUND:                -1.367
REMARK  Name = 
REMARK  8 active torsions:
REMARK  status: ('A' for Active; 'I' for Inactive)
REMARK    1  A    between atoms: C_2  and  C_20
REMARK    2  A    between atoms: N_3  and  C_4
REMARK    3  A    between atoms: C_4  and  C_5
REMARK    4  A    between atoms: C_8  and  C_9
REMARK    5  A    between atoms: C_9  and  O_10
REMARK    6  A    between atoms: C_9  and  C_11
REMARK    7  A    between atoms: C_11  and  C_12
REMARK    8  A    between atoms: C_12  and  N_13
REMARK                            x       y       z     vdW  Elec       q    Type
REMARK                         _______ _______ _______ _____ _____    ______ ____
ROOT
ATOM      1  C   UNL     1      47.496   4.176  14.793  0.00  0.00    +0.000 C 
ENDROOT
BRANCH   1   2
ATOM      2  C   UNL     1      46.558   4.303  13.632  0.00  0.00    +0.000 A 
ATOM      3  C   UNL     1      46.288   5.537  13.035  0.00  0.00    +0.000 A 
ATOM      4  C   UNL     1      45.385   5.610  11.978  0.00  0.00    +0.000 A 
ATOM      5  C   UNL     1      44.773   4.441  11.531  0.00  0.00    +0.000 A 
ATOM      6  N   UNL     1      45.078   3.225  12.047  0.00  0.00    +0.000 NA
ATOM      7  C   UNL     1      45.947   3.183  13.084  0.00  0.00    +0.000 A 
BRANCH   5   8
ATOM      8  C   UNL     1      43.807   4.504  10.361  0.00  0.00    +0.000 C 
BRANCH   8   9
ATOM      9  O   UNL     1      43.105   5.755  10.441  0.00  0.00    +0.000 OA
ATOM     10  H   UNL     1      42.873   5.863  11.384  0.00  0.00    +0.000 HD
ENDBRANCH   8   9
BRANCH   8  11
ATOM     11  C   UNL     1      44.464   4.437   8.978  0.00  0.00    +0.000 C 
BRANCH  11  12
ATOM     12  C   UNL     1      44.743   3.013   8.470  0.00  0.00    +0.000 C 
BRANCH  12  13
ATOM     13  N   UNL     1      46.185   2.796   8.247  0.00  0.00    +0.000 NA
ATOM     14  C   UNL     1      46.716   3.643   7.166  0.00  0.00    +0.000 C 
ATOM     15  C   UNL     1      46.872   2.727   5.966  0.00  0.00    +0.000 C 
ATOM     16  C   UNL     1      47.300   1.428   6.607  0.00  0.00    +0.000 C 
ATOM     17  C   UNL     1      46.480   1.394   7.883  0.00  0.00    +0.000 C 
ENDBRANCH  12  13
ENDBRANCH  11  12
ENDBRANCH   8  11
ENDBRANCH   5   8
ENDBRANCH   1   2
BRANCH   1  20
ATOM     18  O   UNL     1      49.403   4.791  16.765  0.00  0.00    +0.000 OA
ATOM     19  C   UNL     1      48.579   5.645  16.454  0.00  0.00    +0.000 C 
ATOM     20  N   UNL     1      47.592   5.407  15.530  0.00  0.00    +0.000 N 
ATOM     21  H   UNL     1      47.048   6.187  15.176  0.00  0.00    +0.000 HD
BRANCH  19  22
ATOM     22  C   UNL     1      48.554   6.967  17.093  0.00  0.00    +0.000 A 
ATOM     23  C   UNL     1      48.379   7.063  18.467  0.00  0.00    +0.000 A 
ATOM     24  S   UNL     1      48.336   8.669  19.037  0.00  0.00    +0.000 S 
ATOM     25  C   UNL     1      48.604   9.290  17.475  0.00  0.00    +0.000 A 
ATOM     26  N   UNL     1      48.704  10.630  17.262  0.00  0.00    +0.000 NA
ATOM     27  C   UNL     1      48.955  10.960  16.041  0.00  0.00    +0.000 A 
ATOM     28  N   UNL     1      49.104  10.071  15.008  0.00  0.00    +0.000 N 
ATOM     29  C   UNL     1      48.932   8.717  15.163  0.00  0.00    +0.000 A 
ATOM     30  O   UNL     1      48.940   7.962  14.194  0.00  0.00    +0.000 OA
ATOM     31  C   UNL     1      48.697   8.288  16.529  0.00  0.00    +0.000 A 
ATOM     32  H   UNL     1      49.274  10.395  14.067  0.00  0.00    +0.000 HD
ENDBRANCH  19  22
ENDBRANCH   1  20
TORSDOF 8
ENDMDL
MODEL 6
REMARK VINA RESULT:    -6.623      3.222      8.004
REMARK INTER + INTRA:         -10.894
REMARK INTER:                  -9.426
REMARK INTRA:                  -1.468
REMARK UNBOUND:                -1.367
REMARK  Name = 
REMARK  8 active torsions:
REMARK  status: ('A' for Active; 'I' for Inactive)
REMARK    1  A    between atoms: C_2  and  C_20
REMARK    2  A    between atoms: N_3  and  C_4
REMARK    3  A    between atoms: C_4  and  C_5
REMARK    4  A    between atoms: C_8  and  C_9
REMARK    5  A    between atoms: C_9  and  O_10
REMARK    6  A    between atoms: C_9  and  C_11
REMARK    7  A    between atoms: C_11  and  C_12
REMARK    8  A    between atoms: C_12  and  N_13
REMARK                            x       y       z     vdW  Elec       q    Type
REMARK                         _______ _______ _______ _____ _____    ______ ____
ROOT
ATOM      1  C   UNL     1      48.370   7.955  12.162  0.00  0.00    +0.000 C 
ENDROOT
BRANCH   1   2
ATOM      2  C   UNL     1      49.002   7.569  13.464  0.00  0.00    +0.000 A 
ATOM      3  C   UNL     1      48.329   6.787  14.406  0.00  0.00    +0.000 A 
ATOM      4  C   UNL     1      48.946   6.480  15.616  0.00  0.00    +0.000 A 
ATOM      5  C   UNL     1      50.232   6.957  15.858  0.00  0.00    +0.000 A 
ATOM      6  N   UNL     1      50.930   7.654  14.927  0.00  0.00    +0.000 NA
ATOM      7  C   UNL     1      50.302   7.952  13.766  0.00  0.00    +0.000 A 
BRANCH   5   8
ATOM      8  C   UNL     1      50.926   6.606  17.162  0.00  0.00    +0.000 C 
BRANCH   8   9
ATOM      9  O   UNL     1      50.976   7.796  17.965  0.00  0.00    +0.000 OA
ATOM     10  H   UNL     1      51.830   8.219  17.750  0.00  0.00    +0.000 HD
ENDBRANCH   8   9
BRANCH   8  11
ATOM     11  C   UNL     1      50.229   5.523  17.993  0.00  0.00    +0.000 C 
BRANCH  11  12
ATOM     12  C   UNL     1      50.685   4.087  17.686  0.00  0.00    +0.000 C 
BRANCH  12  13
ATOM     13  N   UNL     1      49.605   3.116  17.942  0.00  0.00    +0.000 NA
ATOM     14  C   UNL     1      49.291   2.303  16.755  0.00  0.00    +0.000 C 
ATOM     15  C   UNL     1      48.005   2.875  16.193  0.00  0.00    +0.000 C 
ATOM     16  C   UNL     1      47.252   3.263  17.444  0.00  0.00    +0.000 C 
ATOM     17  C   UNL     1      48.351   3.784  18.352  0.00  0.00    +0.000 C 
ENDBRANCH  12  13
ENDBRANCH  11  12
ENDBRANCH   8  11
ENDBRANCH   5   8
ENDBRANCH   1   2
BRANCH   1  20
ATOM     18  O   UNL     1      45.584   7.880  11.792  0.00  0.00    +0.000 OA
ATOM     19  C   UNL     1      46.255   6.924  11.418  0.00  0.00    +0.000 C 
ATOM     20  N   UNL     1      47.614   6.867  11.601  0.00  0.00    +0.000 N 
ATOM     21  H   UNL     1      48.147   6.148  11.124  0.00  0.00    +0.000 HD
BRANCH  19  22
ATOM     22  C   UNL     1      45.641   5.741  10.800  0.00  0.00    +0.000 A 
ATOM     23  C   UNL     1      45.828   5.497   9.446  0.00  0.00    +0.000 A 
ATOM     24  S   UNL     1      45.017   4.106   8.887  0.00  0.00    +0.000 S 
ATOM     25  C   UNL     1      44.432   3.752  10.446  0.00  0.00    +0.000 A 
ATOM     26  N   UNL     1      43.669   2.648  10.673  0.00  0.00    +0.000 NA
ATOM     27  C   UNL     1      43.335   2.475  11.907  0.00  0.00    +0.000 A 
ATOM     28  N   UNL     1      43.683   3.313  12.934  0.00  0.00    +0.000 N 
ATOM     29  C   UNL     1      44.382   4.478  12.737  0.00  0.00    +0.000 A 
ATOM     30  O   UNL     1      44.562   5.272  13.657  0.00  0.00    +0.000 OA
ATOM     31  C   UNL     1      44.827   4.696  11.374  0.00  0.00    +0.000 A 
ATOM     32  H   UNL     1      43.366   3.135  13.876  0.00  0.00    +0.000 HD
ENDBRANCH  19  22
ENDBRANCH   1  20
TORSDOF 8
ENDMDL
MODEL 7
REMARK VINA RESULT:    -6.597      2.768      3.760
REMARK INTER + INTRA:         -10.857
REMARK INTER:                 -10.048
REMARK INTRA:                  -0.809
REMARK UNBOUND:                -1.367
REMARK  Name = 
REMARK  8 active torsions:
REMARK  status: ('A' for Active; 'I' for Inactive)
REMARK    1  A    between atoms: C_2  and  C_20
REMARK    2  A    between atoms: N_3  and  C_4
REMARK    3  A    between atoms: C_4  and  C_5
REMARK    4  A    between atoms: C_8  and  C_9
REMARK    5  A    between atoms: C_9  and  O_10
REMARK    6  A    between atoms: C_9  and  C_11
REMARK    7  A    between atoms: C_11  and  C_12
REMARK    8  A    between atoms: C_12  and  N_13
REMARK                            x       y       z     vdW  Elec       q    Type
REMARK                         _______ _______ _______ _____ _____    ______ ____
ROOT
ATOM      1  C   UNL     1      48.321   6.532  14.058  0.00  0.00    +0.000 C 
ENDROOT
BRANCH   1   2
ATOM      2  C   UNL     1      47.035   5.871  13.665  0.00  0.00    +0.000 A 
ATOM      3  C   UNL     1      46.055   6.545  12.932  0.00  0.00    +0.000 A 
ATOM      4  C   UNL     1      44.863   5.899  12.617  0.00  0.00    +0.000 A 
ATOM      5  C   UNL     1      44.675   4.585  13.036  0.00  0.00    +0.000 A 
ATOM      6  N   UNL     1      45.644   3.890  13.683  0.00  0.00    +0.000 NA
ATOM      7  C   UNL     1      46.787   4.544  13.992  0.00  0.00    +0.000 A 
BRANCH   5   8
ATOM      8  C   UNL     1      43.391   3.861  12.675  0.00  0.00    +0.000 C 
BRANCH   8   9
ATOM      9  O   UNL     1      42.367   4.852  12.491  0.00  0.00    +0.000 OA
ATOM     10  H   UNL     1      42.583   5.296  11.648  0.00  0.00    +0.000 HD
ENDBRANCH   8   9
BRANCH   8  11
ATOM     11  C   UNL     1      43.458   3.029  11.389  0.00  0.00    +0.000 C 
BRANCH  11  12
ATOM     12  C   UNL     1      44.733   3.240  10.557  0.00  0.00    +0.000 C 
BRANCH  12  13
ATOM     13  N   UNL     1      44.509   2.898   9.139  0.00  0.00    +0.000 NA
ATOM     14  C   UNL     1      45.176   1.642   8.755  0.00  0.00    +0.000 C 
ATOM     15  C   UNL     1      46.410   2.054   7.975  0.00  0.00    +0.000 C 
ATOM     16  C   UNL     1      45.922   3.272   7.223  0.00  0.00    +0.000 C 
ATOM     17  C   UNL     1      45.015   3.951   8.233  0.00  0.00    +0.000 C 
ENDBRANCH  12  13
ENDBRANCH  11  12
ENDBRANCH   8  11
ENDBRANCH   5   8
ENDBRANCH   1   2
BRANCH   1  20
ATOM     18  O   UNL     1      49.352   5.263  16.344  0.00  0.00    +0.000 OA
ATOM     19  C   UNL     1      48.830   6.365  16.467  0.00  0.00    +0.000 C 
ATOM     20  N   UNL     1      48.267   7.030  15.407  0.00  0.00    +0.000 N 
ATOM     21  H   UNL     1      48.007   8.005  15.516  0.00  0.00    +0.000 HD
BRANCH  19  22
ATOM     22  C   UNL     1      48.716   7.028  17.773  0.00  0.00    +0.000 A 
ATOM     23  C   UNL     1      48.099   6.368  18.827  0.00  0.00    +0.000 A 
ATOM     24  S   UNL     1      48.019   7.295  20.256  0.00  0.00    +0.000 S 
ATOM     25  C   UNL     1      48.854   8.589  19.531  0.00  0.00    +0.000 A 
ATOM     26  N   UNL     1      49.146   9.716  20.235  0.00  0.00    +0.000 NA
ATOM     27  C   UNL     1      49.823  10.596  19.578  0.00  0.00    +0.000 A 
ATOM     28  N   UNL     1      50.225  10.457  18.275  0.00  0.00    +0.000 N 
ATOM     29  C   UNL     1      49.884   9.372  17.505  0.00  0.00    +0.000 A 
ATOM     30  O   UNL     1      50.146   9.340  16.305  0.00  0.00    +0.000 OA
ATOM     31  C   UNL     1      49.165   8.329  18.210  0.00  0.00    +0.000 A 
ATOM     32  H   UNL     1      50.732  11.195  17.809  0.00  0.00    +0.000 HD
ENDBRANCH  19  22
ENDBRANCH   1  20
TORSDOF 8
ENDMDL
MODEL 8
REMARK VINA RESULT:    -6.594      2.822      8.358
REMARK INTER + INTRA:         -10.852
REMARK INTER:                  -9.600
REMARK INTRA:                  -1.252
REMARK UNBOUND:                -1.367
REMARK  Name = 
REMARK  8 active torsions:
REMARK  status: ('A' for Active; 'I' for Inactive)
REMARK    1  A    between atoms: C_2  and  C_20
REMARK    2  A    between atoms: N_3  and  C_4
REMARK    3  A    between atoms: C_4  and  C_5
REMARK    4  A    between atoms: C_8  and  C_9
REMARK    5  A    between atoms: C_9  and  O_10
REMARK    6  A    between atoms: C_9  and  C_11
REMARK    7  A    between atoms: C_11  and  C_12
REMARK    8  A    between atoms: C_12  and  N_13
REMARK                            x       y       z     vdW  Elec       q    Type
REMARK                         _______ _______ _______ _____ _____    ______ ____
ROOT
ATOM      1  C   UNL     1      47.750   7.681  11.971  0.00  0.00    +0.000 C 
ENDROOT
BRANCH   1   2
ATOM      2  C   UNL     1      48.649   7.528  13.160  0.00  0.00    +0.000 A 
ATOM      3  C   UNL     1      49.823   8.273  13.295  0.00  0.00    +0.000 A 
ATOM      4  C   UNL     1      50.642   8.074  14.403  0.00  0.00    +0.000 A 
ATOM      5  C   UNL     1      50.267   7.136  15.361  0.00  0.00    +0.000 A 
ATOM      6  N   UNL     1      49.095   6.457  15.285  0.00  0.00    +0.000 NA
ATOM      7  C   UNL     1      48.324   6.657  14.191  0.00  0.00    +0.000 A 
BRANCH   5   8
ATOM      8  C   UNL     1      51.138   6.930  16.587  0.00  0.00    +0.000 C 
BRANCH   8   9
ATOM      9  O   UNL     1      51.277   8.200  17.243  0.00  0.00    +0.000 OA
ATOM     10  H   UNL     1      51.815   8.748  16.640  0.00  0.00    +0.000 HD
ENDBRANCH   8   9
BRANCH   8  11
ATOM     11  C   UNL     1      50.580   5.941  17.617  0.00  0.00    +0.000 C 
BRANCH  11  12
ATOM     12  C   UNL     1      51.119   4.507  17.486  0.00  0.00    +0.000 C 
BRANCH  12  13
ATOM     13  N   UNL     1      50.188   3.529  18.078  0.00  0.00    +0.000 NA
ATOM     14  C   UNL     1      50.098   2.292  17.284  0.00  0.00    +0.000 C 
ATOM     15  C   UNL     1      48.784   2.382  16.531  0.00  0.00    +0.000 C 
ATOM     16  C   UNL     1      47.886   3.069  17.533  0.00  0.00    +0.000 C 
ATOM     17  C   UNL     1      48.817   4.073  18.189  0.00  0.00    +0.000 C 
ENDBRANCH  12  13
ENDBRANCH  11  12
ENDBRANCH   8  11
ENDBRANCH   5   8
ENDBRANCH   1   2
BRANCH   1  20
ATOM     18  O   UNL     1      44.949   7.471  12.090  0.00  0.00    +0.000 OA
ATOM     19  C   UNL     1      45.603   6.480  11.780  0.00  0.00    +0.000 C 
ATOM     20  N   UNL     1      46.974   6.492  11.740  0.00  0.00    +0.000 N 
ATOM     21  H   UNL     1      47.463   5.712  11.312  0.00  0.00    +0.000 HD
BRANCH  19  22
ATOM     22  C   UNL     1      44.963   5.191  11.487  0.00  0.00    +0.000 A 
ATOM     23  C   UNL     1      44.195   4.567  12.462  0.00  0.00    +0.000 A 
ATOM     24  S   UNL     1      43.560   3.064  11.968  0.00  0.00    +0.000 S 
ATOM     25  C   UNL     1      44.245   3.220  10.418  0.00  0.00    +0.000 A 
ATOM     26  N   UNL     1      44.055   2.263   9.469  0.00  0.00    +0.000 NA
ATOM     27  C   UNL     1      44.588   2.530   8.326  0.00  0.00    +0.000 A 
ATOM     28  N   UNL     1      45.306   3.664   8.047  0.00  0.00    +0.000 N 
ATOM     29  C   UNL     1      45.589   4.616   8.996  0.00  0.00    +0.000 A 
ATOM     30  O   UNL     1      46.346   5.552   8.748  0.00  0.00    +0.000 OA
ATOM     31  C   UNL     1      44.970   4.388  10.287  0.00  0.00    +0.000 A 
ATOM     32  H   UNL     1      45.721   3.802   7.137  0.00  0.00    +0.000 HD
ENDBRANCH  19  22
ENDBRANCH   1  20
TORSDOF 8
ENDMDL
MODEL 9
REMARK VINA RESULT:    -6.456      3.468      4.674
REMARK INTER + INTRA:         -10.653
REMARK INTER:                  -9.668
REMARK INTRA:                  -0.985
REMARK UNBOUND:                -1.367
REMARK  Name = 
REMARK  8 active torsions:
REMARK  status: ('A' for Active; 'I' for Inactive)
REMARK    1  A    between atoms: C_2  and  C_20
REMARK    2  A    between atoms: N_3  and  C_4
REMARK    3  A    between atoms: C_4  and  C_5
REMARK    4  A    between atoms: C_8  and  C_9
REMARK    5  A    between atoms: C_9  and  O_10
REMARK    6  A    between atoms: C_9  and  C_11
REMARK    7  A    between atoms: C_11  and  C_12
REMARK    8  A    between atoms: C_12  and  N_13
REMARK                            x       y       z     vdW  Elec       q    Type
REMARK                         _______ _______ _______ _____ _____    ______ ____
ROOT
ATOM      1  C   UNL     1      47.631   6.926  13.702  0.00  0.00    +0.000 C 
ENDROOT
BRANCH   1   2
ATOM      2  C   UNL     1      46.685   6.185  12.808  0.00  0.00    +0.000 A 
ATOM      3  C   UNL     1      46.582   6.474  11.445  0.00  0.00    +0.000 A 
ATOM      4  C   UNL     1      45.665   5.780  10.660  0.00  0.00    +0.000 A 
ATOM      5  C   UNL     1      44.872   4.801  11.253  0.00  0.00    +0.000 A 
ATOM      6  N   UNL     1      45.010   4.455  12.557  0.00  0.00    +0.000 NA
ATOM      7  C   UNL     1      45.896   5.155  13.302  0.00  0.00    +0.000 A 
BRANCH   5   8
ATOM      8  C   UNL     1      43.889   4.018  10.401  0.00  0.00    +0.000 C 
BRANCH   8   9
ATOM      9  O   UNL     1      43.717   4.731   9.166  0.00  0.00    +0.000 OA
ATOM     10  H   UNL     1      44.028   4.122   8.469  0.00  0.00    +0.000 HD
ENDBRANCH   8   9
BRANCH   8  11
ATOM     11  C   UNL     1      44.331   2.593  10.050  0.00  0.00    +0.000 C 
BRANCH  11  12
ATOM     12  C   UNL     1      44.677   2.377   8.568  0.00  0.00    +0.000 C 
BRANCH  12  13
ATOM     13  N   UNL     1      46.118   2.576   8.321  0.00  0.00    +0.000 NA
ATOM     14  C   UNL     1      46.376   3.654   7.352  0.00  0.00    +0.000 C 
ATOM     15  C   UNL     1      46.727   2.960   6.049  0.00  0.00    +0.000 C 
ATOM     16  C   UNL     1      47.500   1.752   6.527  0.00  0.00    +0.000 C 
ATOM     17  C   UNL     1      46.757   1.353   7.789  0.00  0.00    +0.000 C 
ENDBRANCH  12  13
ENDBRANCH  11  12
ENDBRANCH   8  11
ENDBRANCH   5   8
ENDBRANCH   1   2
BRANCH   1  20
ATOM     18  O   UNL     1      49.446   8.928  14.478  0.00  0.00    +0.000 OA
ATOM     19  C   UNL     1      49.684   8.274  13.468  0.00  0.00    +0.000 C 
ATOM     20  N   UNL     1      48.828   7.309  13.002  0.00  0.00    +0.000 N 
ATOM     21  H   UNL     1      49.144   6.677  12.274  0.00  0.00    +0.000 HD
BRANCH  19  22
ATOM     22  C   UNL     1      50.879   8.521  12.650  0.00  0.00    +0.000 A 
ATOM     23  C   UNL     1      50.738   8.863  11.312  0.00  0.00    +0.000 A 
ATOM     24  S   UNL     1      52.224   9.075  10.503  0.00  0.00    +0.000 S 
ATOM     25  C   UNL     1      53.106   8.770  11.926  0.00  0.00    +0.000 A 
ATOM     26  N   UNL     1      54.466   8.821  11.932  0.00  0.00    +0.000 NA
ATOM     27  C   UNL     1      55.004   8.617  13.086  0.00  0.00    +0.000 A 
ATOM     28  N   UNL     1      54.306   8.353  14.236  0.00  0.00    +0.000 N 
ATOM     29  C   UNL     1      52.940   8.213  14.259  0.00  0.00    +0.000 A 
ATOM     30  O   UNL     1      52.358   7.846  15.277  0.00  0.00    +0.000 OA
ATOM     31  C   UNL     1      52.280   8.483  12.996  0.00  0.00    +0.000 A 
ATOM     32  H   UNL     1      54.789   8.176  15.105  0.00  0.00    +0.000 HD
ENDBRANCH  19  22
ENDBRANCH   1  20
TORSDOF 8
ENDMDL
