MODEL 1
REMARK VINA RESULT:    -8.505      0.000      0.000
REMARK INTER + INTRA:         -14.843
REMARK INTER:                 -12.980
REMARK INTRA:                  -1.863
REMARK UNBOUND:                -1.863
REMARK  Name = 
REMARK  9 active torsions:
REMARK  status: ('A' for Active; 'I' for Inactive)
REMARK    1  A    between atoms: C_2  and  C_25
REMARK    2  A    between atoms: N_3  and  C_4
REMARK    3  A    between atoms: C_4  and  C_5
REMARK    4  A    between atoms: C_8  and  C_9
REMARK    5  A    between atoms: C_9  and  C_10
REMARK    6  A    between atoms: C_10  and  N_11
REMARK    7  A    between atoms: N_11  and  C_12
REMARK    8  A    between atoms: C_12  and  C_13
REMARK    9  A    between atoms: C_16  and  C_17
REMARK                            x       y       z     vdW  Elec       q    Type
REMARK                         _______ _______ _______ _____ _____    ______ ____
ROOT
ATOM      1  C   UNL     1      47.902   7.858  12.894  0.00  0.00    +0.000 A 
ATOM      2  C   UNL     1      47.606   6.812  12.016  0.00  0.00    +0.000 A 
ATOM      3  C   UNL     1      46.334   6.685  11.460  0.00  0.00    +0.000 A 
ATOM      4  C   UNL     1      45.332   7.615  11.763  0.00  0.00    +0.000 A 
ATOM      5  C   UNL     1      45.634   8.678  12.624  0.00  0.00    +0.000 A 
ATOM      6  C   UNL     1      46.911   8.807  13.178  0.00  0.00    +0.000 A 
ENDROOT
BRANCH   1   7
ATOM      7  C   UNL     1      49.274   7.927  13.508  0.00  0.00    +0.000 C 
BRANCH   7  10
ATOM      8  O   UNL     1      48.762   8.562  16.235  0.00  0.00    +0.000 OA
ATOM      9  C   UNL     1      49.107   7.427  15.925  0.00  0.00    +0.000 C 
ATOM     10  N   UNL     1      49.405   7.055  14.639  0.00  0.00    +0.000 N 
ATOM     11  H   UNL     1      49.469   6.072  14.413  0.00  0.00    +0.000 HD
BRANCH   9  12
ATOM     12  C   UNL     1      49.286   6.373  16.931  0.00  0.00    +0.000 A 
ATOM     13  C   UNL     1      50.210   6.523  17.957  0.00  0.00    +0.000 A 
ATOM     14  S   UNL     1      50.262   5.178  19.014  0.00  0.00    +0.000 S 
ATOM     15  C   UNL     1      49.037   4.374  18.146  0.00  0.00    +0.000 A 
ATOM     16  N   UNL     1      48.573   3.156  18.541  0.00  0.00    +0.000 NA
ATOM     17  C   UNL     1      47.626   2.682  17.801  0.00  0.00    +0.000 A 
ATOM     18  N   UNL     1      47.104   3.302  16.701  0.00  0.00    +0.000 N 
ATOM     19  C   UNL     1      47.584   4.499  16.226  0.00  0.00    +0.000 A 
ATOM     20  O   UNL     1      47.178   4.950  15.163  0.00  0.00    +0.000 OA
ATOM     21  C   UNL     1      48.615   5.101  17.049  0.00  0.00    +0.000 A 
ATOM     22  H   UNL     1      46.394   2.865  16.132  0.00  0.00    +0.000 HD
ENDBRANCH   9  12
ENDBRANCH   7  10
ENDBRANCH   1   7
BRANCH   4  23
ATOM     23  C   UNL     1      43.947   7.490  11.175  0.00  0.00    +0.000 C 
BRANCH  23  24
ATOM     24  C   UNL     1      43.193   6.219  11.592  0.00  0.00    +0.000 C 
BRANCH  24  25
ATOM     25  N   UNL     1      43.098   5.262  10.489  0.00  0.00    +0.000 NA
ATOM     26  H   UNL     1      43.530   5.646   9.651  0.00  0.00    +0.000 HD
BRANCH  25  27
ATOM     27  C   UNL     1      43.720   3.992  10.840  0.00  0.00    +0.000 C 
BRANCH  27  28
ATOM     28  C   UNL     1      44.626   3.509   9.743  0.00  0.00    +0.000 A 
ATOM     29  C   UNL     1      45.248   4.399   8.864  0.00  0.00    +0.000 A 
ATOM     30  C   UNL     1      46.070   3.912   7.850  0.00  0.00    +0.000 A 
ATOM     31  C   UNL     1      46.257   2.533   7.732  0.00  0.00    +0.000 A 
ATOM     32  N   UNL     1      45.653   1.652   8.580  0.00  0.00    +0.000 NA
ATOM     33  C   UNL     1      44.862   2.156   9.553  0.00  0.00    +0.000 A 
BRANCH  31  34
ATOM     34  C   UNL     1      47.160   1.981   6.638  0.00  0.00    +0.000 C 
ATOM     35  F   UNL     1      48.487   2.232   6.850  0.00  0.00    +0.000 F 
ATOM     36  F   UNL     1      47.066   0.627   6.503  0.00  0.00    +0.000 F 
ATOM     37  F   UNL     1      46.888   2.501   5.405  0.00  0.00    +0.000 F 
ENDBRANCH  31  34
ENDBRANCH  27  28
ENDBRANCH  25  27
ENDBRANCH  24  25
ENDBRANCH  23  24
ENDBRANCH   4  23
TORSDOF 9
ENDMDL
MODEL 2
REMARK VINA RESULT:    -8.045      2.738      3.616
REMARK INTER + INTRA:         -14.141
REMARK INTER:                 -12.802
REMARK INTRA:                  -1.340
REMARK UNBOUND:                -1.863
REMARK  Name = 
REMARK  9 active torsions:
REMARK  status: ('A' for Active; 'I' for Inactive)
REMARK    1  A    between atoms: C_2  and  C_25
REMARK    2  A    between atoms: N_3  and  C_4
REMARK    3  A    between atoms: C_4  and  C_5
REMARK    4  A    between atoms: C_8  and  C_9
REMARK    5  A    between atoms: C_9  and  C_10
REMARK    6  A    between atoms: C_10  and  N_11
REMARK    7  A    between atoms: N_11  and  C_12
REMARK    8  A    between atoms: C_12  and  C_13
REMARK    9  A    between atoms: C_16  and  C_17
REMARK                            x       y       z     vdW  Elec       q    Type
REMARK                         _______ _______ _______ _____ _____    ______ ____
ROOT
ATOM      1  C   UNL     1      48.501   5.855  16.425  0.00  0.00    +0.000 A 
ATOM      2  C   UNL     1      48.581   6.639  15.271  0.00  0.00    +0.000 A 
ATOM      3  C   UNL     1      47.895   6.277  14.113  0.00  0.00    +0.000 A 
ATOM      4  C   UNL     1      47.101   5.124  14.091  0.00  0.00    +0.000 A 
ATOM      5  C   UNL     1      47.000   4.350  15.255  0.00  0.00    +0.000 A 
ATOM      6  C   UNL     1      47.685   4.716  16.417  0.00  0.00    +0.000 A 
ENDROOT
BRANCH   1   7
ATOM      7  C   UNL     1      49.298   6.259  17.636  0.00  0.00    +0.000 C 
BRANCH   7  10
ATOM      8  O   UNL     1      51.891   6.185  16.466  0.00  0.00    +0.000 OA
ATOM      9  C   UNL     1      51.591   5.379  17.341  0.00  0.00    +0.000 C 
ATOM     10  N   UNL     1      50.352   5.330  17.925  0.00  0.00    +0.000 N 
ATOM     11  H   UNL     1      50.230   4.801  18.779  0.00  0.00    +0.000 HD
BRANCH   9  12
ATOM     12  C   UNL     1      52.532   4.350  17.798  0.00  0.00    +0.000 A 
ATOM     13  C   UNL     1      53.775   4.703  18.309  0.00  0.00    +0.000 A 
ATOM     14  S   UNL     1      54.715   3.352  18.777  0.00  0.00    +0.000 S 
ATOM     15  C   UNL     1      53.481   2.265  18.335  0.00  0.00    +0.000 A 
ATOM     16  N   UNL     1      53.627   0.922  18.506  0.00  0.00    +0.000 NA
ATOM     17  C   UNL     1      52.598   0.226  18.150  0.00  0.00    +0.000 A 
ATOM     18  N   UNL     1      51.443   0.740  17.632  0.00  0.00    +0.000 N 
ATOM     19  C   UNL     1      51.275   2.081  17.380  0.00  0.00    +0.000 A 
ATOM     20  O   UNL     1      50.279   2.479  16.792  0.00  0.00    +0.000 OA
ATOM     21  C   UNL     1      52.380   2.915  17.808  0.00  0.00    +0.000 A 
ATOM     22  H   UNL     1      50.686   0.146  17.329  0.00  0.00    +0.000 HD
ENDBRANCH   9  12
ENDBRANCH   7  10
ENDBRANCH   1   7
BRANCH   4  23
ATOM     23  C   UNL     1      46.356   4.713  12.844  0.00  0.00    +0.000 C 
BRANCH  23  24
ATOM     24  C   UNL     1      44.833   4.622  13.017  0.00  0.00    +0.000 C 
BRANCH  24  25
ATOM     25  N   UNL     1      44.296   3.396  12.423  0.00  0.00    +0.000 NA
ATOM     26  H   UNL     1      43.660   2.939  13.074  0.00  0.00    +0.000 HD
BRANCH  25  27
ATOM     27  C   UNL     1      43.615   3.676  11.166  0.00  0.00    +0.000 C 
BRANCH  27  28
ATOM     28  C   UNL     1      44.498   3.373   9.990  0.00  0.00    +0.000 A 
ATOM     29  C   UNL     1      45.072   4.391   9.224  0.00  0.00    +0.000 A 
ATOM     30  C   UNL     1      45.875   4.069   8.132  0.00  0.00    +0.000 A 
ATOM     31  C   UNL     1      46.093   2.725   7.822  0.00  0.00    +0.000 A 
ATOM     32  N   UNL     1      45.535   1.720   8.558  0.00  0.00    +0.000 NA
ATOM     33  C   UNL     1      44.762   2.064   9.611  0.00  0.00    +0.000 A 
BRANCH  31  34
ATOM     34  C   UNL     1      46.975   2.351   6.640  0.00  0.00    +0.000 C 
ATOM     35  F   UNL     1      46.545   2.878   5.453  0.00  0.00    +0.000 F 
ATOM     36  F   UNL     1      48.262   2.779   6.779  0.00  0.00    +0.000 F 
ATOM     37  F   UNL     1      47.047   1.004   6.430  0.00  0.00    +0.000 F 
ENDBRANCH  31  34
ENDBRANCH  27  28
ENDBRANCH  25  27
ENDBRANCH  24  25
ENDBRANCH  23  24
ENDBRANCH   4  23
TORSDOF 9
ENDMDL
MODEL 3
REMARK VINA RESULT:    -7.946      1.452      1.896
REMARK INTER + INTRA:         -13.990
REMARK INTER:                 -12.521
REMARK INTRA:                  -1.469
REMARK UNBOUND:                -1.863
REMARK  Name = 
REMARK  9 active torsions:
REMARK  status: ('A' for Active; 'I' for Inactive)
REMARK    1  A    between atoms: C_2  and  C_25
REMARK    2  A    between atoms: N_3  and  C_4
REMARK    3  A    between atoms: C_4  and  C_5
REMARK    4  A    between atoms: C_8  and  C_9
REMARK    5  A    between atoms: C_9  and  C_10
REMARK    6  A    between atoms: C_10  and  N_11
REMARK    7  A    between atoms: N_11  and  C_12
REMARK    8  A    between atoms: C_12  and  C_13
REMARK    9  A    between atoms: C_16  and  C_17
REMARK                            x       y       z     vdW  Elec       q    Type
REMARK                         _______ _______ _______ _____ _____    ______ ____
ROOT
ATOM      1  C   UNL     1      47.696   6.812  12.963  0.00  0.00    +0.000 A 
ATOM      2  C   UNL     1      47.407   5.448  13.059  0.00  0.00    +0.000 A 
ATOM      3  C   UNL     1      46.090   4.993  13.033  0.00  0.00    +0.000 A 
ATOM      4  C   UNL     1      45.030   5.899  12.897  0.00  0.00    +0.000 A 
ATOM      5  C   UNL     1      45.319   7.264  12.775  0.00  0.00    +0.000 A 
ATOM      6  C   UNL     1      46.641   7.719  12.798  0.00  0.00    +0.000 A 
ENDROOT
BRANCH   1   7
ATOM      7  C   UNL     1      49.130   7.261  13.045  0.00  0.00    +0.000 C 
BRANCH   7  10
ATOM      8  O   UNL     1      49.001   9.037  15.264  0.00  0.00    +0.000 OA
ATOM      9  C   UNL     1      49.554   7.949  15.383  0.00  0.00    +0.000 C 
ATOM     10  N   UNL     1      49.688   7.056  14.350  0.00  0.00    +0.000 N 
ATOM     11  H   UNL     1      49.951   6.102  14.555  0.00  0.00    +0.000 HD
BRANCH   9  12
ATOM     12  C   UNL     1      50.179   7.534  16.644  0.00  0.00    +0.000 A 
ATOM     13  C   UNL     1      51.146   8.327  17.251  0.00  0.00    +0.000 A 
ATOM     14  S   UNL     1      51.744   7.656  18.706  0.00  0.00    +0.000 S 
ATOM     15  C   UNL     1      50.713   6.308  18.579  0.00  0.00    +0.000 A 
ATOM     16  N   UNL     1      50.698   5.336  19.533  0.00  0.00    +0.000 NA
ATOM     17  C   UNL     1      49.846   4.390  19.315  0.00  0.00    +0.000 A 
ATOM     18  N   UNL     1      49.016   4.314  18.232  0.00  0.00    +0.000 N 
ATOM     19  C   UNL     1      49.042   5.234  17.211  0.00  0.00    +0.000 A 
ATOM     20  O   UNL     1      48.379   5.054  16.199  0.00  0.00    +0.000 OA
ATOM     21  C   UNL     1      49.945   6.347  17.430  0.00  0.00    +0.000 A 
ATOM     22  H   UNL     1      48.401   3.527  18.088  0.00  0.00    +0.000 HD
ENDBRANCH   9  12
ENDBRANCH   7  10
ENDBRANCH   1   7
BRANCH   4  23
ATOM     23  C   UNL     1      43.598   5.425  12.873  0.00  0.00    +0.000 C 
BRANCH  23  24
ATOM     24  C   UNL     1      43.434   3.899  12.875  0.00  0.00    +0.000 C 
BRANCH  24  25
ATOM     25  N   UNL     1      43.046   3.396  11.556  0.00  0.00    +0.000 NA
ATOM     26  H   UNL     1      42.045   3.210  11.530  0.00  0.00    +0.000 HD
BRANCH  25  27
ATOM     27  C   UNL     1      43.410   4.339  10.506  0.00  0.00    +0.000 C 
BRANCH  27  28
ATOM     28  C   UNL     1      44.379   3.725   9.537  0.00  0.00    +0.000 A 
ATOM     29  C   UNL     1      44.638   2.352   9.533  0.00  0.00    +0.000 A 
ATOM     30  C   UNL     1      45.555   1.822   8.628  0.00  0.00    +0.000 A 
ATOM     31  C   UNL     1      46.202   2.680   7.735  0.00  0.00    +0.000 A 
ATOM     32  N   UNL     1      45.962   4.023   7.731  0.00  0.00    +0.000 NA
ATOM     33  C   UNL     1      45.068   4.507   8.621  0.00  0.00    +0.000 A 
BRANCH  31  34
ATOM     34  C   UNL     1      47.199   2.120   6.731  0.00  0.00    +0.000 C 
ATOM     35  F   UNL     1      48.467   2.606   6.895  0.00  0.00    +0.000 F 
ATOM     36  F   UNL     1      47.322   0.764   6.800  0.00  0.00    +0.000 F 
ATOM     37  F   UNL     1      46.871   2.403   5.436  0.00  0.00    +0.000 F 
ENDBRANCH  31  34
ENDBRANCH  27  28
ENDBRANCH  25  27
ENDBRANCH  24  25
ENDBRANCH  23  24
ENDBRANCH   4  23
TORSDOF 9
ENDMDL
MODEL 4
REMARK VINA RESULT:    -7.847      1.620      2.018
REMARK INTER + INTRA:         -13.838
REMARK INTER:                 -12.246
REMARK INTRA:                  -1.592
REMARK UNBOUND:                -1.863
REMARK  Name = 
REMARK  9 active torsions:
REMARK  status: ('A' for Active; 'I' for Inactive)
REMARK    1  A    between atoms: C_2  and  C_25
REMARK    2  A    between atoms: N_3  and  C_4
REMARK    3  A    between atoms: C_4  and  C_5
REMARK    4  A    between atoms: C_8  and  C_9
REMARK    5  A    between atoms: C_9  and  C_10
REMARK    6  A    between atoms: C_10  and  N_11
REMARK    7  A    between atoms: N_11  and  C_12
REMARK    8  A    between atoms: C_12  and  C_13
REMARK    9  A    between atoms: C_16  and  C_17
REMARK                            x       y       z     vdW  Elec       q    Type
REMARK                         _______ _______ _______ _____ _____    ______ ____
ROOT
ATOM      1  C   UNL     1      47.878   7.381  12.563  0.00  0.00    +0.000 A 
ATOM      2  C   UNL     1      47.678   6.046  12.927  0.00  0.00    +0.000 A 
ATOM      3  C   UNL     1      46.397   5.498  12.954  0.00  0.00    +0.000 A 
ATOM      4  C   UNL     1      45.286   6.274  12.601  0.00  0.00    +0.000 A 
ATOM      5  C   UNL     1      45.488   7.605  12.212  0.00  0.00    +0.000 A 
ATOM      6  C   UNL     1      46.773   8.154  12.182  0.00  0.00    +0.000 A 
ENDROOT
BRANCH   1   7
ATOM      7  C   UNL     1      49.274   7.944  12.596  0.00  0.00    +0.000 C 
BRANCH   7  10
ATOM      8  O   UNL     1      49.803   8.942  15.208  0.00  0.00    +0.000 OA
ATOM      9  C   UNL     1      50.262   7.859  14.863  0.00  0.00    +0.000 C 
ATOM     10  N   UNL     1      50.081   7.330  13.610  0.00  0.00    +0.000 N 
ATOM     11  H   UNL     1      50.291   6.353  13.454  0.00  0.00    +0.000 HD
BRANCH   9  12
ATOM     12  C   UNL     1      51.104   7.057  15.758  0.00  0.00    +0.000 A 
ATOM     13  C   UNL     1      52.481   7.239  15.786  0.00  0.00    +0.000 A 
ATOM     14  S   UNL     1      53.272   6.201  16.892  0.00  0.00    +0.000 S 
ATOM     15  C   UNL     1      51.798   5.502  17.380  0.00  0.00    +0.000 A 
ATOM     16  N   UNL     1      51.755   4.540  18.343  0.00  0.00    +0.000 NA
ATOM     17  C   UNL     1      50.566   4.123  18.627  0.00  0.00    +0.000 A 
ATOM     18  N   UNL     1      49.417   4.567  18.036  0.00  0.00    +0.000 N 
ATOM     19  C   UNL     1      49.415   5.486  17.014  0.00  0.00    +0.000 A 
ATOM     20  O   UNL     1      48.376   5.752  16.424  0.00  0.00    +0.000 OA
ATOM     21  C   UNL     1      50.721   6.026  16.690  0.00  0.00    +0.000 A 
ATOM     22  H   UNL     1      48.516   4.173  18.264  0.00  0.00    +0.000 HD
ENDBRANCH   9  12
ENDBRANCH   7  10
ENDBRANCH   1   7
BRANCH   4  23
ATOM     23  C   UNL     1      43.891   5.699  12.630  0.00  0.00    +0.000 C 
BRANCH  23  24
ATOM     24  C   UNL     1      43.807   4.267  13.177  0.00  0.00    +0.000 C 
BRANCH  24  25
ATOM     25  N   UNL     1      43.750   3.280  12.098  0.00  0.00    +0.000 NA
ATOM     26  H   UNL     1      43.071   2.554  12.319  0.00  0.00    +0.000 HD
BRANCH  25  27
ATOM     27  C   UNL     1      43.418   3.910  10.826  0.00  0.00    +0.000 C 
BRANCH  27  28
ATOM     28  C   UNL     1      44.384   3.504   9.750  0.00  0.00    +0.000 A 
ATOM     29  C   UNL     1      45.039   4.452   8.960  0.00  0.00    +0.000 A 
ATOM     30  C   UNL     1      45.917   4.035   7.962  0.00  0.00    +0.000 A 
ATOM     31  C   UNL     1      46.128   2.668   7.770  0.00  0.00    +0.000 A 
ATOM     32  N   UNL     1      45.492   1.731   8.531  0.00  0.00    +0.000 NA
ATOM     33  C   UNL     1      44.647   2.167   9.491  0.00  0.00    +0.000 A 
BRANCH  31  34
ATOM     34  C   UNL     1      47.091   2.192   6.693  0.00  0.00    +0.000 C 
ATOM     35  F   UNL     1      46.986   0.856   6.420  0.00  0.00    +0.000 F 
ATOM     36  F   UNL     1      46.906   2.819   5.496  0.00  0.00    +0.000 F 
ATOM     37  F   UNL     1      48.402   2.389   7.021  0.00  0.00    +0.000 F 
ENDBRANCH  31  34
ENDBRANCH  27  28
ENDBRANCH  25  27
ENDBRANCH  24  25
ENDBRANCH  23  24
ENDBRANCH   4  23
TORSDOF 9
ENDMDL
MODEL 5
REMARK VINA RESULT:    -7.816      4.705      6.208
REMARK INTER + INTRA:         -13.792
REMARK INTER:                 -12.406
REMARK INTRA:                  -1.386
REMARK UNBOUND:                -1.863
REMARK  Name = 
REMARK  9 active torsions:
REMARK  status: ('A' for Active; 'I' for Inactive)
REMARK    1  A    between atoms: C_2  and  C_25
REMARK    2  A    between atoms: N_3  and  C_4
REMARK    3  A    between atoms: C_4  and  C_5
REMARK    4  A    between atoms: C_8  and  C_9
REMARK    5  A    between atoms: C_9  and  C_10
REMARK    6  A    between atoms: C_10  and  N_11
REMARK    7  A    between atoms: N_11  and  C_12
REMARK    8  A    between atoms: C_12  and  C_13
REMARK    9  A    between atoms: C_16  and  C_17
REMARK                            x       y       z     vdW  Elec       q    Type
REMARK                         _______ _______ _______ _____ _____    ______ ____
ROOT
ATOM      1  C   UNL     1      49.048   7.479  11.999  0.00  0.00    +0.000 A 
ATOM      2  C   UNL     1      47.889   7.260  11.249  0.00  0.00    +0.000 A 
ATOM      3  C   UNL     1      46.839   6.500  11.762  0.00  0.00    +0.000 A 
ATOM      4  C   UNL     1      46.923   5.954  13.049  0.00  0.00    +0.000 A 
ATOM      5  C   UNL     1      48.074   6.193  13.811  0.00  0.00    +0.000 A 
ATOM      6  C   UNL     1      49.125   6.958  13.297  0.00  0.00    +0.000 A 
ENDROOT
BRANCH   1   7
ATOM      7  C   UNL     1      50.175   8.264  11.384  0.00  0.00    +0.000 C 
BRANCH   7  10
ATOM      8  O   UNL     1      52.297   8.900   9.598  0.00  0.00    +0.000 OA
ATOM      9  C   UNL     1      52.290   7.821  10.179  0.00  0.00    +0.000 C 
ATOM     10  N   UNL     1      51.284   7.429  11.025  0.00  0.00    +0.000 N 
ATOM     11  H   UNL     1      51.435   6.637  11.635  0.00  0.00    +0.000 HD
BRANCH   9  12
ATOM     12  C   UNL     1      53.344   6.822   9.966  0.00  0.00    +0.000 A 
ATOM     13  C   UNL     1      54.293   6.574  10.950  0.00  0.00    +0.000 A 
ATOM     14  S   UNL     1      55.430   5.379  10.496  0.00  0.00    +0.000 S 
ATOM     15  C   UNL     1      54.672   5.144   8.990  0.00  0.00    +0.000 A 
ATOM     16  N   UNL     1      55.133   4.219   8.102  0.00  0.00    +0.000 NA
ATOM     17  C   UNL     1      54.441   4.135   7.015  0.00  0.00    +0.000 A 
ATOM     18  N   UNL     1      53.340   4.890   6.724  0.00  0.00    +0.000 N 
ATOM     19  C   UNL     1      52.877   5.880   7.558  0.00  0.00    +0.000 A 
ATOM     20  O   UNL     1      51.972   6.620   7.197  0.00  0.00    +0.000 OA
ATOM     21  C   UNL     1      53.587   5.984   8.818  0.00  0.00    +0.000 A 
ATOM     22  H   UNL     1      52.863   4.814   5.838  0.00  0.00    +0.000 HD
ENDBRANCH   9  12
ENDBRANCH   7  10
ENDBRANCH   1   7
BRANCH   4  23
ATOM     23  C   UNL     1      45.799   5.124  13.619  0.00  0.00    +0.000 C 
BRANCH  23  24
ATOM     24  C   UNL     1      44.474   5.239  12.853  0.00  0.00    +0.000 C 
BRANCH  24  25
ATOM     25  N   UNL     1      44.207   4.042  12.055  0.00  0.00    +0.000 NA
ATOM     26  H   UNL     1      43.530   3.446  12.527  0.00  0.00    +0.000 HD
BRANCH  25  27
ATOM     27  C   UNL     1      43.727   4.394  10.724  0.00  0.00    +0.000 C 
BRANCH  27  28
ATOM     28  C   UNL     1      44.607   3.811   9.657  0.00  0.00    +0.000 A 
ATOM     29  C   UNL     1      44.770   2.430   9.516  0.00  0.00    +0.000 A 
ATOM     30  C   UNL     1      45.607   1.928   8.522  0.00  0.00    +0.000 A 
ATOM     31  C   UNL     1      46.272   2.821   7.679  0.00  0.00    +0.000 A 
ATOM     32  N   UNL     1      46.126   4.172   7.807  0.00  0.00    +0.000 NA
ATOM     33  C   UNL     1      45.307   4.628   8.781  0.00  0.00    +0.000 A 
BRANCH  31  34
ATOM     34  C   UNL     1      47.182   2.294   6.580  0.00  0.00    +0.000 C 
ATOM     35  F   UNL     1      46.875   2.780   5.339  0.00  0.00    +0.000 F 
ATOM     36  F   UNL     1      48.494   2.611   6.776  0.00  0.00    +0.000 F 
ATOM     37  F   UNL     1      47.139   0.935   6.454  0.00  0.00    +0.000 F 
ENDBRANCH  31  34
ENDBRANCH  27  28
ENDBRANCH  25  27
ENDBRANCH  24  25
ENDBRANCH  23  24
ENDBRANCH   4  23
TORSDOF 9
ENDMDL
MODEL 6
REMARK VINA RESULT:    -7.614      2.490      3.418
REMARK INTER + INTRA:         -13.483
REMARK INTER:                 -11.902
REMARK INTRA:                  -1.581
REMARK UNBOUND:                -1.863
REMARK  Name = 
REMARK  9 active torsions:
REMARK  status: ('A' for Active; 'I' for Inactive)
REMARK    1  A    between atoms: C_2  and  C_25
REMARK    2  A    between atoms: N_3  and  C_4
REMARK    3  A    between atoms: C_4  and  C_5
REMARK    4  A    between atoms: C_8  and  C_9
REMARK    5  A    between atoms: C_9  and  C_10
REMARK    6  A    between atoms: C_10  and  N_11
REMARK    7  A    between atoms: N_11  and  C_12
REMARK    8  A    between atoms: C_12  and  C_13
REMARK    9  A    between atoms: C_16  and  C_17
REMARK                            x       y       z     vdW  Elec       q    Type
REMARK                         _______ _______ _______ _____ _____    ______ ____
ROOT
ATOM      1  C   UNL     1      47.613   8.348  12.113  0.00  0.00    +0.000 A 
ATOM      2  C   UNL     1      46.418   8.894  12.589  0.00  0.00    +0.000 A 
ATOM      3  C   UNL     1      45.289   8.097  12.766  0.00  0.00    +0.000 A 
ATOM      4  C   UNL     1      45.337   6.726  12.480  0.00  0.00    +0.000 A 
ATOM      5  C   UNL     1      46.542   6.173  12.026  0.00  0.00    +0.000 A 
ATOM      6  C   UNL     1      47.675   6.973  11.853  0.00  0.00    +0.000 A 
ENDROOT
BRANCH   1   7
ATOM      7  C   UNL     1      48.792   9.257  11.892  0.00  0.00    +0.000 C 
BRANCH   7  10
ATOM      8  O   UNL     1      51.361   8.053  11.676  0.00  0.00    +0.000 OA
ATOM      9  C   UNL     1      51.012   8.562  12.735  0.00  0.00    +0.000 C 
ATOM     10  N   UNL     1      49.777   9.128  12.926  0.00  0.00    +0.000 N 
ATOM     11  H   UNL     1      49.625   9.717  13.733  0.00  0.00    +0.000 HD
BRANCH   9  12
ATOM     12  C   UNL     1      51.879   8.554  13.919  0.00  0.00    +0.000 A 
ATOM     13  C   UNL     1      53.083   9.247  13.920  0.00  0.00    +0.000 A 
ATOM     14  S   UNL     1      53.938   9.102  15.394  0.00  0.00    +0.000 S 
ATOM     15  C   UNL     1      52.715   8.133  16.077  0.00  0.00    +0.000 A 
ATOM     16  N   UNL     1      52.805   7.677  17.357  0.00  0.00    +0.000 NA
ATOM     17  C   UNL     1      51.791   6.978  17.745  0.00  0.00    +0.000 A 
ATOM     18  N   UNL     1      50.701   6.682  16.976  0.00  0.00    +0.000 N 
ATOM     19  C   UNL     1      50.595   7.063  15.660  0.00  0.00    +0.000 A 
ATOM     20  O   UNL     1      49.665   6.662  14.973  0.00  0.00    +0.000 OA
ATOM     21  C   UNL     1      51.684   7.895  15.187  0.00  0.00    +0.000 A 
ATOM     22  H   UNL     1      49.956   6.092  17.316  0.00  0.00    +0.000 HD
ENDBRANCH   9  12
ENDBRANCH   7  10
ENDBRANCH   1   7
BRANCH   4  23
ATOM     23  C   UNL     1      44.123   5.848  12.660  0.00  0.00    +0.000 C 
BRANCH  23  24
ATOM     24  C   UNL     1      43.007   6.092  11.635  0.00  0.00    +0.000 C 
BRANCH  24  25
ATOM     25  N   UNL     1      43.264   5.387  10.379  0.00  0.00    +0.000 NA
ATOM     26  H   UNL     1      43.959   5.888   9.828  0.00  0.00    +0.000 HD
BRANCH  25  27
ATOM     27  C   UNL     1      43.708   4.020  10.625  0.00  0.00    +0.000 C 
BRANCH  27  28
ATOM     28  C   UNL     1      44.631   3.546   9.540  0.00  0.00    +0.000 A 
ATOM     29  C   UNL     1      44.967   2.196   9.403  0.00  0.00    +0.000 A 
ATOM     30  C   UNL     1      45.839   1.798   8.393  0.00  0.00    +0.000 A 
ATOM     31  C   UNL     1      46.364   2.761   7.529  0.00  0.00    +0.000 A 
ATOM     32  N   UNL     1      46.049   4.083   7.653  0.00  0.00    +0.000 NA
ATOM     33  C   UNL     1      45.200   4.438   8.643  0.00  0.00    +0.000 A 
BRANCH  31  34
ATOM     34  C   UNL     1      47.310   2.345   6.412  0.00  0.00    +0.000 C 
ATOM     35  F   UNL     1      47.283   1.003   6.148  0.00  0.00    +0.000 F 
ATOM     36  F   UNL     1      47.031   2.952   5.223  0.00  0.00    +0.000 F 
ATOM     37  F   UNL     1      48.617   2.631   6.682  0.00  0.00    +0.000 F 
ENDBRANCH  31  34
ENDBRANCH  27  28
ENDBRANCH  25  27
ENDBRANCH  24  25
ENDBRANCH  23  24
ENDBRANCH   4  23
TORSDOF 9
ENDMDL
MODEL 7
REMARK VINA RESULT:    -7.335      1.929      2.472
REMARK INTER + INTRA:         -13.057
REMARK INTER:                 -11.827
REMARK INTRA:                  -1.231
REMARK UNBOUND:                -1.863
REMARK  Name = 
REMARK  9 active torsions:
REMARK  status: ('A' for Active; 'I' for Inactive)
REMARK    1  A    between atoms: C_2  and  C_25
REMARK    2  A    between atoms: N_3  and  C_4
REMARK    3  A    between atoms: C_4  and  C_5
REMARK    4  A    between atoms: C_8  and  C_9
REMARK    5  A    between atoms: C_9  and  C_10
REMARK    6  A    between atoms: C_10  and  N_11
REMARK    7  A    between atoms: N_11  and  C_12
REMARK    8  A    between atoms: C_12  and  C_13
REMARK    9  A    between atoms: C_16  and  C_17
REMARK                            x       y       z     vdW  Elec       q    Type
REMARK                         _______ _______ _______ _____ _____    ______ ____
ROOT
ATOM      1  C   UNL     1      48.473   7.872  13.133  0.00  0.00    +0.000 A 
ATOM      2  C   UNL     1      48.177   6.734  12.378  0.00  0.00    +0.000 A 
ATOM      3  C   UNL     1      46.920   6.567  11.800  0.00  0.00    +0.000 A 
ATOM      4  C   UNL     1      45.932   7.548  11.957  0.00  0.00    +0.000 A 
ATOM      5  C   UNL     1      46.235   8.701  12.694  0.00  0.00    +0.000 A 
ATOM      6  C   UNL     1      47.498   8.869  13.269  0.00  0.00    +0.000 A 
ENDROOT
BRANCH   1   7
ATOM      7  C   UNL     1      49.828   7.986  13.778  0.00  0.00    +0.000 C 
BRANCH   7  10
ATOM      8  O   UNL     1      50.243   8.252  16.581  0.00  0.00    +0.000 OA
ATOM      9  C   UNL     1      50.228   7.138  16.068  0.00  0.00    +0.000 C 
ATOM     10  N   UNL     1      50.069   6.933  14.721  0.00  0.00    +0.000 N 
ATOM     11  H   UNL     1      49.847   6.005  14.387  0.00  0.00    +0.000 HD
BRANCH   9  12
ATOM     12  C   UNL     1      50.438   5.920  16.859  0.00  0.00    +0.000 A 
ATOM     13  C   UNL     1      49.357   5.209  17.365  0.00  0.00    +0.000 A 
ATOM     14  S   UNL     1      49.824   3.828  18.260  0.00  0.00    +0.000 S 
ATOM     15  C   UNL     1      51.476   4.128  17.973  0.00  0.00    +0.000 A 
ATOM     16  N   UNL     1      52.440   3.290  18.448  0.00  0.00    +0.000 NA
ATOM     17  C   UNL     1      53.644   3.631  18.129  0.00  0.00    +0.000 A 
ATOM     18  N   UNL     1      53.980   4.732  17.392  0.00  0.00    +0.000 N 
ATOM     19  C   UNL     1      53.049   5.641  16.949  0.00  0.00    +0.000 A 
ATOM     20  O   UNL     1      53.406   6.680  16.411  0.00  0.00    +0.000 OA
ATOM     21  C   UNL     1      51.674   5.280  17.235  0.00  0.00    +0.000 A 
ATOM     22  H   UNL     1      54.942   4.976  17.211  0.00  0.00    +0.000 HD
ENDBRANCH   9  12
ENDBRANCH   7  10
ENDBRANCH   1   7
BRANCH   4  23
ATOM     23  C   UNL     1      44.563   7.381  11.345  0.00  0.00    +0.000 C 
BRANCH  23  24
ATOM     24  C   UNL     1      43.823   6.109  11.781  0.00  0.00    +0.000 C 
BRANCH  24  25
ATOM     25  N   UNL     1      43.280   5.381  10.634  0.00  0.00    +0.000 NA
ATOM     26  H   UNL     1      43.686   5.732   9.768  0.00  0.00    +0.000 HD
BRANCH  25  27
ATOM     27  C   UNL     1      43.521   3.949  10.758  0.00  0.00    +0.000 C 
BRANCH  27  28
ATOM     28  C   UNL     1      44.460   3.462   9.692  0.00  0.00    +0.000 A 
ATOM     29  C   UNL     1      45.062   4.342   8.790  0.00  0.00    +0.000 A 
ATOM     30  C   UNL     1      45.916   3.850   7.806  0.00  0.00    +0.000 A 
ATOM     31  C   UNL     1      46.156   2.476   7.740  0.00  0.00    +0.000 A 
ATOM     32  N   UNL     1      45.572   1.604   8.612  0.00  0.00    +0.000 NA
ATOM     33  C   UNL     1      44.749   2.112   9.555  0.00  0.00    +0.000 A 
BRANCH  31  34
ATOM     34  C   UNL     1      47.095   1.919   6.680  0.00  0.00    +0.000 C 
ATOM     35  F   UNL     1      48.398   2.293   6.856  0.00  0.00    +0.000 F 
ATOM     36  F   UNL     1      47.113   0.555   6.647  0.00  0.00    +0.000 F 
ATOM     37  F   UNL     1      46.774   2.320   5.415  0.00  0.00    +0.000 F 
ENDBRANCH  31  34
ENDBRANCH  27  28
ENDBRANCH  25  27
ENDBRANCH  24  25
ENDBRANCH  23  24
ENDBRANCH   4  23
TORSDOF 9
ENDMDL
MODEL 8
REMARK VINA RESULT:    -7.264      4.407      5.753
REMARK INTER + INTRA:         -12.949
REMARK INTER:                 -11.602
REMARK INTRA:                  -1.347
REMARK UNBOUND:                -1.863
REMARK  Name = 
REMARK  9 active torsions:
REMARK  status: ('A' for Active; 'I' for Inactive)
REMARK    1  A    between atoms: C_2  and  C_25
REMARK    2  A    between atoms: N_3  and  C_4
REMARK    3  A    between atoms: C_4  and  C_5
REMARK    4  A    between atoms: C_8  and  C_9
REMARK    5  A    between atoms: C_9  and  C_10
REMARK    6  A    between atoms: C_10  and  N_11
REMARK    7  A    between atoms: N_11  and  C_12
REMARK    8  A    between atoms: C_12  and  C_13
REMARK    9  A    between atoms: C_16  and  C_17
REMARK                            x       y       z     vdW  Elec       q    Type
REMARK                         _______ _______ _______ _____ _____    ______ ____
ROOT
ATOM      1  C   UNL     1      47.522   9.252  12.063  0.00  0.00    +0.000 A 
ATOM      2  C   UNL     1      46.208   9.438  12.502  0.00  0.00    +0.000 A 
ATOM      3  C   UNL     1      45.328   8.362  12.599  0.00  0.00    +0.000 A 
ATOM      4  C   UNL     1      45.752   7.068  12.269  0.00  0.00    +0.000 A 
ATOM      5  C   UNL     1      47.076   6.876  11.852  0.00  0.00    +0.000 A 
ATOM      6  C   UNL     1      47.959   7.956  11.758  0.00  0.00    +0.000 A 
ENDROOT
BRANCH   1   7
ATOM      7  C   UNL     1      48.422  10.451  11.927  0.00  0.00    +0.000 C 
BRANCH   7  10
ATOM      8  O   UNL     1      51.150  11.064  12.455  0.00  0.00    +0.000 OA
ATOM      9  C   UNL     1      50.842  10.487  11.418  0.00  0.00    +0.000 C 
ATOM     10  N   UNL     1      49.547  10.190  11.078  0.00  0.00    +0.000 N 
ATOM     11  H   UNL     1      49.373   9.531  10.331  0.00  0.00    +0.000 HD
BRANCH   9  12
ATOM     12  C   UNL     1      51.847  10.113  10.416  0.00  0.00    +0.000 A 
ATOM     13  C   UNL     1      52.492  11.086   9.662  0.00  0.00    +0.000 A 
ATOM     14  S   UNL     1      53.618  10.435   8.552  0.00  0.00    +0.000 S 
ATOM     15  C   UNL     1      53.294   8.844   9.064  0.00  0.00    +0.000 A 
ATOM     16  N   UNL     1      53.953   7.779   8.528  0.00  0.00    +0.000 NA
ATOM     17  C   UNL     1      53.622   6.638   9.034  0.00  0.00    +0.000 A 
ATOM     18  N   UNL     1      52.689   6.456  10.016  0.00  0.00    +0.000 N 
ATOM     19  C   UNL     1      51.952   7.491  10.541  0.00  0.00    +0.000 A 
ATOM     20  O   UNL     1      51.035   7.264  11.319  0.00  0.00    +0.000 OA
ATOM     21  C   UNL     1      52.320   8.802  10.044  0.00  0.00    +0.000 A 
ATOM     22  H   UNL     1      52.436   5.536  10.344  0.00  0.00    +0.000 HD
ENDBRANCH   9  12
ENDBRANCH   7  10
ENDBRANCH   1   7
BRANCH   4  23
ATOM     23  C   UNL     1      44.812   5.892  12.362  0.00  0.00    +0.000 C 
BRANCH  23  24
ATOM     24  C   UNL     1      43.443   6.120  11.705  0.00  0.00    +0.000 C 
BRANCH  24  25
ATOM     25  N   UNL     1      43.330   5.404  10.433  0.00  0.00    +0.000 NA
ATOM     26  H   UNL     1      43.937   5.829   9.734  0.00  0.00    +0.000 HD
BRANCH  25  27
ATOM     27  C   UNL     1      43.656   3.993  10.593  0.00  0.00    +0.000 C 
BRANCH  27  28
ATOM     28  C   UNL     1      44.602   3.529   9.522  0.00  0.00    +0.000 A 
ATOM     29  C   UNL     1      44.935   2.180   9.374  0.00  0.00    +0.000 A 
ATOM     30  C   UNL     1      45.827   1.792   8.378  0.00  0.00    +0.000 A 
ATOM     31  C   UNL     1      46.375   2.765   7.539  0.00  0.00    +0.000 A 
ATOM     32  N   UNL     1      46.062   4.086   7.674  0.00  0.00    +0.000 NA
ATOM     33  C   UNL     1      45.194   4.432   8.650  0.00  0.00    +0.000 A 
BRANCH  31  34
ATOM     34  C   UNL     1      47.343   2.360   6.437  0.00  0.00    +0.000 C 
ATOM     35  F   UNL     1      47.078   2.955   5.234  0.00  0.00    +0.000 F 
ATOM     36  F   UNL     1      48.638   2.682   6.720  0.00  0.00    +0.000 F 
ATOM     37  F   UNL     1      47.336   1.019   6.183  0.00  0.00    +0.000 F 
ENDBRANCH  31  34
ENDBRANCH  27  28
ENDBRANCH  25  27
ENDBRANCH  24  25
ENDBRANCH  23  24
ENDBRANCH   4  23
TORSDOF 9
ENDMDL
MODEL 9
REMARK VINA RESULT:    -6.761      4.016      8.431
REMARK INTER + INTRA:         -12.181
REMARK INTER:                 -10.311
REMARK INTRA:                  -1.870
REMARK UNBOUND:                -1.863
REMARK  Name = 
REMARK  9 active torsions:
REMARK  status: ('A' for Active; 'I' for Inactive)
REMARK    1  A    between atoms: C_2  and  C_25
REMARK    2  A    between atoms: N_3  and  C_4
REMARK    3  A    between atoms: C_4  and  C_5
REMARK    4  A    between atoms: C_8  and  C_9
REMARK    5  A    between atoms: C_9  and  C_10
REMARK    6  A    between atoms: C_10  and  N_11
REMARK    7  A    between atoms: N_11  and  C_12
REMARK    8  A    between atoms: C_12  and  C_13
REMARK    9  A    between atoms: C_16  and  C_17
REMARK                            x       y       z     vdW  Elec       q    Type
REMARK                         _______ _______ _______ _____ _____    ______ ____
ROOT
ATOM      1  C   UNL     1      48.145   8.301  13.250  0.00  0.00    +0.000 A 
ATOM      2  C   UNL     1      48.801   9.495  13.562  0.00  0.00    +0.000 A 
ATOM      3  C   UNL     1      49.849   9.515  14.480  0.00  0.00    +0.000 A 
ATOM      4  C   UNL     1      50.272   8.332  15.099  0.00  0.00    +0.000 A 
ATOM      5  C   UNL     1      49.631   7.130  14.770  0.00  0.00    +0.000 A 
ATOM      6  C   UNL     1      48.582   7.110  13.845  0.00  0.00    +0.000 A 
ENDROOT
BRANCH   1   7
ATOM      7  C   UNL     1      46.987   8.335  12.289  0.00  0.00    +0.000 C 
BRANCH   7  10
ATOM      8  O   UNL     1      44.440   7.798  11.139  0.00  0.00    +0.000 OA
ATOM      9  C   UNL     1      45.121   6.876  11.573  0.00  0.00    +0.000 C 
ATOM     10  N   UNL     1      46.341   7.060  12.173  0.00  0.00    +0.000 N 
ATOM     11  H   UNL     1      46.947   6.263  12.311  0.00  0.00    +0.000 HD
BRANCH   9  12
ATOM     12  C   UNL     1      44.653   5.486  11.537  0.00  0.00    +0.000 A 
ATOM     13  C   UNL     1      43.992   4.933  12.627  0.00  0.00    +0.000 A 
ATOM     14  S   UNL     1      43.538   3.303  12.377  0.00  0.00    +0.000 S 
ATOM     15  C   UNL     1      44.187   3.300  10.803  0.00  0.00    +0.000 A 
ATOM     16  N   UNL     1      44.108   2.198  10.007  0.00  0.00    +0.000 NA
ATOM     17  C   UNL     1      44.620   2.354   8.831  0.00  0.00    +0.000 A 
ATOM     18  N   UNL     1      45.211   3.500   8.377  0.00  0.00    +0.000 N 
ATOM     19  C   UNL     1      45.373   4.614   9.166  0.00  0.00    +0.000 A 
ATOM     20  O   UNL     1      46.027   5.567   8.763  0.00  0.00    +0.000 OA
ATOM     21  C   UNL     1      44.770   4.511  10.480  0.00  0.00    +0.000 A 
ATOM     22  H   UNL     1      45.636   3.552   7.463  0.00  0.00    +0.000 HD
ENDBRANCH   9  12
ENDBRANCH   7  10
ENDBRANCH   1   7
BRANCH   4  23
ATOM     23  C   UNL     1      51.401   8.335  16.101  0.00  0.00    +0.000 C 
BRANCH  23  24
ATOM     24  C   UNL     1      51.181   9.267  17.301  0.00  0.00    +0.000 C 
BRANCH  24  25
ATOM     25  N   UNL     1      50.016   8.864  18.091  0.00  0.00    +0.000 NA
ATOM     26  H   UNL     1      49.238   8.629  17.477  0.00  0.00    +0.000 HD
BRANCH  25  27
ATOM     27  C   UNL     1      50.333   7.734  18.956  0.00  0.00    +0.000 C 
BRANCH  27  28
ATOM     28  C   UNL     1      49.788   6.452  18.396  0.00  0.00    +0.000 A 
ATOM     29  C   UNL     1      50.607   5.340  18.183  0.00  0.00    +0.000 A 
ATOM     30  C   UNL     1      50.066   4.173  17.649  0.00  0.00    +0.000 A 
ATOM     31  C   UNL     1      48.706   4.136  17.334  0.00  0.00    +0.000 A 
ATOM     32  N   UNL     1      47.895   5.216  17.532  0.00  0.00    +0.000 NA
ATOM     33  C   UNL     1      48.449   6.333  18.052  0.00  0.00    +0.000 A 
BRANCH  31  34
ATOM     34  C   UNL     1      48.093   2.867  16.759  0.00  0.00    +0.000 C 
ATOM     35  F   UNL     1      47.544   3.042  15.519  0.00  0.00    +0.000 F 
ATOM     36  F   UNL     1      48.997   1.857  16.613  0.00  0.00    +0.000 F 
ATOM     37  F   UNL     1      47.086   2.362  17.530  0.00  0.00    +0.000 F 
ENDBRANCH  31  34
ENDBRANCH  27  28
ENDBRANCH  25  27
ENDBRANCH  24  25
ENDBRANCH  23  24
ENDBRANCH   4  23
TORSDOF 9
ENDMDL
