MODEL 1
REMARK VINA RESULT:    -7.791      0.000      0.000
REMARK INTER + INTRA:         -11.144
REMARK INTER:                 -10.523
REMARK INTRA:                  -0.621
REMARK UNBOUND:                -0.621
REMARK  Name = 
REMARK  7 active torsions:
REMARK  status: ('A' for Active; 'I' for Inactive)
REMARK    1  A    between atoms: C_1  and  C_2
REMARK    2  A    between atoms: C_2  and  N_3
REMARK    3  A    between atoms: C_2  and  C_21
REMARK    4  A    between atoms: C_4  and  C_6
REMARK    5  A    between atoms: C_9  and  C_10
REMARK    6  A    between atoms: C_10  and  N_11
REMARK    7  A    between atoms: C_12  and  C_14
REMARK                            x       y       z     vdW  Elec       q    Type
REMARK                         _______ _______ _______ _____ _____    ______ ____
ROOT
ATOM      1  N   UNL     1      47.249   5.345  15.173  0.00  0.00    +0.000 N 
ATOM      2  C   UNL     1      47.418   4.066  15.709  0.00  0.00    +0.000 C 
ATOM      3  O   UNL     1      47.837   3.120  15.040  0.00  0.00    +0.000 OA
ATOM      4  H   UNL     1      46.899   6.122  15.723  0.00  0.00    +0.000 HD
ENDROOT
BRANCH   2   5
ATOM      5  C   UNL     1      47.054   3.849  17.190  0.00  0.00    +0.000 C 
ATOM      6  C   UNL     1      47.849   2.692  17.757  0.00  0.00    +0.000 C 
ATOM      7  C   UNL     1      49.324   3.015  17.816  0.00  0.00    +0.000 C 
ATOM      8  C   UNL     1      49.606   4.255  18.642  0.00  0.00    +0.000 C 
ATOM      9  C   UNL     1      48.805   5.429  18.107  0.00  0.00    +0.000 C 
ATOM     10  C   UNL     1      47.326   5.106  18.026  0.00  0.00    +0.000 C 
BRANCH   8  11
ATOM     11  C   UNL     1      51.099   4.566  18.610  0.00  0.00    +0.000 C 
BRANCH  11  12
ATOM     12  N   UNL     1      51.877   3.527  17.915  0.00  0.00    +0.000 N 
ATOM     13  C   UNL     1      52.987   2.890  18.526  0.00  0.00    +0.000 C 
ATOM     14  O   UNL     1      53.325   3.200  19.667  0.00  0.00    +0.000 OA
ATOM     15  H   UNL     1      51.564   3.279  16.981  0.00  0.00    +0.000 HD
BRANCH  13  16
ATOM     16  C   UNL     1      53.722   1.883  17.728  0.00  0.00    +0.000 A 
ATOM     17  C   UNL     1      53.250   0.641  17.372  0.00  0.00    +0.000 A 
ATOM     18  C   UNL     1      54.173  -0.156  16.675  0.00  0.00    +0.000 A 
ATOM     19  C   UNL     1      55.361   0.492  16.474  0.00  0.00    +0.000 A 
ATOM     20  S   UNL     1      55.335   2.084  17.116  0.00  0.00    +0.000 S 
ENDBRANCH  13  16
ENDBRANCH  11  12
ENDBRANCH   8  11
ENDBRANCH   2   5
BRANCH   1  22
ATOM     21  C   UNL     1      48.599   6.730  13.689  0.00  0.00    +0.000 C 
ATOM     22  C   UNL     1      47.573   5.617  13.759  0.00  0.00    +0.000 C 
BRANCH  22  23
ATOM     23  C   UNL     1      46.351   6.005  12.941  0.00  0.00    +0.000 A 
ATOM     24  C   UNL     1      46.117   7.340  12.599  0.00  0.00    +0.000 A 
ATOM     25  S   UNL     1      44.760   7.516  11.574  0.00  0.00    +0.000 S 
ATOM     26  C   UNL     1      44.425   5.845  11.528  0.00  0.00    +0.000 A 
ATOM     27  N   UNL     1      43.409   5.251  10.824  0.00  0.00    +0.000 NA
ATOM     28  C   UNL     1      43.409   4.027  10.990  0.00  0.00    +0.000 A 
ATOM     29  N   UNL     1      43.381   2.813  11.142  0.00  0.00    +0.000 N 
ATOM     30  C   UNL     1      44.904   3.462  12.213  0.00  0.00    +0.000 A 
ATOM     31  O   UNL     1      45.772   3.047  12.904  0.00  0.00    +0.000 OA
ATOM     32  C   UNL     1      45.271   5.105  12.266  0.00  0.00    +0.000 A 
ATOM     33  H   UNL     1      42.389   2.923  10.364  0.00  0.00    +0.000 HD
ENDBRANCH  22  23
ENDBRANCH   1  22
TORSDOF 6
ENDMDL
MODEL 2
REMARK VINA RESULT:    -7.530      2.147      2.950
REMARK INTER + INTRA:         -10.792
REMARK INTER:                 -10.030
REMARK INTRA:                  -0.762
REMARK UNBOUND:                -0.621
REMARK  Name = 
REMARK  7 active torsions:
REMARK  status: ('A' for Active; 'I' for Inactive)
REMARK    1  A    between atoms: C_1  and  C_2
REMARK    2  A    between atoms: C_2  and  N_3
REMARK    3  A    between atoms: C_2  and  C_21
REMARK    4  A    between atoms: C_4  and  C_6
REMARK    5  A    between atoms: C_9  and  C_10
REMARK    6  A    between atoms: C_10  and  N_11
REMARK    7  A    between atoms: C_12  and  C_14
REMARK                            x       y       z     vdW  Elec       q    Type
REMARK                         _______ _______ _______ _____ _____    ______ ____
ROOT
ATOM      1  N   UNL     1      47.274   5.371  15.140  0.00  0.00    +0.000 N 
ATOM      2  C   UNL     1      47.400   4.093  15.693  0.00  0.00    +0.000 C 
ATOM      3  O   UNL     1      47.746   3.116  15.026  0.00  0.00    +0.000 OA
ATOM      4  H   UNL     1      46.984   6.173  15.688  0.00  0.00    +0.000 HD
ENDROOT
BRANCH   2   5
ATOM      5  C   UNL     1      47.082   3.919  17.190  0.00  0.00    +0.000 C 
ATOM      6  C   UNL     1      47.812   2.713  17.741  0.00  0.00    +0.000 C 
ATOM      7  C   UNL     1      49.308   2.926  17.736  0.00  0.00    +0.000 C 
ATOM      8  C   UNL     1      49.714   4.151  18.533  0.00  0.00    +0.000 C 
ATOM      9  C   UNL     1      48.981   5.375  18.015  0.00  0.00    +0.000 C 
ATOM     10  C   UNL     1      47.479   5.162  17.998  0.00  0.00    +0.000 C 
BRANCH   8  11
ATOM     11  C   UNL     1      51.223   4.350  18.437  0.00  0.00    +0.000 C 
BRANCH  11  12
ATOM     12  N   UNL     1      51.605   5.243  17.332  0.00  0.00    +0.000 N 
ATOM     13  C   UNL     1      52.951   5.642  17.123  0.00  0.00    +0.000 C 
ATOM     14  O   UNL     1      53.836   5.240  17.876  0.00  0.00    +0.000 OA
ATOM     15  H   UNL     1      50.855   5.544  16.717  0.00  0.00    +0.000 HD
BRANCH  13  16
ATOM     16  C   UNL     1      53.223   6.570  16.004  0.00  0.00    +0.000 A 
ATOM     17  C   UNL     1      52.351   7.515  15.514  0.00  0.00    +0.000 A 
ATOM     18  C   UNL     1      52.824   8.220  14.396  0.00  0.00    +0.000 A 
ATOM     19  C   UNL     1      54.083   7.827  14.035  0.00  0.00    +0.000 A 
ATOM     20  S   UNL     1      54.696   6.613  15.084  0.00  0.00    +0.000 S 
ENDBRANCH  13  16
ENDBRANCH  11  12
ENDBRANCH   8  11
ENDBRANCH   2   5
BRANCH   1  22
ATOM     21  C   UNL     1      48.598   6.697  13.580  0.00  0.00    +0.000 C 
ATOM     22  C   UNL     1      47.558   5.602  13.710  0.00  0.00    +0.000 C 
BRANCH  22  23
ATOM     23  C   UNL     1      46.317   5.988  12.921  0.00  0.00    +0.000 A 
ATOM     24  C   UNL     1      46.076   7.323  12.580  0.00  0.00    +0.000 A 
ATOM     25  S   UNL     1      44.694   7.497  11.588  0.00  0.00    +0.000 S 
ATOM     26  C   UNL     1      44.357   5.826  11.556  0.00  0.00    +0.000 A 
ATOM     27  N   UNL     1      43.323   5.231  10.878  0.00  0.00    +0.000 NA
ATOM     28  C   UNL     1      43.327   4.006  11.048  0.00  0.00    +0.000 A 
ATOM     29  N   UNL     1      43.302   2.793  11.205  0.00  0.00    +0.000 N 
ATOM     30  C   UNL     1      44.850   3.444  12.236  0.00  0.00    +0.000 A 
ATOM     31  O   UNL     1      45.735   3.031  12.908  0.00  0.00    +0.000 OA
ATOM     32  C   UNL     1      45.220   5.088  12.275  0.00  0.00    +0.000 A 
ATOM     33  H   UNL     1      42.291   2.901  10.451  0.00  0.00    +0.000 HD
ENDBRANCH  22  23
ENDBRANCH   1  22
TORSDOF 6
ENDMDL
MODEL 3
REMARK VINA RESULT:    -7.220      3.010      9.197
REMARK INTER + INTRA:         -10.374
REMARK INTER:                 -10.225
REMARK INTRA:                  -0.149
REMARK UNBOUND:                -0.621
REMARK  Name = 
REMARK  7 active torsions:
REMARK  status: ('A' for Active; 'I' for Inactive)
REMARK    1  A    between atoms: C_1  and  C_2
REMARK    2  A    between atoms: C_2  and  N_3
REMARK    3  A    between atoms: C_2  and  C_21
REMARK    4  A    between atoms: C_4  and  C_6
REMARK    5  A    between atoms: C_9  and  C_10
REMARK    6  A    between atoms: C_10  and  N_11
REMARK    7  A    between atoms: C_12  and  C_14
REMARK                            x       y       z     vdW  Elec       q    Type
REMARK                         _______ _______ _______ _____ _____    ______ ____
ROOT
ATOM      1  N   UNL     1      48.306   6.349  15.711  0.00  0.00    +0.000 N 
ATOM      2  C   UNL     1      48.066   6.303  14.335  0.00  0.00    +0.000 C 
ATOM      3  O   UNL     1      47.965   5.242  13.717  0.00  0.00    +0.000 OA
ATOM      4  H   UNL     1      48.395   7.222  16.218  0.00  0.00    +0.000 HD
ENDROOT
BRANCH   2   5
ATOM      5  C   UNL     1      47.933   7.640  13.580  0.00  0.00    +0.000 C 
ATOM      6  C   UNL     1      48.326   7.459  12.129  0.00  0.00    +0.000 C 
ATOM      7  C   UNL     1      47.350   6.563  11.403  0.00  0.00    +0.000 C 
ATOM      8  C   UNL     1      45.931   7.094  11.464  0.00  0.00    +0.000 C 
ATOM      9  C   UNL     1      45.516   7.304  12.909  0.00  0.00    +0.000 C 
ATOM     10  C   UNL     1      46.502   8.187  13.651  0.00  0.00    +0.000 C 
BRANCH   8  11
ATOM     11  C   UNL     1      44.986   6.118  10.772  0.00  0.00    +0.000 C 
BRANCH  11  12
ATOM     12  N   UNL     1      45.695   5.176   9.889  0.00  0.00    +0.000 N 
ATOM     13  C   UNL     1      45.005   4.369   8.948  0.00  0.00    +0.000 C 
ATOM     14  O   UNL     1      43.781   4.444   8.853  0.00  0.00    +0.000 OA
ATOM     15  H   UNL     1      46.706   5.149   9.979  0.00  0.00    +0.000 HD
BRANCH  13  16
ATOM     16  C   UNL     1      45.808   3.431   8.133  0.00  0.00    +0.000 A 
ATOM     17  C   UNL     1      46.571   3.769   7.039  0.00  0.00    +0.000 A 
ATOM     18  C   UNL     1      47.179   2.679   6.394  0.00  0.00    +0.000 A 
ATOM     19  C   UNL     1      46.898   1.493   7.014  0.00  0.00    +0.000 A 
ATOM     20  S   UNL     1      45.911   1.717   8.402  0.00  0.00    +0.000 S 
ENDBRANCH  13  16
ENDBRANCH  11  12
ENDBRANCH   8  11
ENDBRANCH   2   5
BRANCH   1  22
ATOM     21  C   UNL     1      47.374   5.057  17.557  0.00  0.00    +0.000 C 
ATOM     22  C   UNL     1      48.449   5.103  16.490  0.00  0.00    +0.000 C 
BRANCH  22  23
ATOM     23  C   UNL     1      49.816   4.975  17.146  0.00  0.00    +0.000 A 
ATOM     24  C   UNL     1      50.431   6.086  17.732  0.00  0.00    +0.000 A 
ATOM     25  S   UNL     1      51.894   5.675  18.515  0.00  0.00    +0.000 S 
ATOM     26  C   UNL     1      51.779   4.019  18.125  0.00  0.00    +0.000 A 
ATOM     27  N   UNL     1      52.677   3.047  18.488  0.00  0.00    +0.000 NA
ATOM     28  C   UNL     1      52.335   1.941  18.054  0.00  0.00    +0.000 A 
ATOM     29  N   UNL     1      52.023   0.836  17.631  0.00  0.00    +0.000 N 
ATOM     30  C   UNL     1      50.614   2.071  17.018  0.00  0.00    +0.000 A 
ATOM     31  O   UNL     1      49.594   2.059  16.415  0.00  0.00    +0.000 OA
ATOM     32  C   UNL     1      50.690   3.710  17.401  0.00  0.00    +0.000 A 
ATOM     33  H   UNL     1      53.092   0.510  18.226  0.00  0.00    +0.000 HD
ENDBRANCH  22  23
ENDBRANCH   1  22
TORSDOF 6
ENDMDL
MODEL 4
REMARK VINA RESULT:    -7.115      3.232      9.223
REMARK INTER + INTRA:         -10.232
REMARK INTER:                  -9.755
REMARK INTRA:                  -0.477
REMARK UNBOUND:                -0.621
REMARK  Name = 
REMARK  7 active torsions:
REMARK  status: ('A' for Active; 'I' for Inactive)
REMARK    1  A    between atoms: C_1  and  C_2
REMARK    2  A    between atoms: C_2  and  N_3
REMARK    3  A    between atoms: C_2  and  C_21
REMARK    4  A    between atoms: C_4  and  C_6
REMARK    5  A    between atoms: C_9  and  C_10
REMARK    6  A    between atoms: C_10  and  N_11
REMARK    7  A    between atoms: C_12  and  C_14
REMARK                            x       y       z     vdW  Elec       q    Type
REMARK                         _______ _______ _______ _____ _____    ______ ____
ROOT
ATOM      1  N   UNL     1      47.918   6.699  15.233  0.00  0.00    +0.000 N 
ATOM      2  C   UNL     1      48.083   6.692  13.845  0.00  0.00    +0.000 C 
ATOM      3  O   UNL     1      48.644   5.770  13.251  0.00  0.00    +0.000 OA
ATOM      4  H   UNL     1      47.462   7.461  15.721  0.00  0.00    +0.000 HD
ENDROOT
BRANCH   2   5
ATOM      5  C   UNL     1      47.543   7.895  13.047  0.00  0.00    +0.000 C 
ATOM      6  C   UNL     1      47.740   7.666  11.564  0.00  0.00    +0.000 C 
ATOM      7  C   UNL     1      46.890   6.521  11.066  0.00  0.00    +0.000 C 
ATOM      8  C   UNL     1      45.415   6.745  11.335  0.00  0.00    +0.000 C 
ATOM      9  C   UNL     1      45.188   6.996  12.815  0.00  0.00    +0.000 C 
ATOM     10  C   UNL     1      46.053   8.132  13.327  0.00  0.00    +0.000 C 
BRANCH   8  11
ATOM     11  C   UNL     1      44.618   5.531  10.870  0.00  0.00    +0.000 C 
BRANCH  11  12
ATOM     12  N   UNL     1      45.327   4.749   9.843  0.00  0.00    +0.000 N 
ATOM     13  C   UNL     1      44.915   3.440   9.482  0.00  0.00    +0.000 C 
ATOM     14  O   UNL     1      43.941   2.927  10.031  0.00  0.00    +0.000 OA
ATOM     15  H   UNL     1      46.115   5.206   9.395  0.00  0.00    +0.000 HD
BRANCH  13  16
ATOM     16  C   UNL     1      45.717   2.728   8.463  0.00  0.00    +0.000 A 
ATOM     17  C   UNL     1      45.918   1.368   8.407  0.00  0.00    +0.000 A 
ATOM     18  C   UNL     1      46.782   0.949   7.382  0.00  0.00    +0.000 A 
ATOM     19  C   UNL     1      47.232   1.998   6.628  0.00  0.00    +0.000 A 
ATOM     20  S   UNL     1      46.575   3.493   7.161  0.00  0.00    +0.000 S 
ENDBRANCH  13  16
ENDBRANCH  11  12
ENDBRANCH   8  11
ENDBRANCH   2   5
BRANCH   1  22
ATOM     21  C   UNL     1      47.326   4.541  16.200  0.00  0.00    +0.000 C 
ATOM     22  C   UNL     1      48.419   5.580  16.055  0.00  0.00    +0.000 C 
BRANCH  22  23
ATOM     23  C   UNL     1      48.878   6.025  17.435  0.00  0.00    +0.000 A 
ATOM     24  C   UNL     1      48.156   6.986  18.150  0.00  0.00    +0.000 A 
ATOM     25  S   UNL     1      48.787   7.230  19.720  0.00  0.00    +0.000 S 
ATOM     26  C   UNL     1      50.030   6.079  19.532  0.00  0.00    +0.000 A 
ATOM     27  N   UNL     1      50.957   5.738  20.485  0.00  0.00    +0.000 NA
ATOM     28  C   UNL     1      51.739   4.881  20.059  0.00  0.00    +0.000 A 
ATOM     29  N   UNL     1      52.531   4.039  19.661  0.00  0.00    +0.000 N 
ATOM     30  C   UNL     1      51.293   4.373  18.163  0.00  0.00    +0.000 A 
ATOM     31  O   UNL     1      51.082   4.003  17.058  0.00  0.00    +0.000 OA
ATOM     32  C   UNL     1      50.044   5.492  18.323  0.00  0.00    +0.000 A 
ATOM     33  H   UNL     1      52.996   4.190  20.828  0.00  0.00    +0.000 HD
ENDBRANCH  22  23
ENDBRANCH   1  22
TORSDOF 6
ENDMDL
MODEL 5
REMARK VINA RESULT:    -6.395      3.032      8.463
REMARK INTER + INTRA:          -9.259
REMARK INTER:                  -8.010
REMARK INTRA:                  -1.250
REMARK UNBOUND:                -0.621
REMARK  Name = 
REMARK  7 active torsions:
REMARK  status: ('A' for Active; 'I' for Inactive)
REMARK    1  A    between atoms: C_1  and  C_2
REMARK    2  A    between atoms: C_2  and  N_3
REMARK    3  A    between atoms: C_2  and  C_21
REMARK    4  A    between atoms: C_4  and  C_6
REMARK    5  A    between atoms: C_9  and  C_10
REMARK    6  A    between atoms: C_10  and  N_11
REMARK    7  A    between atoms: C_12  and  C_14
REMARK                            x       y       z     vdW  Elec       q    Type
REMARK                         _______ _______ _______ _____ _____    ______ ____
ROOT
ATOM      1  N   UNL     1      51.480   7.635  14.658  0.00  0.00    +0.000 N 
ATOM      2  C   UNL     1      50.912   8.783  14.097  0.00  0.00    +0.000 C 
ATOM      3  O   UNL     1      50.629   9.775  14.770  0.00  0.00    +0.000 OA
ATOM      4  H   UNL     1      51.707   6.817  14.105  0.00  0.00    +0.000 HD
ENDROOT
BRANCH   2   5
ATOM      5  C   UNL     1      50.630   8.783  12.582  0.00  0.00    +0.000 C 
ATOM      6  C   UNL     1      50.112   7.429  12.149  0.00  0.00    +0.000 C 
ATOM      7  C   UNL     1      48.754   7.142  12.745  0.00  0.00    +0.000 C 
ATOM      8  C   UNL     1      47.731   8.198  12.374  0.00  0.00    +0.000 C 
ATOM      9  C   UNL     1      48.233   9.573  12.780  0.00  0.00    +0.000 C 
ATOM     10  C   UNL     1      49.606   9.860  12.201  0.00  0.00    +0.000 C 
BRANCH   8  11
ATOM     11  C   UNL     1      46.403   7.891  13.056  0.00  0.00    +0.000 C 
BRANCH  11  12
ATOM     12  N   UNL     1      45.655   6.818  12.378  0.00  0.00    +0.000 N 
ATOM     13  C   UNL     1      45.547   5.517  12.931  0.00  0.00    +0.000 C 
ATOM     14  O   UNL     1      46.086   5.257  14.006  0.00  0.00    +0.000 OA
ATOM     15  H   UNL     1      45.207   7.067  11.501  0.00  0.00    +0.000 HD
BRANCH  13  16
ATOM     16  C   UNL     1      44.802   4.503  12.153  0.00  0.00    +0.000 A 
ATOM     17  C   UNL     1      43.910   3.591  12.668  0.00  0.00    +0.000 A 
ATOM     18  C   UNL     1      43.392   2.687  11.727  0.00  0.00    +0.000 A 
ATOM     19  C   UNL     1      43.875   2.920  10.470  0.00  0.00    +0.000 A 
ATOM     20  S   UNL     1      44.944   4.265  10.438  0.00  0.00    +0.000 S 
ENDBRANCH  13  16
ENDBRANCH  11  12
ENDBRANCH   8  11
ENDBRANCH   2   5
BRANCH   1  22
ATOM     21  C   UNL     1      53.214   7.956  16.341  0.00  0.00    +0.000 C 
ATOM     22  C   UNL     1      51.768   7.570  16.104  0.00  0.00    +0.000 C 
BRANCH  22  23
ATOM     23  C   UNL     1      51.513   6.190  16.691  0.00  0.00    +0.000 A 
ATOM     24  C   UNL     1      52.564   5.433  17.216  0.00  0.00    +0.000 A 
ATOM     25  S   UNL     1      52.019   3.979  17.932  0.00  0.00    +0.000 S 
ATOM     26  C   UNL     1      50.377   4.284  17.590  0.00  0.00    +0.000 A 
ATOM     27  N   UNL     1      49.324   3.473  17.930  0.00  0.00    +0.000 NA
ATOM     28  C   UNL     1      48.252   3.950  17.542  0.00  0.00    +0.000 A 
ATOM     29  N   UNL     1      47.176   4.395  17.164  0.00  0.00    +0.000 N 
ATOM     30  C   UNL     1      48.539   5.702  16.595  0.00  0.00    +0.000 A 
ATOM     31  O   UNL     1      48.621   6.748  16.046  0.00  0.00    +0.000 OA
ATOM     32  C   UNL     1      50.168   5.437  16.932  0.00  0.00    +0.000 A 
ATOM     33  H   UNL     1      46.754   3.335  17.711  0.00  0.00    +0.000 HD
ENDBRANCH  22  23
ENDBRANCH   1  22
TORSDOF 6
ENDMDL
MODEL 6
REMARK VINA RESULT:    -6.079      3.692      5.855
REMARK INTER + INTRA:          -8.833
REMARK INTER:                  -7.886
REMARK INTRA:                  -0.947
REMARK UNBOUND:                -0.621
REMARK  Name = 
REMARK  7 active torsions:
REMARK  status: ('A' for Active; 'I' for Inactive)
REMARK    1  A    between atoms: C_1  and  C_2
REMARK    2  A    between atoms: C_2  and  N_3
REMARK    3  A    between atoms: C_2  and  C_21
REMARK    4  A    between atoms: C_4  and  C_6
REMARK    5  A    between atoms: C_9  and  C_10
REMARK    6  A    between atoms: C_10  and  N_11
REMARK    7  A    between atoms: C_12  and  C_14
REMARK                            x       y       z     vdW  Elec       q    Type
REMARK                         _______ _______ _______ _____ _____    ______ ____
ROOT
ATOM      1  N   UNL     1      47.672   4.663  15.751  0.00  0.00    +0.000 N 
ATOM      2  C   UNL     1      47.598   4.158  17.052  0.00  0.00    +0.000 C 
ATOM      3  O   UNL     1      46.695   3.402  17.417  0.00  0.00    +0.000 OA
ATOM      4  H   UNL     1      48.412   5.289  15.454  0.00  0.00    +0.000 HD
ENDROOT
BRANCH   2   5
ATOM      5  C   UNL     1      48.689   4.579  18.055  0.00  0.00    +0.000 C 
ATOM      6  C   UNL     1      49.798   5.316  17.337  0.00  0.00    +0.000 C 
ATOM      7  C   UNL     1      49.315   6.639  16.788  0.00  0.00    +0.000 C 
ATOM      8  C   UNL     1      48.752   7.537  17.872  0.00  0.00    +0.000 C 
ATOM      9  C   UNL     1      47.648   6.815  18.624  0.00  0.00    +0.000 C 
ATOM     10  C   UNL     1      48.119   5.477  19.161  0.00  0.00    +0.000 C 
BRANCH   8  11
ATOM     11  C   UNL     1      48.223   8.825  17.250  0.00  0.00    +0.000 C 
BRANCH  11  12
ATOM     12  N   UNL     1      48.528   8.924  15.813  0.00  0.00    +0.000 N 
ATOM     13  C   UNL     1      48.882  10.157  15.207  0.00  0.00    +0.000 C 
ATOM     14  O   UNL     1      48.941  11.182  15.885  0.00  0.00    +0.000 OA
ATOM     15  H   UNL     1      48.488   8.058  15.284  0.00  0.00    +0.000 HD
BRANCH  13  16
ATOM     16  C   UNL     1      49.136  10.154  13.750  0.00  0.00    +0.000 A 
ATOM     17  C   UNL     1      48.517  10.964  12.826  0.00  0.00    +0.000 A 
ATOM     18  C   UNL     1      48.883  10.713  11.493  0.00  0.00    +0.000 A 
ATOM     19  C   UNL     1      49.811   9.713  11.395  0.00  0.00    +0.000 A 
ATOM     20  S   UNL     1      50.253   9.101  12.937  0.00  0.00    +0.000 S 
ENDBRANCH  13  16
ENDBRANCH  11  12
ENDBRANCH   8  11
ENDBRANCH   2   5
BRANCH   1  22
ATOM     21  C   UNL     1      47.174   3.156  13.901  0.00  0.00    +0.000 C 
ATOM     22  C   UNL     1      46.654   4.302  14.745  0.00  0.00    +0.000 C 
BRANCH  22  23
ATOM     23  C   UNL     1      46.284   5.468  13.841  0.00  0.00    +0.000 A 
ATOM     24  C   UNL     1      47.194   6.503  13.606  0.00  0.00    +0.000 A 
ATOM     25  S   UNL     1      46.607   7.630  12.462  0.00  0.00    +0.000 S 
ATOM     26  C   UNL     1      45.137   6.803  12.220  0.00  0.00    +0.000 A 
ATOM     27  N   UNL     1      44.139   7.179  11.356  0.00  0.00    +0.000 NA
ATOM     28  C   UNL     1      43.189   6.389  11.402  0.00  0.00    +0.000 A 
ATOM     29  N   UNL     1      42.232   5.628  11.433  0.00  0.00    +0.000 N 
ATOM     30  C   UNL     1      43.541   4.910  12.720  0.00  0.00    +0.000 A 
ATOM     31  O   UNL     1      43.683   3.994  13.458  0.00  0.00    +0.000 OA
ATOM     32  C   UNL     1      45.011   5.695  12.970  0.00  0.00    +0.000 A 
ATOM     33  H   UNL     1      41.793   6.440  10.567  0.00  0.00    +0.000 HD
ENDBRANCH  22  23
ENDBRANCH   1  22
TORSDOF 6
ENDMDL
MODEL 7
REMARK VINA RESULT:    -6.062      2.236      9.364
REMARK INTER + INTRA:          -8.809
REMARK INTER:                  -7.848
REMARK INTRA:                  -0.961
REMARK UNBOUND:                -0.621
REMARK  Name = 
REMARK  7 active torsions:
REMARK  status: ('A' for Active; 'I' for Inactive)
REMARK    1  A    between atoms: C_1  and  C_2
REMARK    2  A    between atoms: C_2  and  N_3
REMARK    3  A    between atoms: C_2  and  C_21
REMARK    4  A    between atoms: C_4  and  C_6
REMARK    5  A    between atoms: C_9  and  C_10
REMARK    6  A    between atoms: C_10  and  N_11
REMARK    7  A    between atoms: C_12  and  C_14
REMARK                            x       y       z     vdW  Elec       q    Type
REMARK                         _______ _______ _______ _____ _____    ______ ____
ROOT
ATOM      1  N   UNL     1      51.116   4.521  19.428  0.00  0.00    +0.000 N 
ATOM      2  C   UNL     1      50.038   5.170  20.038  0.00  0.00    +0.000 C 
ATOM      3  O   UNL     1      50.172   6.218  20.672  0.00  0.00    +0.000 OA
ATOM      4  H   UNL     1      51.006   3.656  18.912  0.00  0.00    +0.000 HD
ENDROOT
BRANCH   2   5
ATOM      5  C   UNL     1      48.643   4.530  19.910  0.00  0.00    +0.000 C 
ATOM      6  C   UNL     1      47.632   5.569  19.475  0.00  0.00    +0.000 C 
ATOM      7  C   UNL     1      47.912   6.055  18.071  0.00  0.00    +0.000 C 
ATOM      8  C   UNL     1      47.914   4.922  17.064  0.00  0.00    +0.000 C 
ATOM      9  C   UNL     1      48.907   3.853  17.486  0.00  0.00    +0.000 C 
ATOM     10  C   UNL     1      48.645   3.374  18.901  0.00  0.00    +0.000 C 
BRANCH   8  11
ATOM     11  C   UNL     1      48.265   5.463  15.682  0.00  0.00    +0.000 C 
BRANCH  11  12
ATOM     12  N   UNL     1      47.113   5.458  14.764  0.00  0.00    +0.000 N 
ATOM     13  C   UNL     1      46.757   4.305  14.018  0.00  0.00    +0.000 C 
ATOM     14  O   UNL     1      47.417   3.273  14.126  0.00  0.00    +0.000 OA
ATOM     15  H   UNL     1      46.578   6.319  14.710  0.00  0.00    +0.000 HD
BRANCH  13  16
ATOM     16  C   UNL     1      45.603   4.416  13.099  0.00  0.00    +0.000 A 
ATOM     17  C   UNL     1      45.085   3.396  12.335  0.00  0.00    +0.000 A 
ATOM     18  C   UNL     1      44.032   3.779  11.488  0.00  0.00    +0.000 A 
ATOM     19  C   UNL     1      43.723   5.105  11.620  0.00  0.00    +0.000 A 
ATOM     20  S   UNL     1      44.706   5.873  12.800  0.00  0.00    +0.000 S 
ENDBRANCH  13  16
ENDBRANCH  11  12
ENDBRANCH   8  11
ENDBRANCH   2   5
BRANCH   1  22
ATOM     21  C   UNL     1      52.821   5.774  18.217  0.00  0.00    +0.000 C 
ATOM     22  C   UNL     1      52.479   5.080  19.520  0.00  0.00    +0.000 C 
BRANCH  22  23
ATOM     23  C   UNL     1      53.528   4.019  19.817  0.00  0.00    +0.000 A 
ATOM     24  C   UNL     1      54.452   4.201  20.851  0.00  0.00    +0.000 A 
ATOM     25  S   UNL     1      55.444   2.827  21.078  0.00  0.00    +0.000 S 
ATOM     26  C   UNL     1      54.698   1.931  19.835  0.00  0.00    +0.000 A 
ATOM     27  N   UNL     1      55.017   0.647  19.470  0.00  0.00    +0.000 NA
ATOM     28  C   UNL     1      54.312   0.263  18.530  0.00  0.00    +0.000 A 
ATOM     29  N   UNL     1      53.633  -0.140  17.595  0.00  0.00    +0.000 N 
ATOM     30  C   UNL     1      53.014   1.694  17.967  0.00  0.00    +0.000 A 
ATOM     31  O   UNL     1      52.204   2.474  17.593  0.00  0.00    +0.000 OA
ATOM     32  C   UNL     1      53.719   2.600  19.200  0.00  0.00    +0.000 A 
ATOM     33  H   UNL     1      54.343  -1.174  17.766  0.00  0.00    +0.000 HD
ENDBRANCH  22  23
ENDBRANCH   1  22
TORSDOF 6
ENDMDL
MODEL 8
REMARK VINA RESULT:    -5.990      1.905      2.488
REMARK INTER + INTRA:          -8.712
REMARK INTER:                  -8.843
REMARK INTRA:                   0.130
REMARK UNBOUND:                -0.621
REMARK  Name = 
REMARK  7 active torsions:
REMARK  status: ('A' for Active; 'I' for Inactive)
REMARK    1  A    between atoms: C_1  and  C_2
REMARK    2  A    between atoms: C_2  and  N_3
REMARK    3  A    between atoms: C_2  and  C_21
REMARK    4  A    between atoms: C_4  and  C_6
REMARK    5  A    between atoms: C_9  and  C_10
REMARK    6  A    between atoms: C_10  and  N_11
REMARK    7  A    between atoms: C_12  and  C_14
REMARK                            x       y       z     vdW  Elec       q    Type
REMARK                         _______ _______ _______ _____ _____    ______ ____
ROOT
ATOM      1  N   UNL     1      47.070   5.196  14.983  0.00  0.00    +0.000 N 
ATOM      2  C   UNL     1      48.003   5.089  16.019  0.00  0.00    +0.000 C 
ATOM      3  O   UNL     1      49.116   5.615  15.962  0.00  0.00    +0.000 OA
ATOM      4  H   UNL     1      46.157   4.758  15.028  0.00  0.00    +0.000 HD
ENDROOT
BRANCH   2   5
ATOM      5  C   UNL     1      47.609   4.273  17.265  0.00  0.00    +0.000 C 
ATOM      6  C   UNL     1      47.787   2.795  16.997  0.00  0.00    +0.000 C 
ATOM      7  C   UNL     1      49.244   2.441  16.809  0.00  0.00    +0.000 C 
ATOM      8  C   UNL     1      50.086   2.826  18.010  0.00  0.00    +0.000 C 
ATOM      9  C   UNL     1      49.912   4.303  18.315  0.00  0.00    +0.000 C 
ATOM     10  C   UNL     1      48.450   4.670  18.486  0.00  0.00    +0.000 C 
BRANCH   8  11
ATOM     11  C   UNL     1      51.551   2.505  17.735  0.00  0.00    +0.000 C 
BRANCH  11  12
ATOM     12  N   UNL     1      52.402   3.706  17.736  0.00  0.00    +0.000 N 
ATOM     13  C   UNL     1      53.812   3.625  17.604  0.00  0.00    +0.000 C 
ATOM     14  O   UNL     1      54.357   2.528  17.484  0.00  0.00    +0.000 OA
ATOM     15  H   UNL     1      51.922   4.597  17.819  0.00  0.00    +0.000 HD
BRANCH  13  16
ATOM     16  C   UNL     1      54.578   4.890  17.652  0.00  0.00    +0.000 A 
ATOM     17  C   UNL     1      54.948   5.561  18.795  0.00  0.00    +0.000 A 
ATOM     18  C   UNL     1      55.606   6.780  18.567  0.00  0.00    +0.000 A 
ATOM     19  C   UNL     1      55.764   7.037  17.233  0.00  0.00    +0.000 A 
ATOM     20  S   UNL     1      55.128   5.772  16.261  0.00  0.00    +0.000 S 
ENDBRANCH  13  16
ENDBRANCH  11  12
ENDBRANCH   8  11
ENDBRANCH   2   5
BRANCH   1  22
ATOM     21  C   UNL     1      47.988   7.295  14.149  0.00  0.00    +0.000 C 
ATOM     22  C   UNL     1      47.390   5.958  13.760  0.00  0.00    +0.000 C 
BRANCH  22  23
ATOM     23  C   UNL     1      46.172   6.187  12.878  0.00  0.00    +0.000 A 
ATOM     24  C   UNL     1      45.862   7.468  12.411  0.00  0.00    +0.000 A 
ATOM     25  S   UNL     1      44.531   7.460  11.338  0.00  0.00    +0.000 S 
ATOM     26  C   UNL     1      44.309   5.772  11.434  0.00  0.00    +0.000 A 
ATOM     27  N   UNL     1      43.357   5.050  10.759  0.00  0.00    +0.000 NA
ATOM     28  C   UNL     1      43.433   3.847  11.035  0.00  0.00    +0.000 A 
ATOM     29  N   UNL     1      43.481   2.653  11.295  0.00  0.00    +0.000 N 
ATOM     30  C   UNL     1      44.921   3.497  12.343  0.00  0.00    +0.000 A 
ATOM     31  O   UNL     1      45.791   3.205  13.093  0.00  0.00    +0.000 OA
ATOM     32  C   UNL     1      45.176   5.160  12.258  0.00  0.00    +0.000 A 
ATOM     33  H   UNL     1      42.509   2.625  10.484  0.00  0.00    +0.000 HD
ENDBRANCH  22  23
ENDBRANCH   1  22
TORSDOF 6
ENDMDL
MODEL 9
REMARK VINA RESULT:    -5.945      3.533      4.973
REMARK INTER + INTRA:          -8.651
REMARK INTER:                  -8.092
REMARK INTRA:                  -0.559
REMARK UNBOUND:                -0.621
REMARK  Name = 
REMARK  7 active torsions:
REMARK  status: ('A' for Active; 'I' for Inactive)
REMARK    1  A    between atoms: C_1  and  C_2
REMARK    2  A    between atoms: C_2  and  N_3
REMARK    3  A    between atoms: C_2  and  C_21
REMARK    4  A    between atoms: C_4  and  C_6
REMARK    5  A    between atoms: C_9  and  C_10
REMARK    6  A    between atoms: C_10  and  N_11
REMARK    7  A    between atoms: C_12  and  C_14
REMARK                            x       y       z     vdW  Elec       q    Type
REMARK                         _______ _______ _______ _____ _____    ______ ____
ROOT
ATOM      1  N   UNL     1      47.326   5.138  16.208  0.00  0.00    +0.000 N 
ATOM      2  C   UNL     1      47.288   4.601  17.498  0.00  0.00    +0.000 C 
ATOM      3  O   UNL     1      46.816   3.488  17.736  0.00  0.00    +0.000 OA
ATOM      4  H   UNL     1      47.709   6.055  16.013  0.00  0.00    +0.000 HD
ENDROOT
BRANCH   2   5
ATOM      5  C   UNL     1      47.855   5.450  18.651  0.00  0.00    +0.000 C 
ATOM      6  C   UNL     1      49.150   4.849  19.152  0.00  0.00    +0.000 C 
ATOM      7  C   UNL     1      50.237   4.933  18.106  0.00  0.00    +0.000 C 
ATOM      8  C   UNL     1      50.497   6.360  17.664  0.00  0.00    +0.000 C 
ATOM      9  C   UNL     1      49.209   6.996  17.174  0.00  0.00    +0.000 C 
ATOM     10  C   UNL     1      48.107   6.898  18.212  0.00  0.00    +0.000 C 
BRANCH   8  11
ATOM     11  C   UNL     1      51.554   6.374  16.565  0.00  0.00    +0.000 C 
BRANCH  11  12
ATOM     12  N   UNL     1      51.079   7.029  15.334  0.00  0.00    +0.000 N 
ATOM     13  C   UNL     1      51.707   8.190  14.815  0.00  0.00    +0.000 C 
ATOM     14  O   UNL     1      52.677   8.678  15.395  0.00  0.00    +0.000 OA
ATOM     15  H   UNL     1      50.289   6.593  14.869  0.00  0.00    +0.000 HD
BRANCH  13  16
ATOM     16  C   UNL     1      51.131   8.789  13.592  0.00  0.00    +0.000 A 
ATOM     17  C   UNL     1      50.931   8.138  12.396  0.00  0.00    +0.000 A 
ATOM     18  C   UNL     1      50.437   8.953  11.364  0.00  0.00    +0.000 A 
ATOM     19  C   UNL     1      50.233  10.241  11.779  0.00  0.00    +0.000 A 
ATOM     20  S   UNL     1      50.624  10.444  13.439  0.00  0.00    +0.000 S 
ENDBRANCH  13  16
ENDBRANCH  11  12
ENDBRANCH   8  11
ENDBRANCH   2   5
BRANCH   1  22
ATOM     21  C   UNL     1      47.698   3.192  14.786  0.00  0.00    +0.000 C 
ATOM     22  C   UNL     1      46.792   4.376  15.061  0.00  0.00    +0.000 C 
BRANCH  22  23
ATOM     23  C   UNL     1      46.670   5.221  13.802  0.00  0.00    +0.000 A 
ATOM     24  C   UNL     1      47.427   6.387  13.651  0.00  0.00    +0.000 A 
ATOM     25  S   UNL     1      47.219   7.097  12.109  0.00  0.00    +0.000 S 
ATOM     26  C   UNL     1      46.133   5.898  11.570  0.00  0.00    +0.000 A 
ATOM     27  N   UNL     1      45.553   5.844  10.328  0.00  0.00    +0.000 NA
ATOM     28  C   UNL     1      44.803   4.865  10.229  0.00  0.00    +0.000 A 
ATOM     29  N   UNL     1      44.050   3.909  10.106  0.00  0.00    +0.000 N 
ATOM     30  C   UNL     1      44.782   3.796  11.934  0.00  0.00    +0.000 A 
ATOM     31  O   UNL     1      44.732   3.100  12.891  0.00  0.00    +0.000 OA
ATOM     32  C   UNL     1      45.869   4.955  12.491  0.00  0.00    +0.000 A 
ATOM     33  H   UNL     1      43.904   4.408   8.952  0.00  0.00    +0.000 HD
ENDBRANCH  22  23
ENDBRANCH   1  22
TORSDOF 6
ENDMDL
