MODEL 1
REMARK VINA RESULT:    -7.702      0.000      0.000
REMARK INTER + INTRA:         -10.399
REMARK INTER:                  -9.728
REMARK INTRA:                  -0.672
REMARK UNBOUND:                -0.672
REMARK  Name = 
REMARK  8 active torsions:
REMARK  status: ('A' for Active; 'I' for Inactive)
REMARK    1  A    between atoms: C_1  and  C_2
REMARK    2  A    between atoms: C_2  and  C_3
REMARK    3  A    between atoms: C_2  and  C_4
REMARK    4  A    between atoms: C_2  and  C_5
REMARK    5  A    between atoms: N_7  and  C_8
REMARK    6  A    between atoms: C_8  and  C_9
REMARK    7  A    between atoms: C_12  and  C_13
REMARK    8  A    between atoms: C_13  and  N_14
REMARK                            x       y       z     vdW  Elec       q    Type
REMARK                         _______ _______ _______ _____ _____    ______ ____
ROOT
ATOM      1  C   UNL     1      46.128   7.253  12.236  0.00  0.00    +0.000 A 
ATOM      2  C   UNL     1      45.146   6.987  11.276  0.00  0.00    +0.000 A 
ATOM      3  N   UNL     1      44.950   5.632  11.193  0.00  0.00    +0.000 N 
ATOM      4  C   UNL     1      45.648   5.009  12.203  0.00  0.00    +0.000 A 
ATOM      5  C   UNL     1      45.661   3.656  12.602  0.00  0.00    +0.000 A 
ATOM      6  C   UNL     1      46.481   3.281  13.664  0.00  0.00    +0.000 A 
ATOM      7  C   UNL     1      47.284   4.214  14.300  0.00  0.00    +0.000 A 
ATOM      8  C   UNL     1      47.271   5.554  13.897  0.00  0.00    +0.000 A 
ATOM      9  C   UNL     1      46.428   5.983  12.843  0.00  0.00    +0.000 A 
ENDROOT
BRANCH   1  11
ATOM     10  C   UNL     1      45.549   9.680  12.100  0.00  0.00    +0.000 C 
ATOM     11  C   UNL     1      46.630   8.667  12.531  0.00  0.00    +0.000 C 
ATOM     12  C   UNL     1      47.927   8.953  11.734  0.00  0.00    +0.000 C 
ATOM     13  C   UNL     1      46.954   8.922  14.012  0.00  0.00    +0.000 C 
ENDBRANCH   1  11
BRANCH   3  14
ATOM     14  C   UNL     1      44.043   4.969  10.250  0.00  0.00    +0.000 C 
BRANCH  14  15
ATOM     15  C   UNL     1      44.752   4.001   9.331  0.00  0.00    +0.000 A 
ATOM     16  C   UNL     1      44.592   2.615   9.458  0.00  0.00    +0.000 A 
ATOM     17  C   UNL     1      45.372   1.728   8.705  0.00  0.00    +0.000 A 
ATOM     18  C   UNL     1      46.303   2.205   7.768  0.00  0.00    +0.000 A 
ATOM     19  C   UNL     1      46.409   3.590   7.593  0.00  0.00    +0.000 A 
ATOM     20  C   UNL     1      45.641   4.475   8.356  0.00  0.00    +0.000 A 
BRANCH  18  21
ATOM     21  C   UNL     1      47.222   1.223   7.077  0.00  0.00    +0.000 C 
BRANCH  21  22
ATOM     22  N   UNL     1      48.313   1.850   6.337  0.00  0.00    +0.000 NA
ATOM     23  H   UNL     1      48.840   2.443   6.973  0.00  0.00    +0.000 HD
ATOM     24  H   UNL     1      47.918   2.468   5.629  0.00  0.00    +0.000 HD
ENDBRANCH  21  22
ENDBRANCH  18  21
ENDBRANCH  14  15
ENDBRANCH   3  14
TORSDOF 5
ENDMDL
MODEL 2
REMARK VINA RESULT:    -6.867      1.194      3.253
REMARK INTER + INTRA:          -9.345
REMARK INTER:                  -8.814
REMARK INTRA:                  -0.531
REMARK UNBOUND:                -0.672
REMARK  Name = 
REMARK  8 active torsions:
REMARK  status: ('A' for Active; 'I' for Inactive)
REMARK    1  A    between atoms: C_1  and  C_2
REMARK    2  A    between atoms: C_2  and  C_3
REMARK    3  A    between atoms: C_2  and  C_4
REMARK    4  A    between atoms: C_2  and  C_5
REMARK    5  A    between atoms: N_7  and  C_8
REMARK    6  A    between atoms: C_8  and  C_9
REMARK    7  A    between atoms: C_12  and  C_13
REMARK    8  A    between atoms: C_13  and  N_14
REMARK                            x       y       z     vdW  Elec       q    Type
REMARK                         _______ _______ _______ _____ _____    ______ ____
ROOT
ATOM      1  C   UNL     1      46.553   6.949  12.656  0.00  0.00    +0.000 A 
ATOM      2  C   UNL     1      46.122   5.754  12.070  0.00  0.00    +0.000 A 
ATOM      3  N   UNL     1      44.932   5.971  11.424  0.00  0.00    +0.000 N 
ATOM      4  C   UNL     1      44.659   7.320  11.414  0.00  0.00    +0.000 A 
ATOM      5  C   UNL     1      43.628   8.036  10.771  0.00  0.00    +0.000 A 
ATOM      6  C   UNL     1      43.570   9.418  10.940  0.00  0.00    +0.000 A 
ATOM      7  C   UNL     1      44.492  10.071  11.742  0.00  0.00    +0.000 A 
ATOM      8  C   UNL     1      45.509   9.355  12.382  0.00  0.00    +0.000 A 
ATOM      9  C   UNL     1      45.623   7.953  12.211  0.00  0.00    +0.000 A 
ENDROOT
BRANCH   1  11
ATOM     10  C   UNL     1      49.051   6.999  12.577  0.00  0.00    +0.000 C 
ATOM     11  C   UNL     1      47.820   7.039  13.507  0.00  0.00    +0.000 C 
ATOM     12  C   UNL     1      47.895   5.840  14.486  0.00  0.00    +0.000 C 
ATOM     13  C   UNL     1      47.914   8.315  14.360  0.00  0.00    +0.000 C 
ENDBRANCH   1  11
BRANCH   3  14
ATOM     14  C   UNL     1      44.141   4.936  10.748  0.00  0.00    +0.000 C 
BRANCH  14  15
ATOM     15  C   UNL     1      44.948   4.131   9.756  0.00  0.00    +0.000 A 
ATOM     16  C   UNL     1      45.697   4.747   8.745  0.00  0.00    +0.000 A 
ATOM     17  C   UNL     1      46.313   3.987   7.742  0.00  0.00    +0.000 A 
ATOM     18  C   UNL     1      46.235   2.586   7.749  0.00  0.00    +0.000 A 
ATOM     19  C   UNL     1      45.546   1.970   8.802  0.00  0.00    +0.000 A 
ATOM     20  C   UNL     1      44.918   2.730   9.795  0.00  0.00    +0.000 A 
BRANCH  18  21
ATOM     21  C   UNL     1      46.792   1.810   6.577  0.00  0.00    +0.000 C 
BRANCH  21  22
ATOM     22  N   UNL     1      48.249   1.708   6.571  0.00  0.00    +0.000 NA
ATOM     23  H   UNL     1      48.575   1.748   5.608  0.00  0.00    +0.000 HD
ATOM     24  H   UNL     1      48.515   0.791   6.927  0.00  0.00    +0.000 HD
ENDBRANCH  21  22
ENDBRANCH  18  21
ENDBRANCH  14  15
ENDBRANCH   3  14
TORSDOF 5
ENDMDL
MODEL 3
REMARK VINA RESULT:    -6.085      1.372      2.469
REMARK INTER + INTRA:          -8.357
REMARK INTER:                  -7.857
REMARK INTRA:                  -0.500
REMARK UNBOUND:                -0.672
REMARK  Name = 
REMARK  8 active torsions:
REMARK  status: ('A' for Active; 'I' for Inactive)
REMARK    1  A    between atoms: C_1  and  C_2
REMARK    2  A    between atoms: C_2  and  C_3
REMARK    3  A    between atoms: C_2  and  C_4
REMARK    4  A    between atoms: C_2  and  C_5
REMARK    5  A    between atoms: N_7  and  C_8
REMARK    6  A    between atoms: C_8  and  C_9
REMARK    7  A    between atoms: C_12  and  C_13
REMARK    8  A    between atoms: C_13  and  N_14
REMARK                            x       y       z     vdW  Elec       q    Type
REMARK                         _______ _______ _______ _____ _____    ______ ____
ROOT
ATOM      1  C   UNL     1      44.542   8.620  11.379  0.00  0.00    +0.000 A 
ATOM      2  C   UNL     1      43.698   7.589  10.956  0.00  0.00    +0.000 A 
ATOM      3  N   UNL     1      44.256   6.381  11.294  0.00  0.00    +0.000 N 
ATOM      4  C   UNL     1      45.357   6.596  12.090  0.00  0.00    +0.000 A 
ATOM      5  C   UNL     1      46.176   5.678  12.779  0.00  0.00    +0.000 A 
ATOM      6  C   UNL     1      47.254   6.166  13.515  0.00  0.00    +0.000 A 
ATOM      7  C   UNL     1      47.528   7.523  13.550  0.00  0.00    +0.000 A 
ATOM      8  C   UNL     1      46.715   8.430  12.860  0.00  0.00    +0.000 A 
ATOM      9  C   UNL     1      45.591   7.978  12.127  0.00  0.00    +0.000 A 
ENDROOT
BRANCH   1  11
ATOM     10  C   UNL     1      42.881  10.455  11.729  0.00  0.00    +0.000 C 
ATOM     11  C   UNL     1      44.244  10.095  11.102  0.00  0.00    +0.000 C 
ATOM     12  C   UNL     1      44.174  10.350   9.576  0.00  0.00    +0.000 C 
ATOM     13  C   UNL     1      45.295  11.064  11.667  0.00  0.00    +0.000 C 
ENDBRANCH   1  11
BRANCH   3  14
ATOM     14  C   UNL     1      43.691   5.070  10.955  0.00  0.00    +0.000 C 
BRANCH  14  15
ATOM     15  C   UNL     1      44.573   4.271  10.025  0.00  0.00    +0.000 A 
ATOM     16  C   UNL     1      45.387   4.892   9.068  0.00  0.00    +0.000 A 
ATOM     17  C   UNL     1      46.078   4.137   8.112  0.00  0.00    +0.000 A 
ATOM     18  C   UNL     1      46.012   2.735   8.116  0.00  0.00    +0.000 A 
ATOM     19  C   UNL     1      45.255   2.114   9.118  0.00  0.00    +0.000 A 
ATOM     20  C   UNL     1      44.552   2.869  10.063  0.00  0.00    +0.000 A 
BRANCH  18  21
ATOM     21  C   UNL     1      46.657   1.963   6.987  0.00  0.00    +0.000 C 
BRANCH  21  22
ATOM     22  N   UNL     1      47.069   0.610   7.351  0.00  0.00    +0.000 NA
ATOM     23  H   UNL     1      48.077   0.536   7.246  0.00  0.00    +0.000 HD
ATOM     24  H   UNL     1      46.662  -0.047   6.687  0.00  0.00    +0.000 HD
ENDBRANCH  21  22
ENDBRANCH  18  21
ENDBRANCH  14  15
ENDBRANCH   3  14
TORSDOF 5
ENDMDL
MODEL 4
REMARK VINA RESULT:    -5.919      4.057      7.112
REMARK INTER + INTRA:          -8.147
REMARK INTER:                  -7.254
REMARK INTRA:                  -0.894
REMARK UNBOUND:                -0.672
REMARK  Name = 
REMARK  8 active torsions:
REMARK  status: ('A' for Active; 'I' for Inactive)
REMARK    1  A    between atoms: C_1  and  C_2
REMARK    2  A    between atoms: C_2  and  C_3
REMARK    3  A    between atoms: C_2  and  C_4
REMARK    4  A    between atoms: C_2  and  C_5
REMARK    5  A    between atoms: N_7  and  C_8
REMARK    6  A    between atoms: C_8  and  C_9
REMARK    7  A    between atoms: C_12  and  C_13
REMARK    8  A    between atoms: C_13  and  N_14
REMARK                            x       y       z     vdW  Elec       q    Type
REMARK                         _______ _______ _______ _____ _____    ______ ____
ROOT
ATOM      1  C   UNL     1      48.959   7.301  13.560  0.00  0.00    +0.000 A 
ATOM      2  C   UNL     1      49.257   7.030  14.899  0.00  0.00    +0.000 A 
ATOM      3  N   UNL     1      48.297   6.198  15.416  0.00  0.00    +0.000 N 
ATOM      4  C   UNL     1      47.474   5.767  14.400  0.00  0.00    +0.000 A 
ATOM      5  C   UNL     1      46.433   4.815  14.412  0.00  0.00    +0.000 A 
ATOM      6  C   UNL     1      45.737   4.573  13.231  0.00  0.00    +0.000 A 
ATOM      7  C   UNL     1      46.046   5.269  12.073  0.00  0.00    +0.000 A 
ATOM      8  C   UNL     1      47.076   6.216  12.068  0.00  0.00    +0.000 A 
ATOM      9  C   UNL     1      47.830   6.469  13.240  0.00  0.00    +0.000 A 
ENDROOT
BRANCH   1  11
ATOM     10  C   UNL     1      50.966   8.791  13.558  0.00  0.00    +0.000 C 
ATOM     11  C   UNL     1      49.801   8.250  12.705  0.00  0.00    +0.000 C 
ATOM     12  C   UNL     1      48.938   9.444  12.223  0.00  0.00    +0.000 C 
ATOM     13  C   UNL     1      50.399   7.599  11.447  0.00  0.00    +0.000 C 
ENDBRANCH   1  11
BRANCH   3  14
ATOM     14  C   UNL     1      48.236   5.748  16.811  0.00  0.00    +0.000 C 
BRANCH  14  15
ATOM     15  C   UNL     1      49.176   4.601  17.102  0.00  0.00    +0.000 A 
ATOM     16  C   UNL     1      50.501   4.820  17.502  0.00  0.00    +0.000 A 
ATOM     17  C   UNL     1      51.403   3.755  17.617  0.00  0.00    +0.000 A 
ATOM     18  C   UNL     1      50.991   2.434  17.381  0.00  0.00    +0.000 A 
ATOM     19  C   UNL     1      49.648   2.212  17.053  0.00  0.00    +0.000 A 
ATOM     20  C   UNL     1      48.752   3.277  16.922  0.00  0.00    +0.000 A 
BRANCH  18  21
ATOM     21  C   UNL     1      52.024   1.329  17.380  0.00  0.00    +0.000 C 
BRANCH  21  22
ATOM     22  N   UNL     1      51.632   0.148  18.145  0.00  0.00    +0.000 NA
ATOM     23  H   UNL     1      50.933   0.421  18.831  0.00  0.00    +0.000 HD
ATOM     24  H   UNL     1      52.439  -0.184  18.672  0.00  0.00    +0.000 HD
ENDBRANCH  21  22
ENDBRANCH  18  21
ENDBRANCH  14  15
ENDBRANCH   3  14
TORSDOF 5
ENDMDL
MODEL 5
REMARK VINA RESULT:    -5.895      2.201      6.321
REMARK INTER + INTRA:          -8.117
REMARK INTER:                  -7.366
REMARK INTRA:                  -0.751
REMARK UNBOUND:                -0.672
REMARK  Name = 
REMARK  8 active torsions:
REMARK  status: ('A' for Active; 'I' for Inactive)
REMARK    1  A    between atoms: C_1  and  C_2
REMARK    2  A    between atoms: C_2  and  C_3
REMARK    3  A    between atoms: C_2  and  C_4
REMARK    4  A    between atoms: C_2  and  C_5
REMARK    5  A    between atoms: N_7  and  C_8
REMARK    6  A    between atoms: C_8  and  C_9
REMARK    7  A    between atoms: C_12  and  C_13
REMARK    8  A    between atoms: C_13  and  N_14
REMARK                            x       y       z     vdW  Elec       q    Type
REMARK                         _______ _______ _______ _____ _____    ______ ____
ROOT
ATOM      1  C   UNL     1      45.301   4.267   9.433  0.00  0.00    +0.000 A 
ATOM      2  C   UNL     1      45.814   5.562   9.559  0.00  0.00    +0.000 A 
ATOM      3  N   UNL     1      45.335   6.128  10.713  0.00  0.00    +0.000 N 
ATOM      4  C   UNL     1      44.663   5.173  11.442  0.00  0.00    +0.000 A 
ATOM      5  C   UNL     1      44.109   5.239  12.738  0.00  0.00    +0.000 A 
ATOM      6  C   UNL     1      43.458   4.116  13.243  0.00  0.00    +0.000 A 
ATOM      7  C   UNL     1      43.339   2.966  12.480  0.00  0.00    +0.000 A 
ATOM      8  C   UNL     1      43.887   2.907  11.194  0.00  0.00    +0.000 A 
ATOM      9  C   UNL     1      44.584   4.016  10.655  0.00  0.00    +0.000 A 
ENDROOT
BRANCH   1  11
ATOM     10  C   UNL     1      46.757   3.997   7.419  0.00  0.00    +0.000 C 
ATOM     11  C   UNL     1      45.591   3.381   8.221  0.00  0.00    +0.000 C 
ATOM     12  C   UNL     1      44.344   3.299   7.305  0.00  0.00    +0.000 C 
ATOM     13  C   UNL     1      45.975   1.935   8.578  0.00  0.00    +0.000 C 
ENDBRANCH   1  11
BRANCH   3  14
ATOM     14  C   UNL     1      45.602   7.503  11.150  0.00  0.00    +0.000 C 
BRANCH  14  15
ATOM     15  C   UNL     1      46.773   7.602  12.100  0.00  0.00    +0.000 A 
ATOM     16  C   UNL     1      47.964   6.900  11.874  0.00  0.00    +0.000 A 
ATOM     17  C   UNL     1      48.980   6.879  12.839  0.00  0.00    +0.000 A 
ATOM     18  C   UNL     1      48.851   7.599  14.037  0.00  0.00    +0.000 A 
ATOM     19  C   UNL     1      47.689   8.358  14.227  0.00  0.00    +0.000 A 
ATOM     20  C   UNL     1      46.669   8.366  13.271  0.00  0.00    +0.000 A 
BRANCH  18  21
ATOM     21  C   UNL     1      49.905   7.440  15.110  0.00  0.00    +0.000 C 
BRANCH  21  22
ATOM     22  N   UNL     1      49.747   6.238  15.924  0.00  0.00    +0.000 NA
ATOM     23  H   UNL     1      49.443   6.513  16.855  0.00  0.00    +0.000 HD
ATOM     24  H   UNL     1      50.658   5.796  16.038  0.00  0.00    +0.000 HD
ENDBRANCH  21  22
ENDBRANCH  18  21
ENDBRANCH  14  15
ENDBRANCH   3  14
TORSDOF 5
ENDMDL
MODEL 6
REMARK VINA RESULT:    -5.791      4.042      7.367
REMARK INTER + INTRA:          -7.986
REMARK INTER:                  -7.551
REMARK INTRA:                  -0.434
REMARK UNBOUND:                -0.672
REMARK  Name = 
REMARK  8 active torsions:
REMARK  status: ('A' for Active; 'I' for Inactive)
REMARK    1  A    between atoms: C_1  and  C_2
REMARK    2  A    between atoms: C_2  and  C_3
REMARK    3  A    between atoms: C_2  and  C_4
REMARK    4  A    between atoms: C_2  and  C_5
REMARK    5  A    between atoms: N_7  and  C_8
REMARK    6  A    between atoms: C_8  and  C_9
REMARK    7  A    between atoms: C_12  and  C_13
REMARK    8  A    between atoms: C_13  and  N_14
REMARK                            x       y       z     vdW  Elec       q    Type
REMARK                         _______ _______ _______ _____ _____    ______ ____
ROOT
ATOM      1  C   UNL     1      46.453   5.207  13.453  0.00  0.00    +0.000 A 
ATOM      2  C   UNL     1      46.437   4.770  14.781  0.00  0.00    +0.000 A 
ATOM      3  N   UNL     1      47.544   5.256  15.430  0.00  0.00    +0.000 N 
ATOM      4  C   UNL     1      48.193   6.152  14.612  0.00  0.00    +0.000 A 
ATOM      5  C   UNL     1      49.295   6.993  14.875  0.00  0.00    +0.000 A 
ATOM      6  C   UNL     1      49.774   7.805  13.850  0.00  0.00    +0.000 A 
ATOM      7  C   UNL     1      49.195   7.770  12.592  0.00  0.00    +0.000 A 
ATOM      8  C   UNL     1      48.106   6.930  12.334  0.00  0.00    +0.000 A 
ATOM      9  C   UNL     1      47.568   6.112  13.357  0.00  0.00    +0.000 A 
ENDROOT
BRANCH   1  11
ATOM     10  C   UNL     1      45.695   5.472  11.085  0.00  0.00    +0.000 C 
ATOM     11  C   UNL     1      45.389   4.791  12.435  0.00  0.00    +0.000 C 
ATOM     12  C   UNL     1      43.985   5.241  12.914  0.00  0.00    +0.000 C 
ATOM     13  C   UNL     1      45.311   3.275  12.194  0.00  0.00    +0.000 C 
ENDBRANCH   1  11
BRANCH   3  14
ATOM     14  C   UNL     1      47.904   4.954  16.820  0.00  0.00    +0.000 C 
BRANCH  14  15
ATOM     15  C   UNL     1      49.089   4.025  16.934  0.00  0.00    +0.000 A 
ATOM     16  C   UNL     1      48.982   2.658  16.647  0.00  0.00    +0.000 A 
ATOM     17  C   UNL     1      50.045   1.783  16.906  0.00  0.00    +0.000 A 
ATOM     18  C   UNL     1      51.263   2.261  17.415  0.00  0.00    +0.000 A 
ATOM     19  C   UNL     1      51.391   3.639  17.632  0.00  0.00    +0.000 A 
ATOM     20  C   UNL     1      50.324   4.509  17.389  0.00  0.00    +0.000 A 
BRANCH  18  21
ATOM     21  C   UNL     1      52.335   1.270  17.811  0.00  0.00    +0.000 C 
BRANCH  21  22
ATOM     22  N   UNL     1      51.818  -0.027  18.239  0.00  0.00    +0.000 NA
ATOM     23  H   UNL     1      50.992   0.124  18.812  0.00  0.00    +0.000 HD
ATOM     24  H   UNL     1      52.509  -0.473  18.841  0.00  0.00    +0.000 HD
ENDBRANCH  21  22
ENDBRANCH  18  21
ENDBRANCH  14  15
ENDBRANCH   3  14
TORSDOF 5
ENDMDL
MODEL 7
REMARK VINA RESULT:    -5.768      1.742      3.748
REMARK INTER + INTRA:          -7.957
REMARK INTER:                  -7.603
REMARK INTRA:                  -0.354
REMARK UNBOUND:                -0.672
REMARK  Name = 
REMARK  8 active torsions:
REMARK  status: ('A' for Active; 'I' for Inactive)
REMARK    1  A    between atoms: C_1  and  C_2
REMARK    2  A    between atoms: C_2  and  C_3
REMARK    3  A    between atoms: C_2  and  C_4
REMARK    4  A    between atoms: C_2  and  C_5
REMARK    5  A    between atoms: N_7  and  C_8
REMARK    6  A    between atoms: C_8  and  C_9
REMARK    7  A    between atoms: C_12  and  C_13
REMARK    8  A    between atoms: C_13  and  N_14
REMARK                            x       y       z     vdW  Elec       q    Type
REMARK                         _______ _______ _______ _____ _____    ______ ____
ROOT
ATOM      1  C   UNL     1      47.298   5.088  14.875  0.00  0.00    +0.000 A 
ATOM      2  C   UNL     1      46.103   4.709  14.255  0.00  0.00    +0.000 A 
ATOM      3  N   UNL     1      45.882   5.517  13.168  0.00  0.00    +0.000 N 
ATOM      4  C   UNL     1      46.993   6.300  12.951  0.00  0.00    +0.000 A 
ATOM      5  C   UNL     1      47.290   7.187  11.895  0.00  0.00    +0.000 A 
ATOM      6  C   UNL     1      48.499   7.878  11.924  0.00  0.00    +0.000 A 
ATOM      7  C   UNL     1      49.381   7.715  12.980  0.00  0.00    +0.000 A 
ATOM      8  C   UNL     1      49.079   6.838  14.028  0.00  0.00    +0.000 A 
ATOM      9  C   UNL     1      47.876   6.091  14.020  0.00  0.00    +0.000 A 
ENDROOT
BRANCH   1  11
ATOM     10  C   UNL     1      49.019   5.222  16.683  0.00  0.00    +0.000 C 
ATOM     11  C   UNL     1      47.807   4.426  16.157  0.00  0.00    +0.000 C 
ATOM     12  C   UNL     1      48.252   2.971  15.869  0.00  0.00    +0.000 C 
ATOM     13  C   UNL     1      46.762   4.356  17.284  0.00  0.00    +0.000 C 
ENDBRANCH   1  11
BRANCH   3  14
ATOM     14  C   UNL     1      44.695   5.464  12.308  0.00  0.00    +0.000 C 
BRANCH  14  15
ATOM     15  C   UNL     1      44.908   4.640  11.060  0.00  0.00    +0.000 A 
ATOM     16  C   UNL     1      44.720   3.252  11.054  0.00  0.00    +0.000 A 
ATOM     17  C   UNL     1      45.070   2.483   9.936  0.00  0.00    +0.000 A 
ATOM     18  C   UNL     1      45.574   3.089   8.774  0.00  0.00    +0.000 A 
ATOM     19  C   UNL     1      45.693   4.485   8.758  0.00  0.00    +0.000 A 
ATOM     20  C   UNL     1      45.359   5.250   9.880  0.00  0.00    +0.000 A 
BRANCH  18  21
ATOM     21  C   UNL     1      46.069   2.216   7.644  0.00  0.00    +0.000 C 
BRANCH  21  22
ATOM     22  N   UNL     1      46.429   0.861   8.052  0.00  0.00    +0.000 NA
ATOM     23  H   UNL     1      45.817   0.203   7.578  0.00  0.00    +0.000 HD
ATOM     24  H   UNL     1      46.244   0.758   9.049  0.00  0.00    +0.000 HD
ENDBRANCH  21  22
ENDBRANCH  18  21
ENDBRANCH  14  15
ENDBRANCH   3  14
TORSDOF 5
ENDMDL
MODEL 8
REMARK VINA RESULT:    -5.478      3.062      7.490
REMARK INTER + INTRA:          -7.590
REMARK INTER:                  -6.810
REMARK INTRA:                  -0.780
REMARK UNBOUND:                -0.672
REMARK  Name = 
REMARK  8 active torsions:
REMARK  status: ('A' for Active; 'I' for Inactive)
REMARK    1  A    between atoms: C_1  and  C_2
REMARK    2  A    between atoms: C_2  and  C_3
REMARK    3  A    between atoms: C_2  and  C_4
REMARK    4  A    between atoms: C_2  and  C_5
REMARK    5  A    between atoms: N_7  and  C_8
REMARK    6  A    between atoms: C_8  and  C_9
REMARK    7  A    between atoms: C_12  and  C_13
REMARK    8  A    between atoms: C_13  and  N_14
REMARK                            x       y       z     vdW  Elec       q    Type
REMARK                         _______ _______ _______ _____ _____    ______ ____
ROOT
ATOM      1  C   UNL     1      44.867   5.410  12.155  0.00  0.00    +0.000 A 
ATOM      2  C   UNL     1      45.856   4.737  12.880  0.00  0.00    +0.000 A 
ATOM      3  N   UNL     1      46.858   5.616  13.203  0.00  0.00    +0.000 N 
ATOM      4  C   UNL     1      46.468   6.892  12.867  0.00  0.00    +0.000 A 
ATOM      5  C   UNL     1      47.096   8.131  13.114  0.00  0.00    +0.000 A 
ATOM      6  C   UNL     1      46.487   9.293  12.645  0.00  0.00    +0.000 A 
ATOM      7  C   UNL     1      45.301   9.230  11.931  0.00  0.00    +0.000 A 
ATOM      8  C   UNL     1      44.685   7.998  11.684  0.00  0.00    +0.000 A 
ATOM      9  C   UNL     1      45.254   6.796  12.171  0.00  0.00    +0.000 A 
ENDROOT
BRANCH   1  11
ATOM     10  C   UNL     1      43.506   3.317  12.251  0.00  0.00    +0.000 C 
ATOM     11  C   UNL     1      43.636   4.703  11.587  0.00  0.00    +0.000 C 
ATOM     12  C   UNL     1      43.787   4.511  10.057  0.00  0.00    +0.000 C 
ATOM     13  C   UNL     1      42.317   5.461  11.812  0.00  0.00    +0.000 C 
ENDBRANCH   1  11
BRANCH   3  14
ATOM     14  C   UNL     1      48.096   5.260  13.905  0.00  0.00    +0.000 C 
BRANCH  14  15
ATOM     15  C   UNL     1      47.978   5.381  15.407  0.00  0.00    +0.000 A 
ATOM     16  C   UNL     1      48.593   6.426  16.110  0.00  0.00    +0.000 A 
ATOM     17  C   UNL     1      48.606   6.439  17.511  0.00  0.00    +0.000 A 
ATOM     18  C   UNL     1      47.963   5.432  18.247  0.00  0.00    +0.000 A 
ATOM     19  C   UNL     1      47.287   4.429  17.540  0.00  0.00    +0.000 A 
ATOM     20  C   UNL     1      47.288   4.407  16.142  0.00  0.00    +0.000 A 
BRANCH  18  21
ATOM     21  C   UNL     1      48.117   5.406  19.751  0.00  0.00    +0.000 C 
BRANCH  21  22
ATOM     22  N   UNL     1      46.870   5.617  20.481  0.00  0.00    +0.000 NA
ATOM     23  H   UNL     1      46.191   6.039  19.852  0.00  0.00    +0.000 HD
ATOM     24  H   UNL     1      47.034   6.296  21.223  0.00  0.00    +0.000 HD
ENDBRANCH  21  22
ENDBRANCH  18  21
ENDBRANCH  14  15
ENDBRANCH   3  14
TORSDOF 5
ENDMDL
MODEL 9
REMARK VINA RESULT:    -5.294      3.949      6.762
REMARK INTER + INTRA:          -7.358
REMARK INTER:                  -6.578
REMARK INTRA:                  -0.780
REMARK UNBOUND:                -0.672
REMARK  Name = 
REMARK  8 active torsions:
REMARK  status: ('A' for Active; 'I' for Inactive)
REMARK    1  A    between atoms: C_1  and  C_2
REMARK    2  A    between atoms: C_2  and  C_3
REMARK    3  A    between atoms: C_2  and  C_4
REMARK    4  A    between atoms: C_2  and  C_5
REMARK    5  A    between atoms: N_7  and  C_8
REMARK    6  A    between atoms: C_8  and  C_9
REMARK    7  A    between atoms: C_12  and  C_13
REMARK    8  A    between atoms: C_13  and  N_14
REMARK                            x       y       z     vdW  Elec       q    Type
REMARK                         _______ _______ _______ _____ _____    ______ ____
ROOT
ATOM      1  C   UNL     1      48.652   6.472  17.497  0.00  0.00    +0.000 A 
ATOM      2  C   UNL     1      48.655   5.879  16.230  0.00  0.00    +0.000 A 
ATOM      3  N   UNL     1      48.564   6.858  15.273  0.00  0.00    +0.000 N 
ATOM      4  C   UNL     1      48.684   8.091  15.872  0.00  0.00    +0.000 A 
ATOM      5  C   UNL     1      48.777   9.377  15.299  0.00  0.00    +0.000 A 
ATOM      6  C   UNL     1      48.877  10.479  16.145  0.00  0.00    +0.000 A 
ATOM      7  C   UNL     1      48.864  10.316  17.521  0.00  0.00    +0.000 A 
ATOM      8  C   UNL     1      48.766   9.039  18.084  0.00  0.00    +0.000 A 
ATOM      9  C   UNL     1      48.695   7.890  17.260  0.00  0.00    +0.000 A 
ENDROOT
BRANCH   1  11
ATOM     10  C   UNL     1      48.634   4.153  18.432  0.00  0.00    +0.000 C 
ATOM     11  C   UNL     1      48.679   5.653  18.789  0.00  0.00    +0.000 C 
ATOM     12  C   UNL     1      47.448   5.994  19.666  0.00  0.00    +0.000 C 
ATOM     13  C   UNL     1      49.924   5.895  19.659  0.00  0.00    +0.000 C 
ENDBRANCH   1  11
BRANCH   3  14
ATOM     14  C   UNL     1      48.473   6.616  13.829  0.00  0.00    +0.000 C 
BRANCH  14  15
ATOM     15  C   UNL     1      47.084   6.229  13.382  0.00  0.00    +0.000 A 
ATOM     16  C   UNL     1      46.196   7.169  12.841  0.00  0.00    +0.000 A 
ATOM     17  C   UNL     1      44.863   6.830  12.576  0.00  0.00    +0.000 A 
ATOM     18  C   UNL     1      44.393   5.526  12.801  0.00  0.00    +0.000 A 
ATOM     19  C   UNL     1      45.302   4.571  13.273  0.00  0.00    +0.000 A 
ATOM     20  C   UNL     1      46.628   4.914  13.552  0.00  0.00    +0.000 A 
BRANCH  18  21
ATOM     21  C   UNL     1      42.918   5.236  12.635  0.00  0.00    +0.000 C 
BRANCH  21  22
ATOM     22  N   UNL     1      42.216   6.191  11.782  0.00  0.00    +0.000 NA
ATOM     23  H   UNL     1      42.593   7.120  11.952  0.00  0.00    +0.000 HD
ATOM     24  H   UNL     1      41.237   6.223  12.061  0.00  0.00    +0.000 HD
ENDBRANCH  21  22
ENDBRANCH  18  21
ENDBRANCH  14  15
ENDBRANCH   3  14
TORSDOF 5
ENDMDL
