MODEL 1
REMARK VINA RESULT:    -7.861      0.000      0.000
REMARK INTER + INTRA:         -10.250
REMARK INTER:                  -9.700
REMARK INTRA:                  -0.550
REMARK UNBOUND:                -0.550
REMARK  Name = 
REMARK  4 active torsions:
REMARK  status: ('A' for Active; 'I' for Inactive)
REMARK    1  A    between atoms: C_2  and  C_4
REMARK    2  A    between atoms: C_7  and  N_8
REMARK    3  A    between atoms: N_8  and  C_9
REMARK    4  A    between atoms: C_9  and  C_10
REMARK                            x       y       z     vdW  Elec       q    Type
REMARK                         _______ _______ _______ _____ _____    ______ ____
ROOT
ATOM      1  C   UNL     1      46.206   2.043   7.965  0.00  0.00    +0.000 A 
ATOM      2  C   UNL     1      46.349   3.372   7.593  0.00  0.00    +0.000 A 
ATOM      3  C   UNL     1      45.527   4.316   8.205  0.00  0.00    +0.000 A 
ATOM      4  C   UNL     1      44.571   3.925   9.146  0.00  0.00    +0.000 A 
ATOM      5  C   UNL     1      44.521   2.563   9.450  0.00  0.00    +0.000 A 
ATOM      6  N   UNL     1      45.307   1.609   8.891  0.00  0.00    +0.000 NA
ENDROOT
BRANCH   1   8
ATOM      7  N   UNL     1      46.778  -0.292   7.664  0.00  0.00    +0.000 N 
ATOM      8  C   UNL     1      47.078   1.002   7.334  0.00  0.00    +0.000 C 
ATOM      9  O   UNL     1      47.997   1.278   6.574  0.00  0.00    +0.000 OA
ATOM     10  H   UNL     1      47.327  -1.045   7.276  0.00  0.00    +0.000 HD
ATOM     11  H   UNL     1      46.005  -0.482   8.291  0.00  0.00    +0.000 HD
ENDBRANCH   1   8
BRANCH   4  12
ATOM     12  N   UNL     1      43.769   4.915   9.713  0.00  0.00    +0.000 N 
ATOM     13  H   UNL     1      43.943   5.825   9.287  0.00  0.00    +0.000 HD
BRANCH  12  14
ATOM     14  C   UNL     1      43.625   5.002  11.159  0.00  0.00    +0.000 C 
BRANCH  14  15
ATOM     15  C   UNL     1      44.953   5.403  11.765  0.00  0.00    +0.000 A 
ATOM     16  C   UNL     1      45.489   4.670  12.842  0.00  0.00    +0.000 A 
ATOM     17  C   UNL     1      46.726   5.005  13.388  0.00  0.00    +0.000 A 
ATOM     18  C   UNL     1      47.437   6.072  12.854  0.00  0.00    +0.000 A 
ATOM     19  F   UNL     1      48.629   6.393  13.374  0.00  0.00    +0.000 F 
ATOM     20  C   UNL     1      46.933   6.809  11.790  0.00  0.00    +0.000 A 
ATOM     21  C   UNL     1      45.691   6.476  11.243  0.00  0.00    +0.000 A 
ENDBRANCH  14  15
ENDBRANCH  12  14
ENDBRANCH   4  12
TORSDOF 4
ENDMDL
MODEL 2
REMARK VINA RESULT:    -7.710      3.730      6.180
REMARK INTER + INTRA:         -10.063
REMARK INTER:                  -9.600
REMARK INTRA:                  -0.463
REMARK UNBOUND:                -0.550
REMARK  Name = 
REMARK  4 active torsions:
REMARK  status: ('A' for Active; 'I' for Inactive)
REMARK    1  A    between atoms: C_2  and  C_4
REMARK    2  A    between atoms: C_7  and  N_8
REMARK    3  A    between atoms: N_8  and  C_9
REMARK    4  A    between atoms: C_9  and  C_10
REMARK                            x       y       z     vdW  Elec       q    Type
REMARK                         _______ _______ _______ _____ _____    ______ ____
ROOT
ATOM      1  C   UNL     1      46.519   4.764  13.857  0.00  0.00    +0.000 A 
ATOM      2  C   UNL     1      46.799   5.895  13.105  0.00  0.00    +0.000 A 
ATOM      3  C   UNL     1      46.180   6.026  11.864  0.00  0.00    +0.000 A 
ATOM      4  C   UNL     1      45.323   5.031  11.387  0.00  0.00    +0.000 A 
ATOM      5  C   UNL     1      45.106   3.941  12.232  0.00  0.00    +0.000 A 
ATOM      6  N   UNL     1      45.676   3.774  13.452  0.00  0.00    +0.000 NA
ENDROOT
BRANCH   1   8
ATOM      7  N   UNL     1      47.904   5.656  15.635  0.00  0.00    +0.000 N 
ATOM      8  C   UNL     1      47.161   4.592  15.200  0.00  0.00    +0.000 C 
ATOM      9  O   UNL     1      47.034   3.575  15.870  0.00  0.00    +0.000 OA
ATOM     10  H   UNL     1      48.366   5.607  16.531  0.00  0.00    +0.000 HD
ATOM     11  H   UNL     1      47.979   6.483  15.055  0.00  0.00    +0.000 HD
ENDBRANCH   1   8
BRANCH   4  12
ATOM     12  N   UNL     1      44.744   5.215  10.131  0.00  0.00    +0.000 N 
ATOM     13  H   UNL     1      44.167   6.055  10.106  0.00  0.00    +0.000 HD
BRANCH  12  14
ATOM     14  C   UNL     1      44.119   4.095   9.443  0.00  0.00    +0.000 C 
BRANCH  14  15
ATOM     15  C   UNL     1      45.165   3.375   8.619  0.00  0.00    +0.000 A 
ATOM     16  C   UNL     1      45.958   4.090   7.701  0.00  0.00    +0.000 A 
ATOM     17  C   UNL     1      46.948   3.448   6.961  0.00  0.00    +0.000 A 
ATOM     18  C   UNL     1      47.155   2.087   7.141  0.00  0.00    +0.000 A 
ATOM     19  F   UNL     1      48.109   1.467   6.434  0.00  0.00    +0.000 F 
ATOM     20  C   UNL     1      46.389   1.358   8.043  0.00  0.00    +0.000 A 
ATOM     21  C   UNL     1      45.393   2.000   8.783  0.00  0.00    +0.000 A 
ENDBRANCH  14  15
ENDBRANCH  12  14
ENDBRANCH   4  12
TORSDOF 4
ENDMDL
MODEL 3
REMARK VINA RESULT:    -7.112      3.721      6.397
REMARK INTER + INTRA:          -9.325
REMARK INTER:                  -8.897
REMARK INTRA:                  -0.428
REMARK UNBOUND:                -0.550
REMARK  Name = 
REMARK  4 active torsions:
REMARK  status: ('A' for Active; 'I' for Inactive)
REMARK    1  A    between atoms: C_2  and  C_4
REMARK    2  A    between atoms: C_7  and  N_8
REMARK    3  A    between atoms: N_8  and  C_9
REMARK    4  A    between atoms: C_9  and  C_10
REMARK                            x       y       z     vdW  Elec       q    Type
REMARK                         _______ _______ _______ _____ _____    ______ ____
ROOT
ATOM      1  C   UNL     1      46.035   6.396  12.618  0.00  0.00    +0.000 A 
ATOM      2  C   UNL     1      46.392   5.201  13.224  0.00  0.00    +0.000 A 
ATOM      3  C   UNL     1      45.989   4.013  12.618  0.00  0.00    +0.000 A 
ATOM      4  C   UNL     1      45.226   4.034  11.448  0.00  0.00    +0.000 A 
ATOM      5  C   UNL     1      44.932   5.293  10.921  0.00  0.00    +0.000 A 
ATOM      6  N   UNL     1      45.311   6.475  11.468  0.00  0.00    +0.000 NA
ENDROOT
BRANCH   1   8
ATOM      7  N   UNL     1      47.466   7.603  14.158  0.00  0.00    +0.000 N 
ATOM      8  C   UNL     1      46.457   7.693  13.237  0.00  0.00    +0.000 C 
ATOM      9  O   UNL     1      45.942   8.765  12.946  0.00  0.00    +0.000 OA
ATOM     10  H   UNL     1      47.798   8.439  14.616  0.00  0.00    +0.000 HD
ATOM     11  H   UNL     1      47.871   6.698  14.367  0.00  0.00    +0.000 HD
ENDBRANCH   1   8
BRANCH   4  12
ATOM     12  N   UNL     1      44.842   2.811  10.897  0.00  0.00    +0.000 N 
ATOM     13  H   UNL     1      45.569   2.106  11.011  0.00  0.00    +0.000 HD
BRANCH  12  14
ATOM     14  C   UNL     1      44.229   2.763   9.578  0.00  0.00    +0.000 C 
BRANCH  14  15
ATOM     15  C   UNL     1      45.310   2.561   8.537  0.00  0.00    +0.000 A 
ATOM     16  C   UNL     1      45.943   1.309   8.411  0.00  0.00    +0.000 A 
ATOM     17  C   UNL     1      46.916   1.097   7.436  0.00  0.00    +0.000 A 
ATOM     18  C   UNL     1      47.253   2.134   6.577  0.00  0.00    +0.000 A 
ATOM     19  F   UNL     1      48.184   1.931   5.635  0.00  0.00    +0.000 F 
ATOM     20  C   UNL     1      46.640   3.377   6.677  0.00  0.00    +0.000 A 
ATOM     21  C   UNL     1      45.668   3.593   7.657  0.00  0.00    +0.000 A 
ENDBRANCH  14  15
ENDBRANCH  12  14
ENDBRANCH   4  12
TORSDOF 4
ENDMDL
MODEL 4
REMARK VINA RESULT:    -6.902      3.746      6.166
REMARK INTER + INTRA:          -9.066
REMARK INTER:                  -8.570
REMARK INTRA:                  -0.496
REMARK UNBOUND:                -0.550
REMARK  Name = 
REMARK  4 active torsions:
REMARK  status: ('A' for Active; 'I' for Inactive)
REMARK    1  A    between atoms: C_2  and  C_4
REMARK    2  A    between atoms: C_7  and  N_8
REMARK    3  A    between atoms: N_8  and  C_9
REMARK    4  A    between atoms: C_9  and  C_10
REMARK                            x       y       z     vdW  Elec       q    Type
REMARK                         _______ _______ _______ _____ _____    ______ ____
ROOT
ATOM      1  C   UNL     1      47.436   6.080  13.264  0.00  0.00    +0.000 A 
ATOM      2  C   UNL     1      46.763   6.636  12.186  0.00  0.00    +0.000 A 
ATOM      3  C   UNL     1      45.772   5.875  11.569  0.00  0.00    +0.000 A 
ATOM      4  C   UNL     1      45.489   4.581  12.012  0.00  0.00    +0.000 A 
ATOM      5  C   UNL     1      46.222   4.126  13.110  0.00  0.00    +0.000 A 
ATOM      6  N   UNL     1      47.187   4.833  13.751  0.00  0.00    +0.000 NA
ENDROOT
BRANCH   1   8
ATOM      7  N   UNL     1      48.098   7.540  15.081  0.00  0.00    +0.000 N 
ATOM      8  C   UNL     1      48.502   6.872  13.957  0.00  0.00    +0.000 C 
ATOM      9  O   UNL     1      49.657   6.922  13.555  0.00  0.00    +0.000 OA
ATOM     10  H   UNL     1      48.765   8.096  15.596  0.00  0.00    +0.000 HD
ATOM     11  H   UNL     1      47.135   7.468  15.387  0.00  0.00    +0.000 HD
ENDBRANCH   1   8
BRANCH   4  12
ATOM     12  N   UNL     1      44.496   3.864  11.344  0.00  0.00    +0.000 N 
ATOM     13  H   UNL     1      44.608   2.860  11.477  0.00  0.00    +0.000 HD
BRANCH  12  14
ATOM     14  C   UNL     1      44.144   4.204   9.973  0.00  0.00    +0.000 C 
BRANCH  14  15
ATOM     15  C   UNL     1      45.102   3.509   9.030  0.00  0.00    +0.000 A 
ATOM     16  C   UNL     1      45.271   2.112   9.097  0.00  0.00    +0.000 A 
ATOM     17  C   UNL     1      46.123   1.453   8.213  0.00  0.00    +0.000 A 
ATOM     18  C   UNL     1      46.805   2.188   7.252  0.00  0.00    +0.000 A 
ATOM     19  F   UNL     1      47.621   1.556   6.398  0.00  0.00    +0.000 F 
ATOM     20  C   UNL     1      46.654   3.566   7.163  0.00  0.00    +0.000 A 
ATOM     21  C   UNL     1      45.802   4.229   8.050  0.00  0.00    +0.000 A 
ENDBRANCH  14  15
ENDBRANCH  12  14
ENDBRANCH   4  12
TORSDOF 4
ENDMDL
MODEL 5
REMARK VINA RESULT:    -5.814      4.215      5.996
REMARK INTER + INTRA:          -7.723
REMARK INTER:                  -7.322
REMARK INTRA:                  -0.401
REMARK UNBOUND:                -0.550
REMARK  Name = 
REMARK  4 active torsions:
REMARK  status: ('A' for Active; 'I' for Inactive)
REMARK    1  A    between atoms: C_2  and  C_4
REMARK    2  A    between atoms: C_7  and  N_8
REMARK    3  A    between atoms: N_8  and  C_9
REMARK    4  A    between atoms: C_9  and  C_10
REMARK                            x       y       z     vdW  Elec       q    Type
REMARK                         _______ _______ _______ _____ _____    ______ ____
ROOT
ATOM      1  C   UNL     1      45.003   4.254  11.752  0.00  0.00    +0.000 A 
ATOM      2  C   UNL     1      45.594   3.211  12.450  0.00  0.00    +0.000 A 
ATOM      3  C   UNL     1      46.363   3.525  13.568  0.00  0.00    +0.000 A 
ATOM      4  C   UNL     1      46.550   4.855  13.954  0.00  0.00    +0.000 A 
ATOM      5  C   UNL     1      45.901   5.821  13.184  0.00  0.00    +0.000 A 
ATOM      6  N   UNL     1      45.133   5.565  12.095  0.00  0.00    +0.000 NA
ENDROOT
BRANCH   1   8
ATOM      7  N   UNL     1      43.768   5.045   9.822  0.00  0.00    +0.000 N 
ATOM      8  C   UNL     1      44.162   3.954  10.549  0.00  0.00    +0.000 C 
ATOM      9  O   UNL     1      43.845   2.816  10.228  0.00  0.00    +0.000 OA
ATOM     10  H   UNL     1      43.197   4.916   9.000  0.00  0.00    +0.000 HD
ATOM     11  H   UNL     1      44.056   5.971  10.116  0.00  0.00    +0.000 HD
ENDBRANCH   1   8
BRANCH   4  12
ATOM     12  N   UNL     1      47.342   5.104  15.075  0.00  0.00    +0.000 N 
ATOM     13  H   UNL     1      48.325   5.207  14.822  0.00  0.00    +0.000 HD
BRANCH  12  14
ATOM     14  C   UNL     1      47.164   4.319  16.287  0.00  0.00    +0.000 C 
BRANCH  14  15
ATOM     15  C   UNL     1      48.516   3.832  16.764  0.00  0.00    +0.000 A 
ATOM     16  C   UNL     1      48.854   2.469  16.655  0.00  0.00    +0.000 A 
ATOM     17  C   UNL     1      50.107   2.011  17.058  0.00  0.00    +0.000 A 
ATOM     18  C   UNL     1      51.031   2.915  17.564  0.00  0.00    +0.000 A 
ATOM     19  F   UNL     1      52.237   2.479  17.947  0.00  0.00    +0.000 F 
ATOM     20  C   UNL     1      50.723   4.266  17.678  0.00  0.00    +0.000 A 
ATOM     21  C   UNL     1      49.466   4.727  17.278  0.00  0.00    +0.000 A 
ENDBRANCH  14  15
ENDBRANCH  12  14
ENDBRANCH   4  12
TORSDOF 4
ENDMDL
MODEL 6
REMARK VINA RESULT:    -5.607      4.025      6.667
REMARK INTER + INTRA:          -7.468
REMARK INTER:                  -7.225
REMARK INTRA:                  -0.243
REMARK UNBOUND:                -0.550
REMARK  Name = 
REMARK  4 active torsions:
REMARK  status: ('A' for Active; 'I' for Inactive)
REMARK    1  A    between atoms: C_2  and  C_4
REMARK    2  A    between atoms: C_7  and  N_8
REMARK    3  A    between atoms: N_8  and  C_9
REMARK    4  A    between atoms: C_9  and  C_10
REMARK                            x       y       z     vdW  Elec       q    Type
REMARK                         _______ _______ _______ _____ _____    ______ ____
ROOT
ATOM      1  C   UNL     1      46.728   8.214  12.906  0.00  0.00    +0.000 A 
ATOM      2  C   UNL     1      45.873   8.811  11.993  0.00  0.00    +0.000 A 
ATOM      3  C   UNL     1      44.904   8.016  11.384  0.00  0.00    +0.000 A 
ATOM      4  C   UNL     1      44.820   6.651  11.672  0.00  0.00    +0.000 A 
ATOM      5  C   UNL     1      45.725   6.159  12.614  0.00  0.00    +0.000 A 
ATOM      6  N   UNL     1      46.677   6.895  13.240  0.00  0.00    +0.000 NA
ENDROOT
BRANCH   1   8
ATOM      7  N   UNL     1      47.704  10.386  13.355  0.00  0.00    +0.000 N 
ATOM      8  C   UNL     1      47.777   9.039  13.586  0.00  0.00    +0.000 C 
ATOM      9  O   UNL     1      48.644   8.552  14.301  0.00  0.00    +0.000 OA
ATOM     10  H   UNL     1      48.382  11.001  13.780  0.00  0.00    +0.000 HD
ATOM     11  H   UNL     1      46.968  10.752  12.763  0.00  0.00    +0.000 HD
ENDBRANCH   1   8
BRANCH   4  12
ATOM     12  N   UNL     1      43.837   5.906  11.021  0.00  0.00    +0.000 N 
ATOM     13  H   UNL     1      42.920   6.343  11.106  0.00  0.00    +0.000 HD
BRANCH  12  14
ATOM     14  C   UNL     1      43.780   4.462  11.193  0.00  0.00    +0.000 C 
BRANCH  14  15
ATOM     15  C   UNL     1      44.500   3.797  10.039  0.00  0.00    +0.000 A 
ATOM     16  C   UNL     1      45.262   4.570   9.142  0.00  0.00    +0.000 A 
ATOM     17  C   UNL     1      45.959   3.968   8.096  0.00  0.00    +0.000 A 
ATOM     18  C   UNL     1      45.902   2.590   7.947  0.00  0.00    +0.000 A 
ATOM     19  F   UNL     1      46.575   2.008   6.945  0.00  0.00    +0.000 F 
ATOM     20  C   UNL     1      45.161   1.803   8.820  0.00  0.00    +0.000 A 
ATOM     21  C   UNL     1      44.459   2.405   9.868  0.00  0.00    +0.000 A 
ENDBRANCH  14  15
ENDBRANCH  12  14
ENDBRANCH   4  12
TORSDOF 4
ENDMDL
MODEL 7
REMARK VINA RESULT:    -5.605      4.889      7.140
REMARK INTER + INTRA:          -7.465
REMARK INTER:                  -7.120
REMARK INTRA:                  -0.346
REMARK UNBOUND:                -0.550
REMARK  Name = 
REMARK  4 active torsions:
REMARK  status: ('A' for Active; 'I' for Inactive)
REMARK    1  A    between atoms: C_2  and  C_4
REMARK    2  A    between atoms: C_7  and  N_8
REMARK    3  A    between atoms: N_8  and  C_9
REMARK    4  A    between atoms: C_9  and  C_10
REMARK                            x       y       z     vdW  Elec       q    Type
REMARK                         _______ _______ _______ _____ _____    ______ ____
ROOT
ATOM      1  C   UNL     1      47.943   4.768  16.511  0.00  0.00    +0.000 A 
ATOM      2  C   UNL     1      48.526   5.920  16.003  0.00  0.00    +0.000 A 
ATOM      3  C   UNL     1      48.169   6.322  14.717  0.00  0.00    +0.000 A 
ATOM      4  C   UNL     1      47.270   5.567  13.959  0.00  0.00    +0.000 A 
ATOM      5  C   UNL     1      46.739   4.432  14.575  0.00  0.00    +0.000 A 
ATOM      6  N   UNL     1      47.046   4.007  15.826  0.00  0.00    +0.000 NA
ENDROOT
BRANCH   1   8
ATOM      7  N   UNL     1      47.401   4.648  18.870  0.00  0.00    +0.000 N 
ATOM      8  C   UNL     1      48.297   4.310  17.893  0.00  0.00    +0.000 C 
ATOM      9  O   UNL     1      49.315   3.676  18.140  0.00  0.00    +0.000 OA
ATOM     10  H   UNL     1      47.579   4.373  19.825  0.00  0.00    +0.000 HD
ATOM     11  H   UNL     1      46.567   5.167  18.625  0.00  0.00    +0.000 HD
ENDBRANCH   1   8
BRANCH   4  12
ATOM     12  N   UNL     1      46.963   6.015  12.674  0.00  0.00    +0.000 N 
ATOM     13  H   UNL     1      47.539   6.813  12.410  0.00  0.00    +0.000 HD
BRANCH  12  14
ATOM     14  C   UNL     1      45.575   6.178  12.268  0.00  0.00    +0.000 C 
BRANCH  14  15
ATOM     15  C   UNL     1      45.245   5.146  11.210  0.00  0.00    +0.000 A 
ATOM     16  C   UNL     1      44.530   3.983  11.556  0.00  0.00    +0.000 A 
ATOM     17  C   UNL     1      44.189   3.041  10.587  0.00  0.00    +0.000 A 
ATOM     18  C   UNL     1      44.554   3.262   9.266  0.00  0.00    +0.000 A 
ATOM     19  F   UNL     1      44.223   2.361   8.332  0.00  0.00    +0.000 F 
ATOM     20  C   UNL     1      45.256   4.404   8.898  0.00  0.00    +0.000 A 
ATOM     21  C   UNL     1      45.602   5.348   9.868  0.00  0.00    +0.000 A 
ENDBRANCH  14  15
ENDBRANCH  12  14
ENDBRANCH   4  12
TORSDOF 4
ENDMDL
MODEL 8
REMARK VINA RESULT:    -5.532      3.414      4.837
REMARK INTER + INTRA:          -7.376
REMARK INTER:                  -6.982
REMARK INTRA:                  -0.393
REMARK UNBOUND:                -0.550
REMARK  Name = 
REMARK  4 active torsions:
REMARK  status: ('A' for Active; 'I' for Inactive)
REMARK    1  A    between atoms: C_2  and  C_4
REMARK    2  A    between atoms: C_7  and  N_8
REMARK    3  A    between atoms: N_8  and  C_9
REMARK    4  A    between atoms: C_9  and  C_10
REMARK                            x       y       z     vdW  Elec       q    Type
REMARK                         _______ _______ _______ _____ _____    ______ ____
ROOT
ATOM      1  C   UNL     1      45.249   4.241  10.195  0.00  0.00    +0.000 A 
ATOM      2  C   UNL     1      45.138   3.345  11.247  0.00  0.00    +0.000 A 
ATOM      3  C   UNL     1      45.451   3.795  12.528  0.00  0.00    +0.000 A 
ATOM      4  C   UNL     1      45.889   5.106  12.734  0.00  0.00    +0.000 A 
ATOM      5  C   UNL     1      45.955   5.923  11.605  0.00  0.00    +0.000 A 
ATOM      6  N   UNL     1      45.650   5.534  10.341  0.00  0.00    +0.000 NA
ENDROOT
BRANCH   1   8
ATOM      7  N   UNL     1      44.164   2.653   8.721  0.00  0.00    +0.000 N 
ATOM      8  C   UNL     1      44.914   3.795   8.805  0.00  0.00    +0.000 C 
ATOM      9  O   UNL     1      45.279   4.403   7.807  0.00  0.00    +0.000 OA
ATOM     10  H   UNL     1      43.904   2.294   7.814  0.00  0.00    +0.000 HD
ATOM     11  H   UNL     1      43.875   2.181   9.570  0.00  0.00    +0.000 HD
ENDBRANCH   1   8
BRANCH   4  12
ATOM     12  N   UNL     1      46.200   5.493  14.038  0.00  0.00    +0.000 N 
ATOM     13  H   UNL     1      45.586   6.239  14.362  0.00  0.00    +0.000 HD
BRANCH  12  14
ATOM     14  C   UNL     1      47.586   5.711  14.425  0.00  0.00    +0.000 C 
BRANCH  14  15
ATOM     15  C   UNL     1      47.833   5.053  15.766  0.00  0.00    +0.000 A 
ATOM     16  C   UNL     1      47.141   3.878  16.116  0.00  0.00    +0.000 A 
ATOM     17  C   UNL     1      47.383   3.242  17.332  0.00  0.00    +0.000 A 
ATOM     18  C   UNL     1      48.325   3.774  18.201  0.00  0.00    +0.000 A 
ATOM     19  F   UNL     1      48.564   3.162  19.368  0.00  0.00    +0.000 F 
ATOM     20  C   UNL     1      49.026   4.930  17.878  0.00  0.00    +0.000 A 
ATOM     21  C   UNL     1      48.782   5.571  16.661  0.00  0.00    +0.000 A 
ENDBRANCH  14  15
ENDBRANCH  12  14
ENDBRANCH   4  12
TORSDOF 4
ENDMDL
MODEL 9
REMARK VINA RESULT:    -5.470      4.370      6.261
REMARK INTER + INTRA:          -7.299
REMARK INTER:                  -6.807
REMARK INTRA:                  -0.492
REMARK UNBOUND:                -0.550
REMARK  Name = 
REMARK  4 active torsions:
REMARK  status: ('A' for Active; 'I' for Inactive)
REMARK    1  A    between atoms: C_2  and  C_4
REMARK    2  A    between atoms: C_7  and  N_8
REMARK    3  A    between atoms: N_8  and  C_9
REMARK    4  A    between atoms: C_9  and  C_10
REMARK                            x       y       z     vdW  Elec       q    Type
REMARK                         _______ _______ _______ _____ _____    ______ ____
ROOT
ATOM      1  C   UNL     1      49.228   7.691  12.437  0.00  0.00    +0.000 A 
ATOM      2  C   UNL     1      48.183   8.496  12.007  0.00  0.00    +0.000 A 
ATOM      3  C   UNL     1      46.881   8.066  12.253  0.00  0.00    +0.000 A 
ATOM      4  C   UNL     1      46.642   6.846  12.890  0.00  0.00    +0.000 A 
ATOM      5  C   UNL     1      47.768   6.122  13.287  0.00  0.00    +0.000 A 
ATOM      6  N   UNL     1      49.054   6.504  13.081  0.00  0.00    +0.000 NA
ENDROOT
BRANCH   1   8
ATOM      7  N   UNL     1      51.314   7.426  11.232  0.00  0.00    +0.000 N 
ATOM      8  C   UNL     1      50.641   8.125  12.198  0.00  0.00    +0.000 C 
ATOM      9  O   UNL     1      51.168   9.041  12.817  0.00  0.00    +0.000 OA
ATOM     10  H   UNL     1      52.272   7.664  11.021  0.00  0.00    +0.000 HD
ATOM     11  H   UNL     1      50.842   6.679  10.736  0.00  0.00    +0.000 HD
ENDBRANCH   1   8
BRANCH   4  12
ATOM     12  N   UNL     1      45.316   6.464  13.095  0.00  0.00    +0.000 N 
ATOM     13  H   UNL     1      45.256   5.593  13.621  0.00  0.00    +0.000 HD
BRANCH  12  14
ATOM     14  C   UNL     1      44.363   6.511  11.996  0.00  0.00    +0.000 C 
BRANCH  14  15
ATOM     15  C   UNL     1      44.401   5.194  11.251  0.00  0.00    +0.000 A 
ATOM     16  C   UNL     1      43.712   4.075  11.758  0.00  0.00    +0.000 A 
ATOM     17  C   UNL     1      43.709   2.865  11.067  0.00  0.00    +0.000 A 
ATOM     18  C   UNL     1      44.390   2.771   9.860  0.00  0.00    +0.000 A 
ATOM     19  F   UNL     1      44.384   1.611   9.191  0.00  0.00    +0.000 F 
ATOM     20  C   UNL     1      45.074   3.861   9.336  0.00  0.00    +0.000 A 
ATOM     21  C   UNL     1      45.081   5.074  10.029  0.00  0.00    +0.000 A 
ENDBRANCH  14  15
ENDBRANCH  12  14
ENDBRANCH   4  12
TORSDOF 4
ENDMDL
