MODEL 1
REMARK VINA RESULT:    -7.740      0.000      0.000
REMARK INTER + INTRA:         -12.474
REMARK INTER:                 -10.908
REMARK INTRA:                  -1.566
REMARK UNBOUND:                -1.566
REMARK  Name = 
REMARK  8 active torsions:
REMARK  status: ('A' for Active; 'I' for Inactive)
REMARK    1  A    between atoms: C_1  and  C_2
REMARK    2  A    between atoms: C_4  and  C_5
REMARK    3  A    between atoms: C_10  and  O_11
REMARK    4  A    between atoms: O_11  and  C_12
REMARK    5  A    between atoms: C_12  and  C_13
REMARK    6  A    between atoms: C_17  and  C_18
REMARK    7  A    between atoms: C_22  and  O_23
REMARK    8  A    between atoms: O_23  and  C_24
REMARK                            x       y       z     vdW  Elec       q    Type
REMARK                         _______ _______ _______ _____ _____    ______ ____
ROOT
ATOM      1  C   UNL     1      45.022   4.099  12.560  0.00  0.00    +0.000 A 
ATOM      2  C   UNL     1      45.993   3.337  13.201  0.00  0.00    +0.000 A 
ATOM      3  C   UNL     1      47.139   3.968  13.664  0.00  0.00    +0.000 A 
ATOM      4  C   UNL     1      47.285   5.338  13.475  0.00  0.00    +0.000 A 
ATOM      5  C   UNL     1      46.282   6.050  12.817  0.00  0.00    +0.000 A 
ATOM      6  N   UNL     1      45.155   5.438  12.372  0.00  0.00    +0.000 NA
ENDROOT
BRANCH   5   7
ATOM      7  C   UNL     1      46.381   7.497  12.542  0.00  0.00    +0.000 A 
ATOM      8  C   UNL     1      47.630   8.107  12.336  0.00  0.00    +0.000 A 
ATOM      9  C   UNL     1      47.735   9.478  12.093  0.00  0.00    +0.000 A 
ATOM     10  C   UNL     1      46.590  10.270  12.037  0.00  0.00    +0.000 A 
ATOM     11  C   UNL     1      45.335   9.688  12.181  0.00  0.00    +0.000 A 
ATOM     12  C   UNL     1      45.243   8.323  12.478  0.00  0.00    +0.000 A 
BRANCH  11  13
ATOM     13  O   UNL     1      44.144  10.343  12.114  0.00  0.00    +0.000 OA
BRANCH  13  14
ATOM     14  C   UNL     1      43.393  10.290  10.908  0.00  0.00    +0.000 C 
ATOM     15  F   UNL     1      42.566   9.230  10.804  0.00  0.00    +0.000 F 
ATOM     16  F   UNL     1      42.637  11.409  10.822  0.00  0.00    +0.000 F 
ATOM     17  F   UNL     1      44.244  10.278   9.860  0.00  0.00    +0.000 F 
ENDBRANCH  13  14
ENDBRANCH  11  13
ENDBRANCH   5   7
BRANCH   1  18
ATOM     18  C   UNL     1      43.820   3.422  11.939  0.00  0.00    +0.000 C 
BRANCH  18  19
ATOM     19  O   UNL     1      43.614   3.815  10.588  0.00  0.00    +0.000 OA
BRANCH  19  26
ATOM     20  C   UNL     1      45.643   5.855   9.215  0.00  0.00    +0.000 C 
ATOM     21  C   UNL     1      45.503   4.370   9.017  0.00  0.00    +0.000 A 
ATOM     22  C   UNL     1      46.414   3.798   8.096  0.00  0.00    +0.000 A 
ATOM     23  C   UNL     1      46.428   2.431   7.793  0.00  0.00    +0.000 A 
ATOM     24  C   UNL     1      45.502   1.604   8.424  0.00  0.00    +0.000 A 
ATOM     25  C   UNL     1      44.593   2.151   9.339  0.00  0.00    +0.000 A 
ATOM     26  C   UNL     1      44.578   3.524   9.654  0.00  0.00    +0.000 A 
BRANCH  23  27
ATOM     27  C   UNL     1      47.445   1.957   6.808  0.00  0.00    +0.000 C 
ATOM     28  N   UNL     1      48.064   2.872   6.008  0.00  0.00    +0.000 N 
ATOM     29  O   UNL     1      47.731   0.766   6.704  0.00  0.00    +0.000 OA
ATOM     30  H   UNL     1      47.906   3.866   6.028  0.00  0.00    +0.000 HD
ATOM     31  H   UNL     1      48.752   2.511   5.358  0.00  0.00    +0.000 HD
ENDBRANCH  23  27
ENDBRANCH  19  26
ENDBRANCH  18  19
ENDBRANCH   1  18
TORSDOF 7
ENDMDL
MODEL 2
REMARK VINA RESULT:    -7.463      4.687      8.545
REMARK INTER + INTRA:         -12.083
REMARK INTER:                 -10.939
REMARK INTRA:                  -1.143
REMARK UNBOUND:                -1.566
REMARK  Name = 
REMARK  8 active torsions:
REMARK  status: ('A' for Active; 'I' for Inactive)
REMARK    1  A    between atoms: C_1  and  C_2
REMARK    2  A    between atoms: C_4  and  C_5
REMARK    3  A    between atoms: C_10  and  O_11
REMARK    4  A    between atoms: O_11  and  C_12
REMARK    5  A    between atoms: C_12  and  C_13
REMARK    6  A    between atoms: C_17  and  C_18
REMARK    7  A    between atoms: C_22  and  O_23
REMARK    8  A    between atoms: O_23  and  C_24
REMARK                            x       y       z     vdW  Elec       q    Type
REMARK                         _______ _______ _______ _____ _____    ______ ____
ROOT
ATOM      1  C   UNL     1      47.360   7.305  13.397  0.00  0.00    +0.000 A 
ATOM      2  C   UNL     1      46.835   8.592  13.320  0.00  0.00    +0.000 A 
ATOM      3  C   UNL     1      45.711   8.808  12.535  0.00  0.00    +0.000 A 
ATOM      4  C   UNL     1      45.144   7.739  11.850  0.00  0.00    +0.000 A 
ATOM      5  C   UNL     1      45.719   6.473  11.958  0.00  0.00    +0.000 A 
ATOM      6  N   UNL     1      46.812   6.255  12.733  0.00  0.00    +0.000 NA
ENDROOT
BRANCH   5   7
ATOM      7  C   UNL     1      45.200   5.298  11.230  0.00  0.00    +0.000 A 
ATOM      8  C   UNL     1      44.507   4.280  11.905  0.00  0.00    +0.000 A 
ATOM      9  C   UNL     1      44.029   3.156  11.228  0.00  0.00    +0.000 A 
ATOM     10  C   UNL     1      44.221   3.031   9.854  0.00  0.00    +0.000 A 
ATOM     11  C   UNL     1      44.855   4.047   9.146  0.00  0.00    +0.000 A 
ATOM     12  C   UNL     1      45.378   5.143   9.842  0.00  0.00    +0.000 A 
BRANCH  11  13
ATOM     13  O   UNL     1      45.074   4.061   7.803  0.00  0.00    +0.000 OA
BRANCH  13  14
ATOM     14  C   UNL     1      46.282   3.512   7.294  0.00  0.00    +0.000 C 
ATOM     15  F   UNL     1      46.714   2.407   7.934  0.00  0.00    +0.000 F 
ATOM     16  F   UNL     1      46.093   3.185   5.995  0.00  0.00    +0.000 F 
ATOM     17  F   UNL     1      47.250   4.451   7.352  0.00  0.00    +0.000 F 
ENDBRANCH  13  14
ENDBRANCH  11  13
ENDBRANCH   5   7
BRANCH   1  18
ATOM     18  C   UNL     1      48.652   7.061  14.146  0.00  0.00    +0.000 C 
BRANCH  18  19
ATOM     19  O   UNL     1      48.642   5.831  14.858  0.00  0.00    +0.000 OA
BRANCH  19  26
ATOM     20  C   UNL     1      47.560   3.418  16.637  0.00  0.00    +0.000 C 
ATOM     21  C   UNL     1      47.922   4.818  17.049  0.00  0.00    +0.000 A 
ATOM     22  C   UNL     1      47.769   5.097  18.429  0.00  0.00    +0.000 A 
ATOM     23  C   UNL     1      48.063   6.348  18.986  0.00  0.00    +0.000 A 
ATOM     24  C   UNL     1      48.519   7.358  18.143  0.00  0.00    +0.000 A 
ATOM     25  C   UNL     1      48.677   7.101  16.775  0.00  0.00    +0.000 A 
ATOM     26  C   UNL     1      48.391   5.843  16.208  0.00  0.00    +0.000 A 
BRANCH  23  27
ATOM     27  C   UNL     1      47.863   6.507  20.457  0.00  0.00    +0.000 C 
ATOM     28  N   UNL     1      47.169   5.549  21.136  0.00  0.00    +0.000 N 
ATOM     29  O   UNL     1      48.309   7.480  21.064  0.00  0.00    +0.000 OA
ATOM     30  H   UNL     1      46.779   4.715  20.731  0.00  0.00    +0.000 HD
ATOM     31  H   UNL     1      47.062   5.690  22.133  0.00  0.00    +0.000 HD
ENDBRANCH  23  27
ENDBRANCH  19  26
ENDBRANCH  18  19
ENDBRANCH   1  18
TORSDOF 7
ENDMDL
MODEL 3
REMARK VINA RESULT:    -7.434      3.513      4.365
REMARK INTER + INTRA:         -12.042
REMARK INTER:                 -11.085
REMARK INTRA:                  -0.957
REMARK UNBOUND:                -1.566
REMARK  Name = 
REMARK  8 active torsions:
REMARK  status: ('A' for Active; 'I' for Inactive)
REMARK    1  A    between atoms: C_1  and  C_2
REMARK    2  A    between atoms: C_4  and  C_5
REMARK    3  A    between atoms: C_10  and  O_11
REMARK    4  A    between atoms: O_11  and  C_12
REMARK    5  A    between atoms: C_12  and  C_13
REMARK    6  A    between atoms: C_17  and  C_18
REMARK    7  A    between atoms: C_22  and  O_23
REMARK    8  A    between atoms: O_23  and  C_24
REMARK                            x       y       z     vdW  Elec       q    Type
REMARK                         _______ _______ _______ _____ _____    ______ ____
ROOT
ATOM      1  C   UNL     1      45.096   5.384  12.147  0.00  0.00    +0.000 A 
ATOM      2  C   UNL     1      45.383   4.393  13.081  0.00  0.00    +0.000 A 
ATOM      3  C   UNL     1      46.579   4.462  13.779  0.00  0.00    +0.000 A 
ATOM      4  C   UNL     1      47.455   5.513  13.529  0.00  0.00    +0.000 A 
ATOM      5  C   UNL     1      47.118   6.473  12.574  0.00  0.00    +0.000 A 
ATOM      6  N   UNL     1      45.943   6.416  11.897  0.00  0.00    +0.000 NA
ENDROOT
BRANCH   5   7
ATOM      7  C   UNL     1      48.011   7.595  12.223  0.00  0.00    +0.000 A 
ATOM      8  C   UNL     1      47.494   8.877  11.975  0.00  0.00    +0.000 A 
ATOM      9  C   UNL     1      48.330   9.939  11.624  0.00  0.00    +0.000 A 
ATOM     10  C   UNL     1      49.706   9.747  11.526  0.00  0.00    +0.000 A 
ATOM     11  C   UNL     1      50.256   8.503  11.819  0.00  0.00    +0.000 A 
ATOM     12  C   UNL     1      49.405   7.432  12.117  0.00  0.00    +0.000 A 
BRANCH  11  13
ATOM     13  O   UNL     1      51.581   8.195  11.794  0.00  0.00    +0.000 OA
BRANCH  13  14
ATOM     14  C   UNL     1      52.193   7.880  10.550  0.00  0.00    +0.000 C 
ATOM     15  F   UNL     1      51.648   6.830   9.902  0.00  0.00    +0.000 F 
ATOM     16  F   UNL     1      52.097   8.957   9.737  0.00  0.00    +0.000 F 
ATOM     17  F   UNL     1      53.503   7.627  10.757  0.00  0.00    +0.000 F 
ENDBRANCH  13  14
ENDBRANCH  11  13
ENDBRANCH   5   7
BRANCH   1  18
ATOM     18  C   UNL     1      43.857   5.272  11.284  0.00  0.00    +0.000 C 
BRANCH  18  19
ATOM     19  O   UNL     1      44.165   5.235   9.897  0.00  0.00    +0.000 OA
BRANCH  19  26
ATOM     20  C   UNL     1      43.718   2.200  10.765  0.00  0.00    +0.000 C 
ATOM     21  C   UNL     1      44.631   2.766   9.712  0.00  0.00    +0.000 A 
ATOM     22  C   UNL     1      45.392   1.809   8.999  0.00  0.00    +0.000 A 
ATOM     23  C   UNL     1      46.290   2.158   7.982  0.00  0.00    +0.000 A 
ATOM     24  C   UNL     1      46.442   3.506   7.668  0.00  0.00    +0.000 A 
ATOM     25  C   UNL     1      45.697   4.469   8.363  0.00  0.00    +0.000 A 
ATOM     26  C   UNL     1      44.786   4.124   9.381  0.00  0.00    +0.000 A 
BRANCH  23  27
ATOM     27  C   UNL     1      47.025   1.049   7.305  0.00  0.00    +0.000 C 
ATOM     28  N   UNL     1      46.732  -0.240   7.644  0.00  0.00    +0.000 N 
ATOM     29  O   UNL     1      47.884   1.274   6.455  0.00  0.00    +0.000 OA
ATOM     30  H   UNL     1      46.039  -0.522   8.316  0.00  0.00    +0.000 HD
ATOM     31  H   UNL     1      47.247  -0.963   7.156  0.00  0.00    +0.000 HD
ENDBRANCH  23  27
ENDBRANCH  19  26
ENDBRANCH  18  19
ENDBRANCH   1  18
TORSDOF 7
ENDMDL
MODEL 4
REMARK VINA RESULT:    -7.388      4.026      5.353
REMARK INTER + INTRA:         -11.977
REMARK INTER:                 -10.811
REMARK INTRA:                  -1.165
REMARK UNBOUND:                -1.566
REMARK  Name = 
REMARK  8 active torsions:
REMARK  status: ('A' for Active; 'I' for Inactive)
REMARK    1  A    between atoms: C_1  and  C_2
REMARK    2  A    between atoms: C_4  and  C_5
REMARK    3  A    between atoms: C_10  and  O_11
REMARK    4  A    between atoms: O_11  and  C_12
REMARK    5  A    between atoms: C_12  and  C_13
REMARK    6  A    between atoms: C_17  and  C_18
REMARK    7  A    between atoms: C_22  and  O_23
REMARK    8  A    between atoms: O_23  and  C_24
REMARK                            x       y       z     vdW  Elec       q    Type
REMARK                         _______ _______ _______ _____ _____    ______ ____
ROOT
ATOM      1  C   UNL     1      44.887   6.098  11.841  0.00  0.00    +0.000 A 
ATOM      2  C   UNL     1      44.661   7.381  11.353  0.00  0.00    +0.000 A 
ATOM      3  C   UNL     1      45.417   8.429  11.859  0.00  0.00    +0.000 A 
ATOM      4  C   UNL     1      46.373   8.170  12.834  0.00  0.00    +0.000 A 
ATOM      5  C   UNL     1      46.550   6.864  13.291  0.00  0.00    +0.000 A 
ATOM      6  N   UNL     1      45.821   5.834  12.792  0.00  0.00    +0.000 NA
ENDROOT
BRANCH   5   7
ATOM      7  C   UNL     1      47.516   6.515  14.352  0.00  0.00    +0.000 A 
ATOM      8  C   UNL     1      48.461   7.451  14.803  0.00  0.00    +0.000 A 
ATOM      9  C   UNL     1      49.390   7.124  15.792  0.00  0.00    +0.000 A 
ATOM     10  C   UNL     1      49.386   5.855  16.366  0.00  0.00    +0.000 A 
ATOM     11  C   UNL     1      48.427   4.922  15.983  0.00  0.00    +0.000 A 
ATOM     12  C   UNL     1      47.536   5.242  14.952  0.00  0.00    +0.000 A 
BRANCH  11  13
ATOM     13  O   UNL     1      48.296   3.666  16.488  0.00  0.00    +0.000 OA
BRANCH  13  14
ATOM     14  C   UNL     1      47.580   3.480  17.702  0.00  0.00    +0.000 C 
ATOM     15  F   UNL     1      46.788   2.389  17.729  0.00  0.00    +0.000 F 
ATOM     16  F   UNL     1      48.470   3.364  18.714  0.00  0.00    +0.000 F 
ATOM     17  F   UNL     1      46.821   4.572  17.936  0.00  0.00    +0.000 F 
ENDBRANCH  13  14
ENDBRANCH  11  13
ENDBRANCH   5   7
BRANCH   1  18
ATOM     18  C   UNL     1      43.999   4.955  11.398  0.00  0.00    +0.000 C 
BRANCH  18  19
ATOM     19  O   UNL     1      43.888   4.871   9.984  0.00  0.00    +0.000 OA
BRANCH  19  26
ATOM     20  C   UNL     1      43.924   1.688  10.146  0.00  0.00    +0.000 C 
ATOM     21  C   UNL     1      44.778   2.611   9.320  0.00  0.00    +0.000 A 
ATOM     22  C   UNL     1      45.727   1.968   8.488  0.00  0.00    +0.000 A 
ATOM     23  C   UNL     1      46.601   2.671   7.650  0.00  0.00    +0.000 A 
ATOM     24  C   UNL     1      46.535   4.062   7.643  0.00  0.00    +0.000 A 
ATOM     25  C   UNL     1      45.604   4.717   8.460  0.00  0.00    +0.000 A 
ATOM     26  C   UNL     1      44.715   4.015   9.299  0.00  0.00    +0.000 A 
BRANCH  23  27
ATOM     27  C   UNL     1      47.548   1.870   6.819  0.00  0.00    +0.000 C 
ATOM     28  N   UNL     1      48.667   2.476   6.327  0.00  0.00    +0.000 N 
ATOM     29  O   UNL     1      47.338   0.685   6.570  0.00  0.00    +0.000 OA
ATOM     30  H   UNL     1      48.929   3.434   6.487  0.00  0.00    +0.000 HD
ATOM     31  H   UNL     1      49.288   1.897   5.774  0.00  0.00    +0.000 HD
ENDBRANCH  23  27
ENDBRANCH  19  26
ENDBRANCH  18  19
ENDBRANCH   1  18
TORSDOF 7
ENDMDL
MODEL 5
REMARK VINA RESULT:    -7.154      4.740      8.179
REMARK INTER + INTRA:         -11.647
REMARK INTER:                 -10.672
REMARK INTRA:                  -0.975
REMARK UNBOUND:                -1.566
REMARK  Name = 
REMARK  8 active torsions:
REMARK  status: ('A' for Active; 'I' for Inactive)
REMARK    1  A    between atoms: C_1  and  C_2
REMARK    2  A    between atoms: C_4  and  C_5
REMARK    3  A    between atoms: C_10  and  O_11
REMARK    4  A    between atoms: O_11  and  C_12
REMARK    5  A    between atoms: C_12  and  C_13
REMARK    6  A    between atoms: C_17  and  C_18
REMARK    7  A    between atoms: C_22  and  O_23
REMARK    8  A    between atoms: O_23  and  C_24
REMARK                            x       y       z     vdW  Elec       q    Type
REMARK                         _______ _______ _______ _____ _____    ______ ____
ROOT
ATOM      1  C   UNL     1      47.310   7.363  12.468  0.00  0.00    +0.000 A 
ATOM      2  C   UNL     1      46.509   8.485  12.653  0.00  0.00    +0.000 A 
ATOM      3  C   UNL     1      45.227   8.484  12.122  0.00  0.00    +0.000 A 
ATOM      4  C   UNL     1      44.781   7.368  11.422  0.00  0.00    +0.000 A 
ATOM      5  C   UNL     1      45.632   6.275  11.261  0.00  0.00    +0.000 A 
ATOM      6  N   UNL     1      46.883   6.267  11.788  0.00  0.00    +0.000 NA
ENDROOT
BRANCH   5   7
ATOM      7  C   UNL     1      45.247   5.071  10.497  0.00  0.00    +0.000 A 
ATOM      8  C   UNL     1      44.512   4.038  11.102  0.00  0.00    +0.000 A 
ATOM      9  C   UNL     1      44.159   2.888  10.394  0.00  0.00    +0.000 A 
ATOM     10  C   UNL     1      44.522   2.750   9.055  0.00  0.00    +0.000 A 
ATOM     11  C   UNL     1      45.202   3.779   8.411  0.00  0.00    +0.000 A 
ATOM     12  C   UNL     1      45.598   4.903   9.144  0.00  0.00    +0.000 A 
BRANCH  11  13
ATOM     13  O   UNL     1      45.583   3.781   7.104  0.00  0.00    +0.000 OA
BRANCH  13  14
ATOM     14  C   UNL     1      46.651   2.938   6.694  0.00  0.00    +0.000 C 
ATOM     15  F   UNL     1      46.522   1.646   7.058  0.00  0.00    +0.000 F 
ATOM     16  F   UNL     1      46.736   2.976   5.344  0.00  0.00    +0.000 F 
ATOM     17  F   UNL     1      47.808   3.416   7.199  0.00  0.00    +0.000 F 
ENDBRANCH  13  14
ENDBRANCH  11  13
ENDBRANCH   5   7
BRANCH   1  18
ATOM     18  C   UNL     1      48.751   7.380  12.929  0.00  0.00    +0.000 C 
BRANCH  18  19
ATOM     19  O   UNL     1      48.890   7.876  14.254  0.00  0.00    +0.000 OA
BRANCH  19  26
ATOM     20  C   UNL     1      51.851   7.830  15.433  0.00  0.00    +0.000 C 
ATOM     21  C   UNL     1      50.667   6.976  15.796  0.00  0.00    +0.000 A 
ATOM     22  C   UNL     1      50.903   6.024  16.817  0.00  0.00    +0.000 A 
ATOM     23  C   UNL     1      49.913   5.150  17.282  0.00  0.00    +0.000 A 
ATOM     24  C   UNL     1      48.646   5.220  16.709  0.00  0.00    +0.000 A 
ATOM     25  C   UNL     1      48.392   6.156  15.698  0.00  0.00    +0.000 A 
ATOM     26  C   UNL     1      49.381   7.044  15.230  0.00  0.00    +0.000 A 
BRANCH  23  27
ATOM     27  C   UNL     1      50.293   4.198  18.368  0.00  0.00    +0.000 C 
ATOM     28  N   UNL     1      49.628   3.010  18.465  0.00  0.00    +0.000 N 
ATOM     29  O   UNL     1      51.185   4.463  19.171  0.00  0.00    +0.000 OA
ATOM     30  H   UNL     1      48.895   2.700  17.850  0.00  0.00    +0.000 HD
ATOM     31  H   UNL     1      49.921   2.389  19.210  0.00  0.00    +0.000 HD
ENDBRANCH  23  27
ENDBRANCH  19  26
ENDBRANCH  18  19
ENDBRANCH   1  18
TORSDOF 7
ENDMDL
MODEL 6
REMARK VINA RESULT:    -6.985      4.753      7.985
REMARK INTER + INTRA:         -11.409
REMARK INTER:                 -10.376
REMARK INTRA:                  -1.032
REMARK UNBOUND:                -1.566
REMARK  Name = 
REMARK  8 active torsions:
REMARK  status: ('A' for Active; 'I' for Inactive)
REMARK    1  A    between atoms: C_1  and  C_2
REMARK    2  A    between atoms: C_4  and  C_5
REMARK    3  A    between atoms: C_10  and  O_11
REMARK    4  A    between atoms: O_11  and  C_12
REMARK    5  A    between atoms: C_12  and  C_13
REMARK    6  A    between atoms: C_17  and  C_18
REMARK    7  A    between atoms: C_22  and  O_23
REMARK    8  A    between atoms: O_23  and  C_24
REMARK                            x       y       z     vdW  Elec       q    Type
REMARK                         _______ _______ _______ _____ _____    ______ ____
ROOT
ATOM      1  C   UNL     1      47.459   7.587  13.706  0.00  0.00    +0.000 A 
ATOM      2  C   UNL     1      46.989   8.876  13.471  0.00  0.00    +0.000 A 
ATOM      3  C   UNL     1      45.902   9.047  12.626  0.00  0.00    +0.000 A 
ATOM      4  C   UNL     1      45.315   7.931  12.038  0.00  0.00    +0.000 A 
ATOM      5  C   UNL     1      45.835   6.664  12.303  0.00  0.00    +0.000 A 
ATOM      6  N   UNL     1      46.891   6.492  13.139  0.00  0.00    +0.000 NA
ENDROOT
BRANCH   5   7
ATOM      7  C   UNL     1      45.293   5.436  11.687  0.00  0.00    +0.000 A 
ATOM      8  C   UNL     1      44.759   4.407  12.479  0.00  0.00    +0.000 A 
ATOM      9  C   UNL     1      44.262   3.235  11.906  0.00  0.00    +0.000 A 
ATOM     10  C   UNL     1      44.275   3.070  10.523  0.00  0.00    +0.000 A 
ATOM     11  C   UNL     1      44.746   4.093   9.706  0.00  0.00    +0.000 A 
ATOM     12  C   UNL     1      45.292   5.241  10.293  0.00  0.00    +0.000 A 
BRANCH  11  13
ATOM     13  O   UNL     1      44.781   4.070   8.346  0.00  0.00    +0.000 OA
BRANCH  13  14
ATOM     14  C   UNL     1      45.946   3.583   7.693  0.00  0.00    +0.000 C 
ATOM     15  F   UNL     1      46.472   2.466   8.235  0.00  0.00    +0.000 F 
ATOM     16  F   UNL     1      45.634   3.305   6.406  0.00  0.00    +0.000 F 
ATOM     17  F   UNL     1      46.888   4.550   7.696  0.00  0.00    +0.000 F 
ENDBRANCH  13  14
ENDBRANCH  11  13
ENDBRANCH   5   7
BRANCH   1  18
ATOM     18  C   UNL     1      48.713   7.379  14.525  0.00  0.00    +0.000 C 
BRANCH  18  19
ATOM     19  O   UNL     1      48.429   7.010  15.868  0.00  0.00    +0.000 OA
BRANCH  19  26
ATOM     20  C   UNL     1      47.268   4.142  16.635  0.00  0.00    +0.000 C 
ATOM     21  C   UNL     1      48.666   4.677  16.787  0.00  0.00    +0.000 A 
ATOM     22  C   UNL     1      49.600   3.768  17.341  0.00  0.00    +0.000 A 
ATOM     23  C   UNL     1      50.945   4.097  17.550  0.00  0.00    +0.000 A 
ATOM     24  C   UNL     1      51.376   5.374  17.202  0.00  0.00    +0.000 A 
ATOM     25  C   UNL     1      50.466   6.288  16.653  0.00  0.00    +0.000 A 
ATOM     26  C   UNL     1      49.113   5.962  16.432  0.00  0.00    +0.000 A 
BRANCH  23  27
ATOM     27  C   UNL     1      51.826   3.043  18.136  0.00  0.00    +0.000 C 
ATOM     28  N   UNL     1      52.644   3.372  19.177  0.00  0.00    +0.000 N 
ATOM     29  O   UNL     1      51.828   1.894  17.700  0.00  0.00    +0.000 OA
ATOM     30  H   UNL     1      52.703   4.280  19.607  0.00  0.00    +0.000 HD
ATOM     31  H   UNL     1      53.220   2.628  19.550  0.00  0.00    +0.000 HD
ENDBRANCH  23  27
ENDBRANCH  19  26
ENDBRANCH  18  19
ENDBRANCH   1  18
TORSDOF 7
ENDMDL
MODEL 7
REMARK VINA RESULT:    -6.978      4.280      5.121
REMARK INTER + INTRA:         -11.399
REMARK INTER:                 -10.260
REMARK INTRA:                  -1.140
REMARK UNBOUND:                -1.566
REMARK  Name = 
REMARK  8 active torsions:
REMARK  status: ('A' for Active; 'I' for Inactive)
REMARK    1  A    between atoms: C_1  and  C_2
REMARK    2  A    between atoms: C_4  and  C_5
REMARK    3  A    between atoms: C_10  and  O_11
REMARK    4  A    between atoms: O_11  and  C_12
REMARK    5  A    between atoms: C_12  and  C_13
REMARK    6  A    between atoms: C_17  and  C_18
REMARK    7  A    between atoms: C_22  and  O_23
REMARK    8  A    between atoms: O_23  and  C_24
REMARK                            x       y       z     vdW  Elec       q    Type
REMARK                         _______ _______ _______ _____ _____    ______ ____
ROOT
ATOM      1  C   UNL     1      45.597   5.930  11.866  0.00  0.00    +0.000 A 
ATOM      2  C   UNL     1      45.238   4.975  12.811  0.00  0.00    +0.000 A 
ATOM      3  C   UNL     1      46.108   4.714  13.860  0.00  0.00    +0.000 A 
ATOM      4  C   UNL     1      47.308   5.411  13.938  0.00  0.00    +0.000 A 
ATOM      5  C   UNL     1      47.620   6.352  12.956  0.00  0.00    +0.000 A 
ATOM      6  N   UNL     1      46.766   6.618  11.934  0.00  0.00    +0.000 NA
ENDROOT
BRANCH   5   7
ATOM      7  C   UNL     1      48.891   7.102  12.946  0.00  0.00    +0.000 A 
ATOM      8  C   UNL     1      49.433   7.586  11.743  0.00  0.00    +0.000 A 
ATOM      9  C   UNL     1      50.644   8.280  11.722  0.00  0.00    +0.000 A 
ATOM     10  C   UNL     1      51.336   8.520  12.908  0.00  0.00    +0.000 A 
ATOM     11  C   UNL     1      50.800   8.103  14.121  0.00  0.00    +0.000 A 
ATOM     12  C   UNL     1      49.613   7.360  14.126  0.00  0.00    +0.000 A 
BRANCH  11  13
ATOM     13  O   UNL     1      51.358   8.303  15.346  0.00  0.00    +0.000 OA
BRANCH  13  14
ATOM     14  C   UNL     1      52.295   7.356  15.842  0.00  0.00    +0.000 C 
ATOM     15  F   UNL     1      53.266   7.013  14.972  0.00  0.00    +0.000 F 
ATOM     16  F   UNL     1      52.892   7.875  16.939  0.00  0.00    +0.000 F 
ATOM     17  F   UNL     1      51.634   6.238  16.215  0.00  0.00    +0.000 F 
ENDBRANCH  13  14
ENDBRANCH  11  13
ENDBRANCH   5   7
BRANCH   1  18
ATOM     18  C   UNL     1      44.727   6.150  10.647  0.00  0.00    +0.000 C 
BRANCH  18  19
ATOM     19  O   UNL     1      44.112   4.951  10.196  0.00  0.00    +0.000 OA
BRANCH  19  26
ATOM     20  C   UNL     1      44.023   1.769  10.365  0.00  0.00    +0.000 C 
ATOM     21  C   UNL     1      44.854   2.654   9.477  0.00  0.00    +0.000 A 
ATOM     22  C   UNL     1      45.711   1.970   8.581  0.00  0.00    +0.000 A 
ATOM     23  C   UNL     1      46.552   2.635   7.680  0.00  0.00    +0.000 A 
ATOM     24  C   UNL     1      46.546   4.027   7.673  0.00  0.00    +0.000 A 
ATOM     25  C   UNL     1      45.705   4.722   8.553  0.00  0.00    +0.000 A 
ATOM     26  C   UNL     1      44.850   4.059   9.456  0.00  0.00    +0.000 A 
BRANCH  23  27
ATOM     27  C   UNL     1      47.401   1.794   6.785  0.00  0.00    +0.000 C 
ATOM     28  N   UNL     1      48.434   2.381   6.113  0.00  0.00    +0.000 N 
ATOM     29  O   UNL     1      47.188   0.591   6.642  0.00  0.00    +0.000 OA
ATOM     30  H   UNL     1      48.693   3.351   6.176  0.00  0.00    +0.000 HD
ATOM     31  H   UNL     1      48.990   1.775   5.522  0.00  0.00    +0.000 HD
ENDBRANCH  23  27
ENDBRANCH  19  26
ENDBRANCH  18  19
ENDBRANCH   1  18
TORSDOF 7
ENDMDL
MODEL 8
REMARK VINA RESULT:    -6.884      5.046      7.783
REMARK INTER + INTRA:         -11.267
REMARK INTER:                 -10.443
REMARK INTRA:                  -0.824
REMARK UNBOUND:                -1.566
REMARK  Name = 
REMARK  8 active torsions:
REMARK  status: ('A' for Active; 'I' for Inactive)
REMARK    1  A    between atoms: C_1  and  C_2
REMARK    2  A    between atoms: C_4  and  C_5
REMARK    3  A    between atoms: C_10  and  O_11
REMARK    4  A    between atoms: O_11  and  C_12
REMARK    5  A    between atoms: C_12  and  C_13
REMARK    6  A    between atoms: C_17  and  C_18
REMARK    7  A    between atoms: C_22  and  O_23
REMARK    8  A    between atoms: O_23  and  C_24
REMARK                            x       y       z     vdW  Elec       q    Type
REMARK                         _______ _______ _______ _____ _____    ______ ____
ROOT
ATOM      1  C   UNL     1      48.373   6.797  14.750  0.00  0.00    +0.000 A 
ATOM      2  C   UNL     1      49.339   7.379  13.934  0.00  0.00    +0.000 A 
ATOM      3  C   UNL     1      49.168   7.328  12.558  0.00  0.00    +0.000 A 
ATOM      4  C   UNL     1      48.043   6.701  12.034  0.00  0.00    +0.000 A 
ATOM      5  C   UNL     1      47.112   6.128  12.900  0.00  0.00    +0.000 A 
ATOM      6  N   UNL     1      47.270   6.184  14.247  0.00  0.00    +0.000 NA
ENDROOT
BRANCH   5   7
ATOM      7  C   UNL     1      45.914   5.409  12.421  0.00  0.00    +0.000 A 
ATOM      8  C   UNL     1      45.000   4.848  13.328  0.00  0.00    +0.000 A 
ATOM      9  C   UNL     1      43.874   4.151  12.883  0.00  0.00    +0.000 A 
ATOM     10  C   UNL     1      43.629   4.012  11.519  0.00  0.00    +0.000 A 
ATOM     11  C   UNL     1      44.485   4.604  10.595  0.00  0.00    +0.000 A 
ATOM     12  C   UNL     1      45.639   5.253  11.049  0.00  0.00    +0.000 A 
BRANCH  11  13
ATOM     13  O   UNL     1      44.339   4.570   9.243  0.00  0.00    +0.000 OA
BRANCH  13  14
ATOM     14  C   UNL     1      45.159   3.693   8.481  0.00  0.00    +0.000 C 
ATOM     15  F   UNL     1      45.586   2.600   9.145  0.00  0.00    +0.000 F 
ATOM     16  F   UNL     1      44.455   3.270   7.406  0.00  0.00    +0.000 F 
ATOM     17  F   UNL     1      46.235   4.376   8.034  0.00  0.00    +0.000 F 
ENDBRANCH  13  14
ENDBRANCH  11  13
ENDBRANCH   5   7
BRANCH   1  18
ATOM     18  C   UNL     1      48.590   6.730  16.245  0.00  0.00    +0.000 C 
BRANCH  18  19
ATOM     19  O   UNL     1      48.290   5.447  16.779  0.00  0.00    +0.000 OA
BRANCH  19  26
ATOM     20  C   UNL     1      51.284   6.153  17.616  0.00  0.00    +0.000 C 
ATOM     21  C   UNL     1      50.649   4.808  17.388  0.00  0.00    +0.000 A 
ATOM     22  C   UNL     1      51.506   3.698  17.585  0.00  0.00    +0.000 A 
ATOM     23  C   UNL     1      51.081   2.374  17.421  0.00  0.00    +0.000 A 
ATOM     24  C   UNL     1      49.762   2.144  17.041  0.00  0.00    +0.000 A 
ATOM     25  C   UNL     1      48.898   3.230  16.841  0.00  0.00    +0.000 A 
ATOM     26  C   UNL     1      49.316   4.564  17.012  0.00  0.00    +0.000 A 
BRANCH  23  27
ATOM     27  C   UNL     1      52.084   1.296  17.666  0.00  0.00    +0.000 C 
ATOM     28  N   UNL     1      51.661   0.108  18.189  0.00  0.00    +0.000 N 
ATOM     29  O   UNL     1      53.276   1.457  17.410  0.00  0.00    +0.000 OA
ATOM     30  H   UNL     1      50.709  -0.121  18.418  0.00  0.00    +0.000 HD
ATOM     31  H   UNL     1      52.372  -0.599  18.333  0.00  0.00    +0.000 HD
ENDBRANCH  23  27
ENDBRANCH  19  26
ENDBRANCH  18  19
ENDBRANCH   1  18
TORSDOF 7
ENDMDL
MODEL 9
REMARK VINA RESULT:    -6.369      4.843      7.746
REMARK INTER + INTRA:         -10.541
REMARK INTER:                  -9.528
REMARK INTRA:                  -1.013
REMARK UNBOUND:                -1.566
REMARK  Name = 
REMARK  8 active torsions:
REMARK  status: ('A' for Active; 'I' for Inactive)
REMARK    1  A    between atoms: C_1  and  C_2
REMARK    2  A    between atoms: C_4  and  C_5
REMARK    3  A    between atoms: C_10  and  O_11
REMARK    4  A    between atoms: O_11  and  C_12
REMARK    5  A    between atoms: C_12  and  C_13
REMARK    6  A    between atoms: C_17  and  C_18
REMARK    7  A    between atoms: C_22  and  O_23
REMARK    8  A    between atoms: O_23  and  C_24
REMARK                            x       y       z     vdW  Elec       q    Type
REMARK                         _______ _______ _______ _____ _____    ______ ____
ROOT
ATOM      1  C   UNL     1      46.872   7.094  12.689  0.00  0.00    +0.000 A 
ATOM      2  C   UNL     1      46.057   8.221  12.717  0.00  0.00    +0.000 A 
ATOM      3  C   UNL     1      44.906   8.232  11.942  0.00  0.00    +0.000 A 
ATOM      4  C   UNL     1      44.600   7.122  11.163  0.00  0.00    +0.000 A 
ATOM      5  C   UNL     1      45.460   6.023  11.167  0.00  0.00    +0.000 A 
ATOM      6  N   UNL     1      46.581   6.004  11.932  0.00  0.00    +0.000 NA
ENDROOT
BRANCH   5   7
ATOM      7  C   UNL     1      45.226   4.825  10.336  0.00  0.00    +0.000 A 
ATOM      8  C   UNL     1      44.619   3.680  10.878  0.00  0.00    +0.000 A 
ATOM      9  C   UNL     1      44.411   2.536  10.104  0.00  0.00    +0.000 A 
ATOM     10  C   UNL     1      44.793   2.516   8.765  0.00  0.00    +0.000 A 
ATOM     11  C   UNL     1      45.346   3.653   8.183  0.00  0.00    +0.000 A 
ATOM     12  C   UNL     1      45.600   4.775   8.980  0.00  0.00    +0.000 A 
BRANCH  11  13
ATOM     13  O   UNL     1      45.728   3.773   6.883  0.00  0.00    +0.000 OA
BRANCH  13  14
ATOM     14  C   UNL     1      46.829   3.006   6.412  0.00  0.00    +0.000 C 
ATOM     15  F   UNL     1      47.943   3.095   7.168  0.00  0.00    +0.000 F 
ATOM     16  F   UNL     1      46.463   1.704   6.375  0.00  0.00    +0.000 F 
ATOM     17  F   UNL     1      47.129   3.393   5.154  0.00  0.00    +0.000 F 
ENDBRANCH  13  14
ENDBRANCH  11  13
ENDBRANCH   5   7
BRANCH   1  18
ATOM     18  C   UNL     1      48.193   7.099  13.428  0.00  0.00    +0.000 C 
BRANCH  18  19
ATOM     19  O   UNL     1      48.874   8.342  13.312  0.00  0.00    +0.000 OA
BRANCH  19  26
ATOM     20  C   UNL     1      51.456   8.768  15.131  0.00  0.00    +0.000 C 
ATOM     21  C   UNL     1      51.363   8.524  13.650  0.00  0.00    +0.000 A 
ATOM     22  C   UNL     1      52.604   8.465  12.971  0.00  0.00    +0.000 A 
ATOM     23  C   UNL     1      52.705   8.242  11.592  0.00  0.00    +0.000 A 
ATOM     24  C   UNL     1      51.531   8.078  10.861  0.00  0.00    +0.000 A 
ATOM     25  C   UNL     1      50.293   8.133  11.515  0.00  0.00    +0.000 A 
ATOM     26  C   UNL     1      50.185   8.349  12.903  0.00  0.00    +0.000 A 
BRANCH  23  27
ATOM     27  C   UNL     1      54.076   8.197  11.002  0.00  0.00    +0.000 C 
ATOM     28  N   UNL     1      55.103   8.794  11.674  0.00  0.00    +0.000 N 
ATOM     29  O   UNL     1      54.295   7.637   9.930  0.00  0.00    +0.000 OA
ATOM     30  H   UNL     1      55.024   9.263  12.561  0.00  0.00    +0.000 HD
ATOM     31  H   UNL     1      56.018   8.734  11.245  0.00  0.00    +0.000 HD
ENDBRANCH  23  27
ENDBRANCH  19  26
ENDBRANCH  18  19
ENDBRANCH   1  18
TORSDOF 7
ENDMDL
