MODEL 1
REMARK VINA RESULT:    -8.964      0.000      0.000
REMARK INTER + INTRA:         -11.942
REMARK INTER:                 -11.060
REMARK INTRA:                  -0.881
REMARK UNBOUND:                -0.881
REMARK  Name = 
REMARK  4 active torsions:
REMARK  status: ('A' for Active; 'I' for Inactive)
REMARK    1  A    between atoms: C_2  and  C_4
REMARK    2  A    between atoms: N_8  and  C_9
REMARK    3  A    between atoms: C_9  and  C_10
REMARK    4  A    between atoms: C_14  and  C_15
REMARK                            x       y       z     vdW  Elec       q    Type
REMARK                         _______ _______ _______ _____ _____    ______ ____
ROOT
ATOM      1  C   UNL     1      43.918   4.845  11.493  0.00  0.00    +0.000 C 
ATOM      2  C   UNL     1      42.567   5.272  12.057  0.00  0.00    +0.000 C 
ATOM      3  C   UNL     1      43.124   5.987  10.874  0.00  0.00    +0.000 C 
ENDROOT
BRANCH   1   8
ATOM      4  C   UNL     1      46.513   2.740   7.526  0.00  0.00    +0.000 A 
ATOM      5  C   UNL     1      46.269   4.067   7.858  0.00  0.00    +0.000 A 
ATOM      6  C   UNL     1      45.435   4.352   8.935  0.00  0.00    +0.000 A 
ATOM      7  C   UNL     1      44.861   3.327   9.683  0.00  0.00    +0.000 A 
ATOM      8  N   UNL     1      44.004   3.571  10.764  0.00  0.00    +0.000 N 
ATOM      9  N   UNL     1      45.092   2.033   9.373  0.00  0.00    +0.000 NA
ATOM     10  C   UNL     1      45.895   1.768   8.304  0.00  0.00    +0.000 A 
ATOM     11  H   UNL     1      43.782   2.695  11.224  0.00  0.00    +0.000 HD
BRANCH   4  13
ATOM     12  N   UNL     1      47.217   3.108   5.232  0.00  0.00    +0.000 N 
ATOM     13  C   UNL     1      47.344   2.365   6.373  0.00  0.00    +0.000 C 
ATOM     14  O   UNL     1      48.129   1.423   6.432  0.00  0.00    +0.000 OA
ATOM     15  H   UNL     1      47.816   2.862   4.451  0.00  0.00    +0.000 HD
ATOM     16  H   UNL     1      46.740   4.003   5.192  0.00  0.00    +0.000 HD
ENDBRANCH   4  13
ENDBRANCH   1   8
BRANCH   1  17
ATOM     17  C   UNL     1      45.173   5.241  12.273  0.00  0.00    +0.000 A 
ATOM     18  C   UNL     1      45.586   4.591  13.444  0.00  0.00    +0.000 A 
ATOM     19  C   UNL     1      46.800   4.924  14.065  0.00  0.00    +0.000 A 
ATOM     20  C   UNL     1      47.621   5.921  13.533  0.00  0.00    +0.000 A 
ATOM     21  C   UNL     1      47.234   6.603  12.379  0.00  0.00    +0.000 A 
ATOM     22  C   UNL     1      46.018   6.250  11.783  0.00  0.00    +0.000 A 
BRANCH  21  23
ATOM     23  C   UNL     1      48.111   7.651  11.725  0.00  0.00    +0.000 C 
ATOM     24  C   UNL     1      49.601   7.457  12.061  0.00  0.00    +0.000 C 
ATOM     25  C   UNL     1      50.426   8.607  11.498  0.00  0.00    +0.000 C 
ATOM     26  O   UNL     1      49.940   9.861  11.974  0.00  0.00    +0.000 OA
ATOM     27  C   UNL     1      48.599  10.113  11.554  0.00  0.00    +0.000 C 
ATOM     28  C   UNL     1      47.660   9.069  12.125  0.00  0.00    +0.000 C 
ENDBRANCH  21  23
ENDBRANCH   1  17
TORSDOF 4
ENDMDL
MODEL 2
REMARK VINA RESULT:    -8.880      2.104      3.528
REMARK INTER + INTRA:         -11.837
REMARK INTER:                 -11.123
REMARK INTRA:                  -0.714
REMARK UNBOUND:                -0.881
REMARK  Name = 
REMARK  4 active torsions:
REMARK  status: ('A' for Active; 'I' for Inactive)
REMARK    1  A    between atoms: C_2  and  C_4
REMARK    2  A    between atoms: N_8  and  C_9
REMARK    3  A    between atoms: C_9  and  C_10
REMARK    4  A    between atoms: C_14  and  C_15
REMARK                            x       y       z     vdW  Elec       q    Type
REMARK                         _______ _______ _______ _____ _____    ______ ____
ROOT
ATOM      1  C   UNL     1      43.998   4.803  11.562  0.00  0.00    +0.000 C 
ATOM      2  C   UNL     1      42.698   5.146  12.283  0.00  0.00    +0.000 C 
ATOM      3  C   UNL     1      43.044   5.858  11.020  0.00  0.00    +0.000 C 
ENDROOT
BRANCH   1   8
ATOM      4  C   UNL     1      46.461   2.687   7.518  0.00  0.00    +0.000 A 
ATOM      5  C   UNL     1      46.185   4.013   7.830  0.00  0.00    +0.000 A 
ATOM      6  C   UNL     1      45.397   4.296   8.942  0.00  0.00    +0.000 A 
ATOM      7  C   UNL     1      44.902   3.272   9.744  0.00  0.00    +0.000 A 
ATOM      8  N   UNL     1      44.094   3.514  10.862  0.00  0.00    +0.000 N 
ATOM      9  N   UNL     1      45.165   1.979   9.455  0.00  0.00    +0.000 NA
ATOM     10  C   UNL     1      45.921   1.714   8.352  0.00  0.00    +0.000 A 
ATOM     11  H   UNL     1      43.929   2.643  11.355  0.00  0.00    +0.000 HD
BRANCH   4  13
ATOM     12  N   UNL     1      47.188   3.140   5.247  0.00  0.00    +0.000 N 
ATOM     13  C   UNL     1      47.244   2.311   6.333  0.00  0.00    +0.000 C 
ATOM     14  O   UNL     1      47.931   1.293   6.318  0.00  0.00    +0.000 OA
ATOM     15  H   UNL     1      47.756   2.890   4.444  0.00  0.00    +0.000 HD
ATOM     16  H   UNL     1      46.804   4.080   5.274  0.00  0.00    +0.000 HD
ENDBRANCH   4  13
ENDBRANCH   1   8
BRANCH   1  17
ATOM     17  C   UNL     1      45.304   5.322  12.166  0.00  0.00    +0.000 A 
ATOM     18  C   UNL     1      46.049   6.368  11.602  0.00  0.00    +0.000 A 
ATOM     19  C   UNL     1      47.184   6.876  12.250  0.00  0.00    +0.000 A 
ATOM     20  C   UNL     1      47.605   6.344  13.472  0.00  0.00    +0.000 A 
ATOM     21  C   UNL     1      46.899   5.291  14.055  0.00  0.00    +0.000 A 
ATOM     22  C   UNL     1      45.772   4.804  13.385  0.00  0.00    +0.000 A 
BRANCH  21  23
ATOM     23  C   UNL     1      47.274   4.715  15.406  0.00  0.00    +0.000 C 
ATOM     24  C   UNL     1      48.354   5.550  16.116  0.00  0.00    +0.000 C 
ATOM     25  C   UNL     1      48.797   4.862  17.402  0.00  0.00    +0.000 C 
ATOM     26  O   UNL     1      49.248   3.535  17.138  0.00  0.00    +0.000 OA
ATOM     27  C   UNL     1      48.214   2.711  16.601  0.00  0.00    +0.000 C 
ATOM     28  C   UNL     1      47.742   3.254  15.266  0.00  0.00    +0.000 C 
ENDBRANCH  21  23
ENDBRANCH   1  17
TORSDOF 4
ENDMDL
MODEL 3
REMARK VINA RESULT:    -6.666      3.906      7.469
REMARK INTER + INTRA:          -9.106
REMARK INTER:                  -8.829
REMARK INTRA:                  -0.277
REMARK UNBOUND:                -0.881
REMARK  Name = 
REMARK  4 active torsions:
REMARK  status: ('A' for Active; 'I' for Inactive)
REMARK    1  A    between atoms: C_2  and  C_4
REMARK    2  A    between atoms: N_8  and  C_9
REMARK    3  A    between atoms: C_9  and  C_10
REMARK    4  A    between atoms: C_14  and  C_15
REMARK                            x       y       z     vdW  Elec       q    Type
REMARK                         _______ _______ _______ _____ _____    ______ ____
ROOT
ATOM      1  C   UNL     1      48.706   7.906  12.659  0.00  0.00    +0.000 C 
ATOM      2  C   UNL     1      49.665   7.288  11.647  0.00  0.00    +0.000 C 
ATOM      3  C   UNL     1      49.624   8.770  11.806  0.00  0.00    +0.000 C 
ENDROOT
BRANCH   1   8
ATOM      4  C   UNL     1      47.984   4.509  16.511  0.00  0.00    +0.000 A 
ATOM      5  C   UNL     1      47.319   4.677  15.304  0.00  0.00    +0.000 A 
ATOM      6  C   UNL     1      47.653   5.757  14.492  0.00  0.00    +0.000 A 
ATOM      7  C   UNL     1      48.650   6.653  14.871  0.00  0.00    +0.000 A 
ATOM      8  N   UNL     1      49.006   7.760  14.091  0.00  0.00    +0.000 N 
ATOM      9  N   UNL     1      49.307   6.499  16.041  0.00  0.00    +0.000 NA
ATOM     10  C   UNL     1      48.956   5.449  16.836  0.00  0.00    +0.000 A 
ATOM     11  H   UNL     1      49.812   8.217  14.500  0.00  0.00    +0.000 HD
BRANCH   4  13
ATOM     12  N   UNL     1      48.627   3.004  18.304  0.00  0.00    +0.000 N 
ATOM     13  C   UNL     1      47.651   3.421  17.441  0.00  0.00    +0.000 C 
ATOM     14  O   UNL     1      46.536   2.907  17.450  0.00  0.00    +0.000 OA
ATOM     15  H   UNL     1      48.380   2.274  18.964  0.00  0.00    +0.000 HD
ATOM     16  H   UNL     1      49.486   3.517  18.474  0.00  0.00    +0.000 HD
ENDBRANCH   4  13
ENDBRANCH   1   8
BRANCH   1  17
ATOM     17  C   UNL     1      47.220   7.943  12.299  0.00  0.00    +0.000 A 
ATOM     18  C   UNL     1      46.434   9.101  12.397  0.00  0.00    +0.000 A 
ATOM     19  C   UNL     1      45.103   9.109  11.957  0.00  0.00    +0.000 A 
ATOM     20  C   UNL     1      44.524   7.957  11.417  0.00  0.00    +0.000 A 
ATOM     21  C   UNL     1      45.269   6.782  11.320  0.00  0.00    +0.000 A 
ATOM     22  C   UNL     1      46.594   6.803  11.769  0.00  0.00    +0.000 A 
BRANCH  21  23
ATOM     23  C   UNL     1      44.713   5.521  10.689  0.00  0.00    +0.000 C 
ATOM     24  C   UNL     1      44.652   4.349  11.685  0.00  0.00    +0.000 C 
ATOM     25  C   UNL     1      44.219   3.072  10.976  0.00  0.00    +0.000 C 
ATOM     26  O   UNL     1      45.082   2.783   9.878  0.00  0.00    +0.000 OA
ATOM     27  C   UNL     1      45.045   3.803   8.881  0.00  0.00    +0.000 C 
ATOM     28  C   UNL     1      45.537   5.120   9.451  0.00  0.00    +0.000 C 
ENDBRANCH  21  23
ENDBRANCH   1  17
TORSDOF 4
ENDMDL
MODEL 4
REMARK VINA RESULT:    -6.632      2.769      6.757
REMARK INTER + INTRA:          -9.064
REMARK INTER:                  -8.115
REMARK INTRA:                  -0.949
REMARK UNBOUND:                -0.881
REMARK  Name = 
REMARK  4 active torsions:
REMARK  status: ('A' for Active; 'I' for Inactive)
REMARK    1  A    between atoms: C_2  and  C_4
REMARK    2  A    between atoms: N_8  and  C_9
REMARK    3  A    between atoms: C_9  and  C_10
REMARK    4  A    between atoms: C_14  and  C_15
REMARK                            x       y       z     vdW  Elec       q    Type
REMARK                         _______ _______ _______ _____ _____    ______ ____
ROOT
ATOM      1  C   UNL     1      46.373   5.170  13.716  0.00  0.00    +0.000 C 
ATOM      2  C   UNL     1      46.543   4.061  14.748  0.00  0.00    +0.000 C 
ATOM      3  C   UNL     1      47.496   4.150  13.606  0.00  0.00    +0.000 C 
ENDROOT
BRANCH   1   8
ATOM      4  C   UNL     1      48.795   9.329  11.784  0.00  0.00    +0.000 A 
ATOM      5  C   UNL     1      48.884   7.984  11.453  0.00  0.00    +0.000 A 
ATOM      6  C   UNL     1      48.192   7.051  12.220  0.00  0.00    +0.000 A 
ATOM      7  C   UNL     1      47.408   7.456  13.298  0.00  0.00    +0.000 A 
ATOM      8  N   UNL     1      46.708   6.549  14.104  0.00  0.00    +0.000 N 
ATOM      9  N   UNL     1      47.310   8.761  13.628  0.00  0.00    +0.000 NA
ATOM     10  C   UNL     1      48.008   9.662  12.881  0.00  0.00    +0.000 A 
ATOM     11  H   UNL     1      46.129   7.058  14.761  0.00  0.00    +0.000 HD
BRANCH   4  13
ATOM     12  N   UNL     1      48.822  11.415  10.543  0.00  0.00    +0.000 N 
ATOM     13  C   UNL     1      49.536  10.365  11.049  0.00  0.00    +0.000 C 
ATOM     14  O   UNL     1      50.753  10.295  10.901  0.00  0.00    +0.000 OA
ATOM     15  H   UNL     1      49.344  12.141  10.064  0.00  0.00    +0.000 HD
ATOM     16  H   UNL     1      47.863  11.623  10.802  0.00  0.00    +0.000 HD
ENDBRANCH   4  13
ENDBRANCH   1   8
BRANCH   1  17
ATOM     17  C   UNL     1      45.234   5.032  12.704  0.00  0.00    +0.000 A 
ATOM     18  C   UNL     1      43.973   5.620  12.881  0.00  0.00    +0.000 A 
ATOM     19  C   UNL     1      42.997   5.550  11.876  0.00  0.00    +0.000 A 
ATOM     20  C   UNL     1      43.257   4.884  10.675  0.00  0.00    +0.000 A 
ATOM     21  C   UNL     1      44.494   4.271  10.471  0.00  0.00    +0.000 A 
ATOM     22  C   UNL     1      45.447   4.356  11.492  0.00  0.00    +0.000 A 
BRANCH  21  23
ATOM     23  C   UNL     1      44.853   3.586   9.167  0.00  0.00    +0.000 C 
ATOM     24  C   UNL     1      45.385   2.159   9.386  0.00  0.00    +0.000 C 
ATOM     25  C   UNL     1      45.860   1.561   8.067  0.00  0.00    +0.000 C 
ATOM     26  O   UNL     1      46.839   2.398   7.454  0.00  0.00    +0.000 OA
ATOM     27  C   UNL     1      46.317   3.685   7.124  0.00  0.00    +0.000 C 
ATOM     28  C   UNL     1      45.881   4.419   8.377  0.00  0.00    +0.000 C 
ENDBRANCH  21  23
ENDBRANCH   1  17
TORSDOF 4
ENDMDL
MODEL 5
REMARK VINA RESULT:    -6.489      3.906      6.350
REMARK INTER + INTRA:          -8.888
REMARK INTER:                  -7.958
REMARK INTRA:                  -0.930
REMARK UNBOUND:                -0.881
REMARK  Name = 
REMARK  4 active torsions:
REMARK  status: ('A' for Active; 'I' for Inactive)
REMARK    1  A    between atoms: C_2  and  C_4
REMARK    2  A    between atoms: N_8  and  C_9
REMARK    3  A    between atoms: C_9  and  C_10
REMARK    4  A    between atoms: C_14  and  C_15
REMARK                            x       y       z     vdW  Elec       q    Type
REMARK                         _______ _______ _______ _____ _____    ______ ____
ROOT
ATOM      1  C   UNL     1      48.324   8.181  13.379  0.00  0.00    +0.000 C 
ATOM      2  C   UNL     1      49.356   9.042  12.657  0.00  0.00    +0.000 C 
ATOM      3  C   UNL     1      49.437   7.557  12.549  0.00  0.00    +0.000 C 
ENDROOT
BRANCH   1   8
ATOM      4  C   UNL     1      44.618   4.726  12.274  0.00  0.00    +0.000 A 
ATOM      5  C   UNL     1      45.993   4.581  12.407  0.00  0.00    +0.000 A 
ATOM      6  C   UNL     1      46.777   5.715  12.601  0.00  0.00    +0.000 A 
ATOM      7  C   UNL     1      46.196   6.978  12.677  0.00  0.00    +0.000 A 
ATOM      8  N   UNL     1      46.950   8.145  12.857  0.00  0.00    +0.000 N 
ATOM      9  N   UNL     1      44.861   7.133  12.553  0.00  0.00    +0.000 NA
ATOM     10  C   UNL     1      44.106   6.017  12.343  0.00  0.00    +0.000 A 
ATOM     11  H   UNL     1      46.327   8.934  12.982  0.00  0.00    +0.000 HD
BRANCH   4  13
ATOM     12  N   UNL     1      43.848   2.496  12.843  0.00  0.00    +0.000 N 
ATOM     13  C   UNL     1      43.733   3.581  12.018  0.00  0.00    +0.000 C 
ATOM     14  O   UNL     1      42.916   3.597  11.103  0.00  0.00    +0.000 OA
ATOM     15  H   UNL     1      43.212   1.721  12.680  0.00  0.00    +0.000 HD
ATOM     16  H   UNL     1      44.356   2.507  13.722  0.00  0.00    +0.000 HD
ENDBRANCH   4  13
ENDBRANCH   1   8
BRANCH   1  17
ATOM     17  C   UNL     1      48.454   8.038  14.897  0.00  0.00    +0.000 A 
ATOM     18  C   UNL     1      48.203   9.087  15.792  0.00  0.00    +0.000 A 
ATOM     19  C   UNL     1      48.234   8.876  17.178  0.00  0.00    +0.000 A 
ATOM     20  C   UNL     1      48.526   7.613  17.700  0.00  0.00    +0.000 A 
ATOM     21  C   UNL     1      48.798   6.549  16.840  0.00  0.00    +0.000 A 
ATOM     22  C   UNL     1      48.761   6.789  15.463  0.00  0.00    +0.000 A 
BRANCH  21  23
ATOM     23  C   UNL     1      49.062   5.145  17.348  0.00  0.00    +0.000 C 
ATOM     24  C   UNL     1      50.553   4.771  17.280  0.00  0.00    +0.000 C 
ATOM     25  C   UNL     1      50.753   3.312  17.669  0.00  0.00    +0.000 C 
ATOM     26  O   UNL     1      49.960   2.455  16.849  0.00  0.00    +0.000 OA
ATOM     27  C   UNL     1      48.563   2.703  17.004  0.00  0.00    +0.000 C 
ATOM     28  C   UNL     1      48.223   4.115  16.568  0.00  0.00    +0.000 C 
ENDBRANCH  21  23
ENDBRANCH   1  17
TORSDOF 4
ENDMDL
MODEL 6
REMARK VINA RESULT:    -6.120      4.177      8.397
REMARK INTER + INTRA:          -8.433
REMARK INTER:                  -7.492
REMARK INTRA:                  -0.941
REMARK UNBOUND:                -0.881
REMARK  Name = 
REMARK  4 active torsions:
REMARK  status: ('A' for Active; 'I' for Inactive)
REMARK    1  A    between atoms: C_2  and  C_4
REMARK    2  A    between atoms: N_8  and  C_9
REMARK    3  A    between atoms: C_9  and  C_10
REMARK    4  A    between atoms: C_14  and  C_15
REMARK                            x       y       z     vdW  Elec       q    Type
REMARK                         _______ _______ _______ _____ _____    ______ ____
ROOT
ATOM      1  C   UNL     1      49.321   7.900  12.583  0.00  0.00    +0.000 C 
ATOM      2  C   UNL     1      50.234   8.027  11.369  0.00  0.00    +0.000 C 
ATOM      3  C   UNL     1      50.143   9.157  12.338  0.00  0.00    +0.000 C 
ENDROOT
BRANCH   1   8
ATOM      4  C   UNL     1      48.727   7.400  17.711  0.00  0.00    +0.000 A 
ATOM      5  C   UNL     1      48.604   8.506  16.880  0.00  0.00    +0.000 A 
ATOM      6  C   UNL     1      48.933   8.380  15.534  0.00  0.00    +0.000 A 
ATOM      7  C   UNL     1      49.367   7.162  15.017  0.00  0.00    +0.000 A 
ATOM      8  N   UNL     1      49.722   6.996  13.672  0.00  0.00    +0.000 N 
ATOM      9  N   UNL     1      49.487   6.078  15.813  0.00  0.00    +0.000 NA
ATOM     10  C   UNL     1      49.181   6.220  17.134  0.00  0.00    +0.000 A 
ATOM     11  H   UNL     1      49.910   6.018  13.490  0.00  0.00    +0.000 HD
BRANCH   4  13
ATOM     12  N   UNL     1      47.394   6.736  19.628  0.00  0.00    +0.000 N 
ATOM     13  C   UNL     1      48.444   7.472  19.152  0.00  0.00    +0.000 C 
ATOM     14  O   UNL     1      49.127   8.161  19.904  0.00  0.00    +0.000 OA
ATOM     15  H   UNL     1      47.225   6.765  20.628  0.00  0.00    +0.000 HD
ATOM     16  H   UNL     1      46.929   6.007  19.096  0.00  0.00    +0.000 HD
ENDBRANCH   4  13
ENDBRANCH   1   8
BRANCH   1  17
ATOM     17  C   UNL     1      47.813   8.026  12.356  0.00  0.00    +0.000 A 
ATOM     18  C   UNL     1      47.133   9.252  12.380  0.00  0.00    +0.000 A 
ATOM     19  C   UNL     1      45.769   9.326  12.062  0.00  0.00    +0.000 A 
ATOM     20  C   UNL     1      45.052   8.175  11.724  0.00  0.00    +0.000 A 
ATOM     21  C   UNL     1      45.692   6.935  11.708  0.00  0.00    +0.000 A 
ATOM     22  C   UNL     1      47.052   6.891  12.030  0.00  0.00    +0.000 A 
BRANCH  21  23
ATOM     23  C   UNL     1      44.980   5.663  11.292  0.00  0.00    +0.000 C 
ATOM     24  C   UNL     1      45.229   4.506  12.276  0.00  0.00    +0.000 C 
ATOM     25  C   UNL     1      44.611   3.218  11.749  0.00  0.00    +0.000 C 
ATOM     26  O   UNL     1      45.107   2.913  10.446  0.00  0.00    +0.000 OA
ATOM     27  C   UNL     1      44.766   3.918   9.492  0.00  0.00    +0.000 C 
ATOM     28  C   UNL     1      45.397   5.244   9.869  0.00  0.00    +0.000 C 
ENDBRANCH  21  23
ENDBRANCH   1  17
TORSDOF 4
ENDMDL
