MODEL 1
REMARK VINA RESULT:    -8.221      0.000      0.000
REMARK INTER + INTRA:         -11.958
REMARK INTER:                 -11.105
REMARK INTRA:                  -0.853
REMARK UNBOUND:                -0.853
REMARK  Name = 
REMARK  7 active torsions:
REMARK  status: ('A' for Active; 'I' for Inactive)
REMARK    1  A    between atoms: C_1  and  C_2
REMARK    2  A    between atoms: C_2  and  N_3
REMARK    3  A    between atoms: C_2  and  C_16
REMARK    4  A    between atoms: C_4  and  C_6
REMARK    5  A    between atoms: C_19  and  O_20
REMARK    6  A    between atoms: O_20  and  C_21
REMARK    7  A    between atoms: C_21  and  C_22
REMARK                            x       y       z     vdW  Elec       q    Type
REMARK                         _______ _______ _______ _____ _____    ______ ____
ROOT
ATOM      1  C   UNL     1      42.968   5.026  13.218  0.00  0.00    +0.000 C 
ATOM      2  C   UNL     1      44.354   4.385  13.072  0.00  0.00    +0.000 C 
ENDROOT
BRANCH   2   3
ATOM      3  C   UNL     1      44.850   4.374  11.630  0.00  0.00    +0.000 A 
ATOM      4  C   UNL     1      44.690   3.212  10.866  0.00  0.00    +0.000 A 
ATOM      5  C   UNL     1      44.948   3.212   9.497  0.00  0.00    +0.000 A 
ATOM      6  C   UNL     1      45.431   4.356   8.862  0.00  0.00    +0.000 A 
ATOM      7  C   UNL     1      45.687   5.493   9.628  0.00  0.00    +0.000 A 
ATOM      8  C   UNL     1      45.402   5.502  11.003  0.00  0.00    +0.000 A 
BRANCH   6   9
ATOM      9  O   UNL     1      45.670   4.459   7.515  0.00  0.00    +0.000 OA
BRANCH   9  10
ATOM     10  C   UNL     1      46.982   4.048   7.105  0.00  0.00    +0.000 C 
BRANCH  10  11
ATOM     11  C   UNL     1      46.883   2.903   6.098  0.00  0.00    +0.000 C 
ATOM     12  C   UNL     1      46.046   1.748   6.612  0.00  0.00    +0.000 C 
ATOM     13  C   UNL     1      47.038   0.925   7.408  0.00  0.00    +0.000 C 
ATOM     14  O   UNL     1      48.342   1.197   6.876  0.00  0.00    +0.000 OA
ATOM     15  C   UNL     1      48.236   2.240   5.898  0.00  0.00    +0.000 C 
ENDBRANCH  10  11
ENDBRANCH   9  10
ENDBRANCH   6   9
ENDBRANCH   2   3
BRANCH   2  16
ATOM     16  N   UNL     1      45.338   4.987  13.958  0.00  0.00    +0.000 N 
ATOM     17  C   UNL     1      46.494   4.333  14.325  0.00  0.00    +0.000 C 
ATOM     18  O   UNL     1      46.750   3.195  13.957  0.00  0.00    +0.000 OA
ATOM     19  H   UNL     1      45.042   5.788  14.502  0.00  0.00    +0.000 HD
BRANCH  17  20
ATOM     20  C   UNL     1      47.464   5.092  15.131  0.00  0.00    +0.000 A 
ATOM     21  C   UNL     1      48.191   6.110  14.526  0.00  0.00    +0.000 A 
ATOM     22  S   UNL     1      49.281   6.893  15.576  0.00  0.00    +0.000 S 
ATOM     23  C   UNL     1      48.859   5.869  16.861  0.00  0.00    +0.000 A 
ATOM     24  N   UNL     1      49.464   5.997  18.077  0.00  0.00    +0.000 NA
ATOM     25  C   UNL     1      49.080   5.131  18.946  0.00  0.00    +0.000 A 
ATOM     26  N   UNL     1      48.137   4.157  18.725  0.00  0.00    +0.000 N 
ATOM     27  C   UNL     1      47.447   4.037  17.538  0.00  0.00    +0.000 A 
ATOM     28  O   UNL     1      46.545   3.220  17.392  0.00  0.00    +0.000 OA
ATOM     29  C   UNL     1      47.872   4.969  16.512  0.00  0.00    +0.000 A 
ATOM     30  H   UNL     1      47.874   3.522  19.465  0.00  0.00    +0.000 HD
ENDBRANCH  17  20
ENDBRANCH   2  16
TORSDOF 6
ENDMDL
MODEL 2
REMARK VINA RESULT:    -7.239      4.379      8.599
REMARK INTER + INTRA:         -10.631
REMARK INTER:                  -9.695
REMARK INTRA:                  -0.936
REMARK UNBOUND:                -0.853
REMARK  Name = 
REMARK  7 active torsions:
REMARK  status: ('A' for Active; 'I' for Inactive)
REMARK    1  A    between atoms: C_1  and  C_2
REMARK    2  A    between atoms: C_2  and  N_3
REMARK    3  A    between atoms: C_2  and  C_16
REMARK    4  A    between atoms: C_4  and  C_6
REMARK    5  A    between atoms: C_19  and  O_20
REMARK    6  A    between atoms: O_20  and  C_21
REMARK    7  A    between atoms: C_21  and  C_22
REMARK                            x       y       z     vdW  Elec       q    Type
REMARK                         _______ _______ _______ _____ _____    ______ ____
ROOT
ATOM      1  C   UNL     1      47.459   5.616  18.776  0.00  0.00    +0.000 C 
ATOM      2  C   UNL     1      48.375   5.534  17.548  0.00  0.00    +0.000 C 
ENDROOT
BRANCH   2   3
ATOM      3  C   UNL     1      49.250   4.285  17.547  0.00  0.00    +0.000 A 
ATOM      4  C   UNL     1      48.697   3.069  17.129  0.00  0.00    +0.000 A 
ATOM      5  C   UNL     1      49.499   1.948  16.926  0.00  0.00    +0.000 A 
ATOM      6  C   UNL     1      50.867   1.992  17.192  0.00  0.00    +0.000 A 
ATOM      7  C   UNL     1      51.416   3.169  17.702  0.00  0.00    +0.000 A 
ATOM      8  C   UNL     1      50.613   4.307  17.880  0.00  0.00    +0.000 A 
BRANCH   6   9
ATOM      9  O   UNL     1      51.737   0.953  16.981  0.00  0.00    +0.000 OA
BRANCH   9  10
ATOM     10  C   UNL     1      52.865   0.924  17.867  0.00  0.00    +0.000 C 
BRANCH  10  11
ATOM     11  C   UNL     1      54.164   0.868  17.063  0.00  0.00    +0.000 C 
ATOM     12  C   UNL     1      54.331  -0.441  16.319  0.00  0.00    +0.000 C 
ATOM     13  C   UNL     1      54.963  -1.351  17.352  0.00  0.00    +0.000 C 
ATOM     14  O   UNL     1      55.653  -0.517  18.292  0.00  0.00    +0.000 OA
ATOM     15  C   UNL     1      55.370   0.856  17.987  0.00  0.00    +0.000 C 
ENDBRANCH  10  11
ENDBRANCH   9  10
ENDBRANCH   6   9
ENDBRANCH   2   3
BRANCH   2  16
ATOM     16  N   UNL     1      47.639   5.658  16.300  0.00  0.00    +0.000 N 
ATOM     17  C   UNL     1      48.225   6.130  15.145  0.00  0.00    +0.000 C 
ATOM     18  O   UNL     1      49.388   6.506  15.105  0.00  0.00    +0.000 OA
ATOM     19  H   UNL     1      46.629   5.632  16.354  0.00  0.00    +0.000 HD
BRANCH  17  20
ATOM     20  C   UNL     1      47.408   6.098  13.921  0.00  0.00    +0.000 A 
ATOM     21  C   UNL     1      47.179   7.284  13.234  0.00  0.00    +0.000 A 
ATOM     22  S   UNL     1      46.210   7.096  11.845  0.00  0.00    +0.000 S 
ATOM     23  C   UNL     1      46.020   5.437  12.138  0.00  0.00    +0.000 A 
ATOM     24  N   UNL     1      45.258   4.668  11.307  0.00  0.00    +0.000 NA
ATOM     25  C   UNL     1      45.166   3.438  11.670  0.00  0.00    +0.000 A 
ATOM     26  N   UNL     1      45.773   2.895  12.776  0.00  0.00    +0.000 N 
ATOM     27  C   UNL     1      46.610   3.615  13.601  0.00  0.00    +0.000 A 
ATOM     28  O   UNL     1      47.214   3.089  14.529  0.00  0.00    +0.000 OA
ATOM     29  C   UNL     1      46.717   5.019  13.254  0.00  0.00    +0.000 A 
ATOM     30  H   UNL     1      45.668   1.913  12.987  0.00  0.00    +0.000 HD
ENDBRANCH  17  20
ENDBRANCH   2  16
TORSDOF 6
ENDMDL
MODEL 3
REMARK VINA RESULT:    -7.129      3.484      4.883
REMARK INTER + INTRA:         -10.482
REMARK INTER:                  -8.876
REMARK INTRA:                  -1.606
REMARK UNBOUND:                -0.853
REMARK  Name = 
REMARK  7 active torsions:
REMARK  status: ('A' for Active; 'I' for Inactive)
REMARK    1  A    between atoms: C_1  and  C_2
REMARK    2  A    between atoms: C_2  and  N_3
REMARK    3  A    between atoms: C_2  and  C_16
REMARK    4  A    between atoms: C_4  and  C_6
REMARK    5  A    between atoms: C_19  and  O_20
REMARK    6  A    between atoms: O_20  and  C_21
REMARK    7  A    between atoms: C_21  and  C_22
REMARK                            x       y       z     vdW  Elec       q    Type
REMARK                         _______ _______ _______ _____ _____    ______ ____
ROOT
ATOM      1  C   UNL     1      50.178   8.070  12.216  0.00  0.00    +0.000 C 
ATOM      2  C   UNL     1      49.007   8.124  13.205  0.00  0.00    +0.000 C 
ENDROOT
BRANCH   2   3
ATOM      3  C   UNL     1      47.661   7.845  12.544  0.00  0.00    +0.000 A 
ATOM      4  C   UNL     1      47.520   6.701  11.749  0.00  0.00    +0.000 A 
ATOM      5  C   UNL     1      46.269   6.301  11.283  0.00  0.00    +0.000 A 
ATOM      6  C   UNL     1      45.132   7.065  11.547  0.00  0.00    +0.000 A 
ATOM      7  C   UNL     1      45.273   8.259  12.256  0.00  0.00    +0.000 A 
ATOM      8  C   UNL     1      46.528   8.648  12.749  0.00  0.00    +0.000 A 
BRANCH   6   9
ATOM      9  O   UNL     1      43.858   6.726  11.168  0.00  0.00    +0.000 OA
BRANCH   9  10
ATOM     10  C   UNL     1      43.728   5.410  10.611  0.00  0.00    +0.000 C 
BRANCH  10  11
ATOM     11  C   UNL     1      42.825   4.552  11.498  0.00  0.00    +0.000 C 
ATOM     12  C   UNL     1      42.895   4.953  12.958  0.00  0.00    +0.000 C 
ATOM     13  C   UNL     1      44.090   4.181  13.475  0.00  0.00    +0.000 C 
ATOM     14  O   UNL     1      44.253   3.031  12.635  0.00  0.00    +0.000 OA
ATOM     15  C   UNL     1      43.323   3.117  11.547  0.00  0.00    +0.000 C 
ENDBRANCH  10  11
ENDBRANCH   9  10
ENDBRANCH   6   9
ENDBRANCH   2   3
BRANCH   2  16
ATOM     16  N   UNL     1      49.213   7.256  14.354  0.00  0.00    +0.000 N 
ATOM     17  C   UNL     1      48.844   7.626  15.630  0.00  0.00    +0.000 C 
ATOM     18  O   UNL     1      48.352   8.717  15.881  0.00  0.00    +0.000 OA
ATOM     19  H   UNL     1      49.861   6.486  14.242  0.00  0.00    +0.000 HD
BRANCH  17  20
ATOM     20  C   UNL     1      48.999   6.615  16.689  0.00  0.00    +0.000 A 
ATOM     21  C   UNL     1      49.832   6.891  17.766  0.00  0.00    +0.000 A 
ATOM     22  S   UNL     1      49.922   5.628  18.906  0.00  0.00    +0.000 S 
ATOM     23  C   UNL     1      48.894   4.648  17.979  0.00  0.00    +0.000 A 
ATOM     24  N   UNL     1      48.576   3.388  18.394  0.00  0.00    +0.000 NA
ATOM     25  C   UNL     1      47.823   2.743  17.576  0.00  0.00    +0.000 A 
ATOM     26  N   UNL     1      47.342   3.238  16.389  0.00  0.00    +0.000 N 
ATOM     27  C   UNL     1      47.576   4.528  15.965  0.00  0.00    +0.000 A 
ATOM     28  O   UNL     1      47.062   4.979  14.948  0.00  0.00    +0.000 OA
ATOM     29  C   UNL     1      48.453   5.286  16.836  0.00  0.00    +0.000 A 
ATOM     30  H   UNL     1      46.740   2.674  15.806  0.00  0.00    +0.000 HD
ENDBRANCH  17  20
ENDBRANCH   2  16
TORSDOF 6
ENDMDL
MODEL 4
REMARK VINA RESULT:    -7.008      1.939      2.973
REMARK INTER + INTRA:         -10.320
REMARK INTER:                  -9.598
REMARK INTRA:                  -0.722
REMARK UNBOUND:                -0.853
REMARK  Name = 
REMARK  7 active torsions:
REMARK  status: ('A' for Active; 'I' for Inactive)
REMARK    1  A    between atoms: C_1  and  C_2
REMARK    2  A    between atoms: C_2  and  N_3
REMARK    3  A    between atoms: C_2  and  C_16
REMARK    4  A    between atoms: C_4  and  C_6
REMARK    5  A    between atoms: C_19  and  O_20
REMARK    6  A    between atoms: O_20  and  C_21
REMARK    7  A    between atoms: C_21  and  C_22
REMARK                            x       y       z     vdW  Elec       q    Type
REMARK                         _______ _______ _______ _____ _____    ______ ____
ROOT
ATOM      1  C   UNL     1      47.803   8.839  12.412  0.00  0.00    +0.000 C 
ATOM      2  C   UNL     1      46.853   7.970  13.246  0.00  0.00    +0.000 C 
ENDROOT
BRANCH   2   3
ATOM      3  C   UNL     1      46.294   6.787  12.463  0.00  0.00    +0.000 A 
ATOM      4  C   UNL     1      45.519   5.833  13.134  0.00  0.00    +0.000 A 
ATOM      5  C   UNL     1      44.830   4.846  12.433  0.00  0.00    +0.000 A 
ATOM      6  C   UNL     1      44.942   4.746  11.047  0.00  0.00    +0.000 A 
ATOM      7  C   UNL     1      45.787   5.630  10.374  0.00  0.00    +0.000 A 
ATOM      8  C   UNL     1      46.460   6.641  11.077  0.00  0.00    +0.000 A 
BRANCH   6   9
ATOM      9  O   UNL     1      44.267   3.836  10.273  0.00  0.00    +0.000 OA
BRANCH   9  10
ATOM     10  C   UNL     1      44.985   2.623  10.009  0.00  0.00    +0.000 C 
BRANCH  10  11
ATOM     11  C   UNL     1      44.870   2.256   8.529  0.00  0.00    +0.000 C 
ATOM     12  C   UNL     1      46.161   1.695   7.969  0.00  0.00    +0.000 C 
ATOM     13  C   UNL     1      46.937   2.934   7.572  0.00  0.00    +0.000 C 
ATOM     14  O   UNL     1      45.983   3.974   7.323  0.00  0.00    +0.000 OA
ATOM     15  C   UNL     1      44.677   3.499   7.677  0.00  0.00    +0.000 C 
ENDBRANCH  10  11
ENDBRANCH   9  10
ENDBRANCH   6   9
ENDBRANCH   2   3
BRANCH   2  16
ATOM     16  N   UNL     1      47.457   7.531  14.494  0.00  0.00    +0.000 N 
ATOM     17  C   UNL     1      48.679   6.893  14.534  0.00  0.00    +0.000 C 
ATOM     18  O   UNL     1      49.314   6.626  13.524  0.00  0.00    +0.000 OA
ATOM     19  H   UNL     1      46.854   7.473  15.305  0.00  0.00    +0.000 HD
BRANCH  17  20
ATOM     20  C   UNL     1      49.237   6.604  15.866  0.00  0.00    +0.000 A 
ATOM     21  C   UNL     1      50.310   7.358  16.324  0.00  0.00    +0.000 A 
ATOM     22  S   UNL     1      50.857   6.905  17.872  0.00  0.00    +0.000 S 
ATOM     23  C   UNL     1      49.716   5.653  17.966  0.00  0.00    +0.000 A 
ATOM     24  N   UNL     1      49.666   4.840  19.060  0.00  0.00    +0.000 NA
ATOM     25  C   UNL     1      48.783   3.910  18.980  0.00  0.00    +0.000 A 
ATOM     26  N   UNL     1      47.931   3.719  17.919  0.00  0.00    +0.000 N 
ATOM     27  C   UNL     1      47.896   4.559  16.827  0.00  0.00    +0.000 A 
ATOM     28  O   UNL     1      47.066   4.426  15.934  0.00  0.00    +0.000 OA
ATOM     29  C   UNL     1      48.900   5.604  16.853  0.00  0.00    +0.000 A 
ATOM     30  H   UNL     1      47.250   2.974  17.937  0.00  0.00    +0.000 HD
ENDBRANCH  17  20
ENDBRANCH   2  16
TORSDOF 6
ENDMDL
MODEL 5
REMARK VINA RESULT:    -6.857      2.520      3.840
REMARK INTER + INTRA:         -10.115
REMARK INTER:                  -9.010
REMARK INTRA:                  -1.105
REMARK UNBOUND:                -0.853
REMARK  Name = 
REMARK  7 active torsions:
REMARK  status: ('A' for Active; 'I' for Inactive)
REMARK    1  A    between atoms: C_1  and  C_2
REMARK    2  A    between atoms: C_2  and  N_3
REMARK    3  A    between atoms: C_2  and  C_16
REMARK    4  A    between atoms: C_4  and  C_6
REMARK    5  A    between atoms: C_19  and  O_20
REMARK    6  A    between atoms: O_20  and  C_21
REMARK    7  A    between atoms: C_21  and  C_22
REMARK                            x       y       z     vdW  Elec       q    Type
REMARK                         _______ _______ _______ _____ _____    ______ ____
ROOT
ATOM      1  C   UNL     1      49.513   7.365  12.933  0.00  0.00    +0.000 C 
ATOM      2  C   UNL     1      48.149   7.501  13.621  0.00  0.00    +0.000 C 
ENDROOT
BRANCH   2   3
ATOM      3  C   UNL     1      47.069   6.648  12.964  0.00  0.00    +0.000 A 
ATOM      4  C   UNL     1      46.509   7.074  11.753  0.00  0.00    +0.000 A 
ATOM      5  C   UNL     1      45.666   6.243  11.020  0.00  0.00    +0.000 A 
ATOM      6  C   UNL     1      45.309   4.984  11.503  0.00  0.00    +0.000 A 
ATOM      7  C   UNL     1      45.781   4.584  12.754  0.00  0.00    +0.000 A 
ATOM      8  C   UNL     1      46.653   5.411  13.480  0.00  0.00    +0.000 A 
BRANCH   6   9
ATOM      9  O   UNL     1      44.522   4.084  10.830  0.00  0.00    +0.000 OA
BRANCH   9  10
ATOM     10  C   UNL     1      45.201   2.897  10.400  0.00  0.00    +0.000 C 
BRANCH  10  11
ATOM     11  C   UNL     1      44.773   2.532   8.979  0.00  0.00    +0.000 C 
ATOM     12  C   UNL     1      45.832   1.741   8.238  0.00  0.00    +0.000 C 
ATOM     13  C   UNL     1      46.731   2.816   7.662  0.00  0.00    +0.000 C 
ATOM     14  O   UNL     1      45.942   4.005   7.527  0.00  0.00    +0.000 OA
ATOM     15  C   UNL     1      44.654   3.776   8.114  0.00  0.00    +0.000 C 
ENDBRANCH  10  11
ENDBRANCH   9  10
ENDBRANCH   6   9
ENDBRANCH   2   3
BRANCH   2  16
ATOM     16  N   UNL     1      48.221   7.241  15.050  0.00  0.00    +0.000 N 
ATOM     17  C   UNL     1      48.620   8.204  15.952  0.00  0.00    +0.000 C 
ATOM     18  O   UNL     1      48.969   9.324  15.606  0.00  0.00    +0.000 OA
ATOM     19  H   UNL     1      48.220   6.273  15.345  0.00  0.00    +0.000 HD
BRANCH  17  20
ATOM     20  C   UNL     1      48.540   7.855  17.380  0.00  0.00    +0.000 A 
ATOM     21  C   UNL     1      47.930   8.744  18.257  0.00  0.00    +0.000 A 
ATOM     22  S   UNL     1      47.920   8.214  19.876  0.00  0.00    +0.000 S 
ATOM     23  C   UNL     1      48.774   6.805  19.474  0.00  0.00    +0.000 A 
ATOM     24  N   UNL     1      49.120   5.904  20.439  0.00  0.00    +0.000 NA
ATOM     25  C   UNL     1      49.800   4.905  20.002  0.00  0.00    +0.000 A 
ATOM     26  N   UNL     1      50.158   4.708  18.690  0.00  0.00    +0.000 N 
ATOM     27  C   UNL     1      49.769   5.551  17.673  0.00  0.00    +0.000 A 
ATOM     28  O   UNL     1      50.020   5.307  16.498  0.00  0.00    +0.000 OA
ATOM     29  C   UNL     1      49.029   6.715  18.120  0.00  0.00    +0.000 A 
ATOM     30  H   UNL     1      50.679   3.886  18.421  0.00  0.00    +0.000 HD
ENDBRANCH  17  20
ENDBRANCH   2  16
TORSDOF 6
ENDMDL
MODEL 6
REMARK VINA RESULT:    -6.596      2.382      3.643
REMARK INTER + INTRA:          -9.762
REMARK INTER:                  -8.928
REMARK INTRA:                  -0.834
REMARK UNBOUND:                -0.853
REMARK  Name = 
REMARK  7 active torsions:
REMARK  status: ('A' for Active; 'I' for Inactive)
REMARK    1  A    between atoms: C_1  and  C_2
REMARK    2  A    between atoms: C_2  and  N_3
REMARK    3  A    between atoms: C_2  and  C_16
REMARK    4  A    between atoms: C_4  and  C_6
REMARK    5  A    between atoms: C_19  and  O_20
REMARK    6  A    between atoms: O_20  and  C_21
REMARK    7  A    between atoms: C_21  and  C_22
REMARK                            x       y       z     vdW  Elec       q    Type
REMARK                         _______ _______ _______ _____ _____    ______ ____
ROOT
ATOM      1  C   UNL     1      48.833   7.820  12.958  0.00  0.00    +0.000 C 
ATOM      2  C   UNL     1      47.659   7.281  13.786  0.00  0.00    +0.000 C 
ENDROOT
BRANCH   2   3
ATOM      3  C   UNL     1      46.654   6.500  12.946  0.00  0.00    +0.000 A 
ATOM      4  C   UNL     1      46.654   6.669  11.556  0.00  0.00    +0.000 A 
ATOM      5  C   UNL     1      45.893   5.842  10.732  0.00  0.00    +0.000 A 
ATOM      6  C   UNL     1      45.063   4.862  11.277  0.00  0.00    +0.000 A 
ATOM      7  C   UNL     1      44.979   4.746  12.665  0.00  0.00    +0.000 A 
ATOM      8  C   UNL     1      45.766   5.561  13.494  0.00  0.00    +0.000 A 
BRANCH   6   9
ATOM      9  O   UNL     1      44.315   3.977  10.543  0.00  0.00    +0.000 OA
BRANCH   9  10
ATOM     10  C   UNL     1      44.964   2.729  10.264  0.00  0.00    +0.000 C 
BRANCH  10  11
ATOM     11  C   UNL     1      44.768   2.351   8.796  0.00  0.00    +0.000 C 
ATOM     12  C   UNL     1      46.029   1.794   8.167  0.00  0.00    +0.000 C 
ATOM     13  C   UNL     1      46.773   3.035   7.719  0.00  0.00    +0.000 C 
ATOM     14  O   UNL     1      45.800   4.068   7.519  0.00  0.00    +0.000 OA
ATOM     15  C   UNL     1      44.519   3.587   7.949  0.00  0.00    +0.000 C 
ENDBRANCH  10  11
ENDBRANCH   9  10
ENDBRANCH   6   9
ENDBRANCH   2   3
BRANCH   2  16
ATOM     16  N   UNL     1      48.102   6.501  14.930  0.00  0.00    +0.000 N 
ATOM     17  C   UNL     1      48.707   7.079  16.024  0.00  0.00    +0.000 C 
ATOM     18  O   UNL     1      48.940   8.278  16.089  0.00  0.00    +0.000 OA
ATOM     19  H   UNL     1      48.189   5.500  14.801  0.00  0.00    +0.000 HD
BRANCH  17  20
ATOM     20  C   UNL     1      49.003   6.199  17.167  0.00  0.00    +0.000 A 
ATOM     21  C   UNL     1      49.844   5.109  16.976  0.00  0.00    +0.000 A 
ATOM     22  S   UNL     1      50.087   4.175  18.380  0.00  0.00    +0.000 S 
ATOM     23  C   UNL     1      49.040   5.161  19.280  0.00  0.00    +0.000 A 
ATOM     24  N   UNL     1      48.783   4.885  20.591  0.00  0.00    +0.000 NA
ATOM     25  C   UNL     1      47.942   5.688  21.139  0.00  0.00    +0.000 A 
ATOM     26  N   UNL     1      47.340   6.750  20.509  0.00  0.00    +0.000 N 
ATOM     27  C   UNL     1      47.625   7.110  19.210  0.00  0.00    +0.000 A 
ATOM     28  O   UNL     1      47.147   8.116  18.697  0.00  0.00    +0.000 OA
ATOM     29  C   UNL     1      48.542   6.212  18.536  0.00  0.00    +0.000 A 
ATOM     30  H   UNL     1      46.701   7.347  21.013  0.00  0.00    +0.000 HD
ENDBRANCH  17  20
ENDBRANCH   2  16
TORSDOF 6
ENDMDL
MODEL 7
REMARK VINA RESULT:    -6.594      3.369      6.200
REMARK INTER + INTRA:          -9.761
REMARK INTER:                  -8.651
REMARK INTRA:                  -1.110
REMARK UNBOUND:                -0.853
REMARK  Name = 
REMARK  7 active torsions:
REMARK  status: ('A' for Active; 'I' for Inactive)
REMARK    1  A    between atoms: C_1  and  C_2
REMARK    2  A    between atoms: C_2  and  N_3
REMARK    3  A    between atoms: C_2  and  C_16
REMARK    4  A    between atoms: C_4  and  C_6
REMARK    5  A    between atoms: C_19  and  O_20
REMARK    6  A    between atoms: O_20  and  C_21
REMARK    7  A    between atoms: C_21  and  C_22
REMARK                            x       y       z     vdW  Elec       q    Type
REMARK                         _______ _______ _______ _____ _____    ______ ____
ROOT
ATOM      1  C   UNL     1      50.281   7.999  16.194  0.00  0.00    +0.000 C 
ATOM      2  C   UNL     1      49.720   6.731  16.851  0.00  0.00    +0.000 C 
ENDROOT
BRANCH   2   3
ATOM      3  C   UNL     1      48.631   6.065  16.016  0.00  0.00    +0.000 A 
ATOM      4  C   UNL     1      48.358   6.562  14.736  0.00  0.00    +0.000 A 
ATOM      5  C   UNL     1      47.516   5.876  13.864  0.00  0.00    +0.000 A 
ATOM      6  C   UNL     1      46.874   4.705  14.266  0.00  0.00    +0.000 A 
ATOM      7  C   UNL     1      47.061   4.249  15.572  0.00  0.00    +0.000 A 
ATOM      8  C   UNL     1      47.931   4.926  16.441  0.00  0.00    +0.000 A 
BRANCH   6   9
ATOM      9  O   UNL     1      46.065   3.943  13.462  0.00  0.00    +0.000 OA
BRANCH   9  10
ATOM     10  C   UNL     1      44.928   4.634  12.927  0.00  0.00    +0.000 C 
BRANCH  10  11
ATOM     11  C   UNL     1      44.084   3.680  12.082  0.00  0.00    +0.000 C 
ATOM     12  C   UNL     1      44.819   3.191  10.850  0.00  0.00    +0.000 C 
ATOM     13  C   UNL     1      44.557   4.281   9.831  0.00  0.00    +0.000 C 
ATOM     14  O   UNL     1      43.336   4.932  10.205  0.00  0.00    +0.000 OA
ATOM     15  C   UNL     1      42.899   4.408  11.467  0.00  0.00    +0.000 C 
ENDBRANCH  10  11
ENDBRANCH   9  10
ENDBRANCH   6   9
ENDBRANCH   2   3
BRANCH   2  16
ATOM     16  N   UNL     1      50.764   5.781  17.201  0.00  0.00    +0.000 N 
ATOM     17  C   UNL     1      51.026   5.425  18.506  0.00  0.00    +0.000 C 
ATOM     18  O   UNL     1      50.422   5.908  19.453  0.00  0.00    +0.000 OA
ATOM     19  H   UNL     1      51.462   5.580  16.495  0.00  0.00    +0.000 HD
BRANCH  17  20
ATOM     20  C   UNL     1      52.028   4.367  18.721  0.00  0.00    +0.000 A 
ATOM     21  C   UNL     1      53.168   4.661  19.461  0.00  0.00    +0.000 A 
ATOM     22  S   UNL     1      54.241   3.348  19.619  0.00  0.00    +0.000 S 
ATOM     23  C   UNL     1      53.251   2.356  18.664  0.00  0.00    +0.000 A 
ATOM     24  N   UNL     1      53.618   1.073  18.382  0.00  0.00    +0.000 NA
ATOM     25  C   UNL     1      52.796   0.450  17.616  0.00  0.00    +0.000 A 
ATOM     26  N   UNL     1      51.632   0.977  17.113  0.00  0.00    +0.000 N 
ATOM     27  C   UNL     1      51.184   2.241  17.429  0.00  0.00    +0.000 A 
ATOM     28  O   UNL     1      50.098   2.659  17.044  0.00  0.00    +0.000 OA
ATOM     29  C   UNL     1      52.096   2.999  18.263  0.00  0.00    +0.000 A 
ATOM     30  H   UNL     1      51.027   0.417  16.529  0.00  0.00    +0.000 HD
ENDBRANCH  17  20
ENDBRANCH   2  16
TORSDOF 6
ENDMDL
MODEL 8
REMARK VINA RESULT:    -6.305      4.438      9.193
REMARK INTER + INTRA:          -9.370
REMARK INTER:                  -8.997
REMARK INTRA:                  -0.373
REMARK UNBOUND:                -0.853
REMARK  Name = 
REMARK  7 active torsions:
REMARK  status: ('A' for Active; 'I' for Inactive)
REMARK    1  A    between atoms: C_1  and  C_2
REMARK    2  A    between atoms: C_2  and  N_3
REMARK    3  A    between atoms: C_2  and  C_16
REMARK    4  A    between atoms: C_4  and  C_6
REMARK    5  A    between atoms: C_19  and  O_20
REMARK    6  A    between atoms: O_20  and  C_21
REMARK    7  A    between atoms: C_21  and  C_22
REMARK                            x       y       z     vdW  Elec       q    Type
REMARK                         _______ _______ _______ _____ _____    ______ ____
ROOT
ATOM      1  C   UNL     1      46.775   3.022  17.389  0.00  0.00    +0.000 C 
ATOM      2  C   UNL     1      47.785   4.169  17.261  0.00  0.00    +0.000 C 
ENDROOT
BRANCH   2   3
ATOM      3  C   UNL     1      49.232   3.688  17.292  0.00  0.00    +0.000 A 
ATOM      4  C   UNL     1      50.252   4.617  17.534  0.00  0.00    +0.000 A 
ATOM      5  C   UNL     1      51.562   4.201  17.763  0.00  0.00    +0.000 A 
ATOM      6  C   UNL     1      51.903   2.851  17.697  0.00  0.00    +0.000 A 
ATOM      7  C   UNL     1      50.917   1.922  17.361  0.00  0.00    +0.000 A 
ATOM      8  C   UNL     1      49.592   2.338  17.157  0.00  0.00    +0.000 A 
BRANCH   6   9
ATOM      9  O   UNL     1      53.154   2.349  17.951  0.00  0.00    +0.000 OA
BRANCH   9  10
ATOM     10  C   UNL     1      53.241   0.917  17.939  0.00  0.00    +0.000 C 
BRANCH  10  11
ATOM     11  C   UNL     1      54.702   0.478  18.017  0.00  0.00    +0.000 C 
ATOM     12  C   UNL     1      54.868  -1.020  17.859  0.00  0.00    +0.000 C 
ATOM     13  C   UNL     1      54.664  -1.544  19.266  0.00  0.00    +0.000 C 
ATOM     14  O   UNL     1      54.999  -0.484  20.169  0.00  0.00    +0.000 OA
ATOM     15  C   UNL     1      55.261   0.706  19.412  0.00  0.00    +0.000 C 
ENDBRANCH  10  11
ENDBRANCH   9  10
ENDBRANCH   6   9
ENDBRANCH   2   3
BRANCH   2  16
ATOM     16  N   UNL     1      47.536   4.998  16.092  0.00  0.00    +0.000 N 
ATOM     17  C   UNL     1      47.395   4.463  14.829  0.00  0.00    +0.000 C 
ATOM     18  O   UNL     1      47.504   3.266  14.606  0.00  0.00    +0.000 OA
ATOM     19  H   UNL     1      47.720   5.989  16.180  0.00  0.00    +0.000 HD
BRANCH  17  20
ATOM     20  C   UNL     1      47.029   5.394  13.747  0.00  0.00    +0.000 A 
ATOM     21  C   UNL     1      47.918   6.403  13.399  0.00  0.00    +0.000 A 
ATOM     22  S   UNL     1      47.359   7.407  12.142  0.00  0.00    +0.000 S 
ATOM     23  C   UNL     1      45.890   6.564  12.052  0.00  0.00    +0.000 A 
ATOM     24  N   UNL     1      44.924   6.945  11.167  0.00  0.00    +0.000 NA
ATOM     25  C   UNL     1      43.848   6.246  11.234  0.00  0.00    +0.000 A 
ATOM     26  N   UNL     1      43.645   5.191  12.091  0.00  0.00    +0.000 N 
ATOM     27  C   UNL     1      44.616   4.725  12.950  0.00  0.00    +0.000 A 
ATOM     28  O   UNL     1      44.447   3.726  13.639  0.00  0.00    +0.000 OA
ATOM     29  C   UNL     1      45.839   5.506  12.937  0.00  0.00    +0.000 A 
ATOM     30  H   UNL     1      42.775   4.678  12.073  0.00  0.00    +0.000 HD
ENDBRANCH  17  20
ENDBRANCH   2  16
TORSDOF 6
ENDMDL
MODEL 9
REMARK VINA RESULT:    -6.099      4.949      7.490
REMARK INTER + INTRA:          -9.091
REMARK INTER:                  -7.945
REMARK INTRA:                  -1.146
REMARK UNBOUND:                -0.853
REMARK  Name = 
REMARK  7 active torsions:
REMARK  status: ('A' for Active; 'I' for Inactive)
REMARK    1  A    between atoms: C_1  and  C_2
REMARK    2  A    between atoms: C_2  and  N_3
REMARK    3  A    between atoms: C_2  and  C_16
REMARK    4  A    between atoms: C_4  and  C_6
REMARK    5  A    between atoms: C_19  and  O_20
REMARK    6  A    between atoms: O_20  and  C_21
REMARK    7  A    between atoms: C_21  and  C_22
REMARK                            x       y       z     vdW  Elec       q    Type
REMARK                         _______ _______ _______ _____ _____    ______ ____
ROOT
ATOM      1  C   UNL     1      47.293   8.890  14.101  0.00  0.00    +0.000 C 
ATOM      2  C   UNL     1      47.164   8.479  12.628  0.00  0.00    +0.000 C 
ENDROOT
BRANCH   2   3
ATOM      3  C   UNL     1      48.503   8.463  11.900  0.00  0.00    +0.000 A 
ATOM      4  C   UNL     1      49.080   9.678  11.511  0.00  0.00    +0.000 A 
ATOM      5  C   UNL     1      50.382   9.730  11.020  0.00  0.00    +0.000 A 
ATOM      6  C   UNL     1      51.125   8.563  10.845  0.00  0.00    +0.000 A 
ATOM      7  C   UNL     1      50.530   7.336  11.136  0.00  0.00    +0.000 A 
ATOM      8  C   UNL     1      49.227   7.285  11.657  0.00  0.00    +0.000 A 
BRANCH   6   9
ATOM      9  O   UNL     1      52.426   8.524  10.409  0.00  0.00    +0.000 OA
BRANCH   9  10
ATOM     10  C   UNL     1      52.859   7.245   9.927  0.00  0.00    +0.000 C 
BRANCH  10  11
ATOM     11  C   UNL     1      53.849   7.425   8.776  0.00  0.00    +0.000 C 
ATOM     12  C   UNL     1      53.482   8.583   7.870  0.00  0.00    +0.000 C 
ATOM     13  C   UNL     1      52.503   7.965   6.894  0.00  0.00    +0.000 C 
ATOM     14  O   UNL     1      52.785   6.561   6.835  0.00  0.00    +0.000 OA
ATOM     15  C   UNL     1      53.783   6.248   7.817  0.00  0.00    +0.000 C 
ENDBRANCH  10  11
ENDBRANCH   9  10
ENDBRANCH   6   9
ENDBRANCH   2   3
BRANCH   2  16
ATOM     16  N   UNL     1      46.466   7.213  12.467  0.00  0.00    +0.000 N 
ATOM     17  C   UNL     1      45.289   7.107  11.758  0.00  0.00    +0.000 C 
ATOM     18  O   UNL     1      44.741   8.074  11.248  0.00  0.00    +0.000 OA
ATOM     19  H   UNL     1      46.721   6.461  13.095  0.00  0.00    +0.000 HD
BRANCH  17  20
ATOM     20  C   UNL     1      44.743   5.753  11.568  0.00  0.00    +0.000 A 
ATOM     21  C   UNL     1      43.957   5.199  12.570  0.00  0.00    +0.000 A 
ATOM     22  S   UNL     1      43.404   3.626  12.219  0.00  0.00    +0.000 S 
ATOM     23  C   UNL     1      44.236   3.608  10.741  0.00  0.00    +0.000 A 
ATOM     24  N   UNL     1      44.197   2.507   9.936  0.00  0.00    +0.000 NA
ATOM     25  C   UNL     1      44.904   2.615   8.869  0.00  0.00    +0.000 A 
ATOM     26  N   UNL     1      45.638   3.721   8.516  0.00  0.00    +0.000 N 
ATOM     27  C   UNL     1      45.648   4.881   9.260  0.00  0.00    +0.000 A 
ATOM     28  O   UNL     1      46.234   5.889   8.881  0.00  0.00    +0.000 OA
ATOM     29  C   UNL     1      44.893   4.797  10.495  0.00  0.00    +0.000 A 
ATOM     30  H   UNL     1      46.156   3.737   7.650  0.00  0.00    +0.000 HD
ENDBRANCH  17  20
ENDBRANCH   2  16
TORSDOF 6
ENDMDL
