MODEL 1
REMARK VINA RESULT:    -8.035      0.000      0.000
REMARK INTER + INTRA:         -12.538
REMARK INTER:                 -11.793
REMARK INTRA:                  -0.746
REMARK UNBOUND:                -0.746
REMARK  Name = 
REMARK  9 active torsions:
REMARK  status: ('A' for Active; 'I' for Inactive)
REMARK    1  A    between atoms: C_1  and  C_2
REMARK    2  A    between atoms: C_2  and  N_3
REMARK    3  A    between atoms: C_2  and  C_19
REMARK    4  A    between atoms: N_3  and  C_4
REMARK    5  A    between atoms: C_4  and  C_5
REMARK    6  A    between atoms: C_8  and  C_9
REMARK    7  A    between atoms: C_9  and  N_10
REMARK    8  A    between atoms: N_10  and  C_11
REMARK    9  A    between atoms: C_11  and  C_12
REMARK                            x       y       z     vdW  Elec       q    Type
REMARK                         _______ _______ _______ _____ _____    ______ ____
ROOT
ATOM      1  C   UNL     1      47.820   5.616  14.555  0.00  0.00    +0.000 C 
ENDROOT
BRANCH   1   2
ATOM      2  C   UNL     1      46.696   4.976  13.774  0.00  0.00    +0.000 A 
ATOM      3  C   UNL     1      45.624   5.733  13.292  0.00  0.00    +0.000 A 
ATOM      4  C   UNL     1      44.604   5.121  12.565  0.00  0.00    +0.000 A 
ATOM      5  C   UNL     1      44.675   3.751  12.329  0.00  0.00    +0.000 A 
ATOM      6  N   UNL     1      45.686   2.984  12.812  0.00  0.00    +0.000 NA
ATOM      7  C   UNL     1      46.661   3.609  13.516  0.00  0.00    +0.000 A 
BRANCH   5   8
ATOM      8  C   UNL     1      43.591   3.061  11.521  0.00  0.00    +0.000 C 
BRANCH   8   9
ATOM      9  N   UNL     1      44.055   2.482  10.251  0.00  0.00    +0.000 NA
ATOM     10  H   UNL     1      43.246   2.016   9.832  0.00  0.00    +0.000 HD
BRANCH   9  11
ATOM     11  C   UNL     1      44.496   3.511   9.314  0.00  0.00    +0.000 C 
BRANCH  11  12
ATOM     12  C   UNL     1      45.506   2.917   8.396  0.00  0.00    +0.000 A 
ATOM     13  C   UNL     1      46.185   3.458   7.321  0.00  0.00    +0.000 A 
ATOM     14  C   UNL     1      47.019   2.446   6.789  0.00  0.00    +0.000 A 
ATOM     15  C   UNL     1      46.831   1.316   7.553  0.00  0.00    +0.000 A 
ATOM     16  N   UNL     1      45.910   1.610   8.523  0.00  0.00    +0.000 N 
ATOM     17  H   UNL     1      45.539   0.965   9.208  0.00  0.00    +0.000 HD
ENDBRANCH  11  12
ENDBRANCH   9  11
ENDBRANCH   8   9
ENDBRANCH   5   8
ENDBRANCH   1   2
BRANCH   1  18
ATOM     18  N   UNL     1      47.656   5.437  15.998  0.00  0.00    +0.000 NA
ATOM     19  H   UNL     1      48.152   6.183  16.482  0.00  0.00    +0.000 HD
BRANCH  18  21
ATOM     20  C   UNL     1      47.105   3.386  17.324  0.00  0.00    +0.000 C 
ATOM     21  C   UNL     1      48.163   4.151  16.516  0.00  0.00    +0.000 C 
BRANCH  21  22
ATOM     22  C   UNL     1      49.356   4.496  17.397  0.00  0.00    +0.000 A 
ATOM     23  C   UNL     1      49.493   5.721  18.040  0.00  0.00    +0.000 A 
ATOM     24  S   UNL     1      50.949   5.883  18.905  0.00  0.00    +0.000 S 
ATOM     25  C   UNL     1      51.452   4.317  18.464  0.00  0.00    +0.000 A 
ATOM     26  N   UNL     1      52.661   3.843  18.862  0.00  0.00    +0.000 NA
ATOM     27  C   UNL     1      52.914   2.638  18.461  0.00  0.00    +0.000 A 
ATOM     28  N   UNL     1      52.060   1.868  17.717  0.00  0.00    +0.000 N 
ATOM     29  C   UNL     1      50.810   2.293  17.318  0.00  0.00    +0.000 A 
ATOM     30  O   UNL     1      50.040   1.555  16.718  0.00  0.00    +0.000 OA
ATOM     31  C   UNL     1      50.499   3.666  17.699  0.00  0.00    +0.000 A 
ATOM     32  H   UNL     1      52.310   0.921  17.471  0.00  0.00    +0.000 HD
ENDBRANCH  21  22
ENDBRANCH  18  21
ENDBRANCH   1  18
TORSDOF 8
ENDMDL
MODEL 2
REMARK VINA RESULT:    -7.617      1.434      1.721
REMARK INTER + INTRA:         -11.925
REMARK INTER:                 -11.004
REMARK INTRA:                  -0.921
REMARK UNBOUND:                -0.746
REMARK  Name = 
REMARK  9 active torsions:
REMARK  status: ('A' for Active; 'I' for Inactive)
REMARK    1  A    between atoms: C_1  and  C_2
REMARK    2  A    between atoms: C_2  and  N_3
REMARK    3  A    between atoms: C_2  and  C_19
REMARK    4  A    between atoms: N_3  and  C_4
REMARK    5  A    between atoms: C_4  and  C_5
REMARK    6  A    between atoms: C_8  and  C_9
REMARK    7  A    between atoms: C_9  and  N_10
REMARK    8  A    between atoms: N_10  and  C_11
REMARK    9  A    between atoms: C_11  and  C_12
REMARK                            x       y       z     vdW  Elec       q    Type
REMARK                         _______ _______ _______ _____ _____    ______ ____
ROOT
ATOM      1  C   UNL     1      48.169   6.176  14.459  0.00  0.00    +0.000 C 
ENDROOT
BRANCH   1   2
ATOM      2  C   UNL     1      47.021   5.857  13.530  0.00  0.00    +0.000 A 
ATOM      3  C   UNL     1      46.093   4.858  13.839  0.00  0.00    +0.000 A 
ATOM      4  C   UNL     1      45.037   4.589  12.970  0.00  0.00    +0.000 A 
ATOM      5  C   UNL     1      44.925   5.332  11.798  0.00  0.00    +0.000 A 
ATOM      6  N   UNL     1      45.828   6.285  11.455  0.00  0.00    +0.000 NA
ATOM      7  C   UNL     1      46.844   6.521  12.321  0.00  0.00    +0.000 A 
BRANCH   5   8
ATOM      8  C   UNL     1      43.772   5.078  10.844  0.00  0.00    +0.000 C 
BRANCH   8   9
ATOM      9  N   UNL     1      44.169   4.511   9.547  0.00  0.00    +0.000 NA
ATOM     10  H   UNL     1      45.006   5.021   9.252  0.00  0.00    +0.000 HD
BRANCH   9  11
ATOM     11  C   UNL     1      44.537   3.103   9.659  0.00  0.00    +0.000 C 
BRANCH  11  12
ATOM     12  C   UNL     1      45.532   2.786   8.599  0.00  0.00    +0.000 A 
ATOM     13  C   UNL     1      46.100   3.577   7.620  0.00  0.00    +0.000 A 
ATOM     14  C   UNL     1      46.976   2.762   6.864  0.00  0.00    +0.000 A 
ATOM     15  C   UNL     1      46.922   1.495   7.402  0.00  0.00    +0.000 A 
ATOM     16  N   UNL     1      46.042   1.518   8.451  0.00  0.00    +0.000 N 
ATOM     17  H   UNL     1      45.765   0.725   9.014  0.00  0.00    +0.000 HD
ENDBRANCH  11  12
ENDBRANCH   9  11
ENDBRANCH   8   9
ENDBRANCH   5   8
ENDBRANCH   1   2
BRANCH   1  18
ATOM     18  N   UNL     1      48.333   5.159  15.499  0.00  0.00    +0.000 NA
ATOM     19  H   UNL     1      47.487   4.593  15.544  0.00  0.00    +0.000 HD
BRANCH  18  21
ATOM     20  C   UNL     1      48.590   7.235  16.875  0.00  0.00    +0.000 C 
ATOM     21  C   UNL     1      48.585   5.700  16.849  0.00  0.00    +0.000 C 
BRANCH  21  22
ATOM     22  C   UNL     1      49.946   5.159  17.268  0.00  0.00    +0.000 A 
ATOM     23  C   UNL     1      51.005   5.980  17.639  0.00  0.00    +0.000 A 
ATOM     24  S   UNL     1      52.438   5.133  17.994  0.00  0.00    +0.000 S 
ATOM     25  C   UNL     1      51.698   3.633  17.676  0.00  0.00    +0.000 A 
ATOM     26  N   UNL     1      52.410   2.479  17.766  0.00  0.00    +0.000 NA
ATOM     27  C   UNL     1      51.723   1.413  17.503  0.00  0.00    +0.000 A 
ATOM     28  N   UNL     1      50.392   1.403  17.178  0.00  0.00    +0.000 N 
ATOM     29  C   UNL     1      49.621   2.543  17.108  0.00  0.00    +0.000 A 
ATOM     30  O   UNL     1      48.418   2.495  16.889  0.00  0.00    +0.000 OA
ATOM     31  C   UNL     1      50.362   3.778  17.343  0.00  0.00    +0.000 A 
ATOM     32  H   UNL     1      49.913   0.527  17.022  0.00  0.00    +0.000 HD
ENDBRANCH  21  22
ENDBRANCH  18  21
ENDBRANCH   1  18
TORSDOF 8
ENDMDL
MODEL 3
REMARK VINA RESULT:    -7.501      3.165      8.835
REMARK INTER + INTRA:         -11.754
REMARK INTER:                 -10.916
REMARK INTRA:                  -0.839
REMARK UNBOUND:                -0.746
REMARK  Name = 
REMARK  9 active torsions:
REMARK  status: ('A' for Active; 'I' for Inactive)
REMARK    1  A    between atoms: C_1  and  C_2
REMARK    2  A    between atoms: C_2  and  N_3
REMARK    3  A    between atoms: C_2  and  C_19
REMARK    4  A    between atoms: N_3  and  C_4
REMARK    5  A    between atoms: C_4  and  C_5
REMARK    6  A    between atoms: C_8  and  C_9
REMARK    7  A    between atoms: C_9  and  N_10
REMARK    8  A    between atoms: N_10  and  C_11
REMARK    9  A    between atoms: C_11  and  C_12
REMARK                            x       y       z     vdW  Elec       q    Type
REMARK                         _______ _______ _______ _____ _____    ______ ____
ROOT
ATOM      1  C   UNL     1      47.762   7.067  13.284  0.00  0.00    +0.000 C 
ENDROOT
BRANCH   1   2
ATOM      2  C   UNL     1      47.814   6.101  14.444  0.00  0.00    +0.000 A 
ATOM      3  C   UNL     1      48.570   6.378  15.587  0.00  0.00    +0.000 A 
ATOM      4  C   UNL     1      48.593   5.475  16.648  0.00  0.00    +0.000 A 
ATOM      5  C   UNL     1      47.854   4.300  16.548  0.00  0.00    +0.000 A 
ATOM      6  N   UNL     1      47.137   3.988  15.439  0.00  0.00    +0.000 NA
ATOM      7  C   UNL     1      47.136   4.886  14.424  0.00  0.00    +0.000 A 
BRANCH   5   8
ATOM      8  C   UNL     1      47.841   3.309  17.697  0.00  0.00    +0.000 C 
BRANCH   8   9
ATOM      9  N   UNL     1      49.172   2.838  18.109  0.00  0.00    +0.000 NA
ATOM     10  H   UNL     1      49.017   2.116  18.818  0.00  0.00    +0.000 HD
BRANCH   9  11
ATOM     11  C   UNL     1      49.892   2.212  17.005  0.00  0.00    +0.000 C 
BRANCH  11  12
ATOM     12  C   UNL     1      51.281   1.917  17.450  0.00  0.00    +0.000 A 
ATOM     13  C   UNL     1      52.300   2.754  17.863  0.00  0.00    +0.000 A 
ATOM     14  C   UNL     1      53.425   1.946  18.157  0.00  0.00    +0.000 A 
ATOM     15  C   UNL     1      53.065   0.639  17.918  0.00  0.00    +0.000 A 
ATOM     16  N   UNL     1      51.765   0.631  17.487  0.00  0.00    +0.000 N 
ATOM     17  H   UNL     1      51.238  -0.182  17.195  0.00  0.00    +0.000 HD
ENDBRANCH  11  12
ENDBRANCH   9  11
ENDBRANCH   8   9
ENDBRANCH   5   8
ENDBRANCH   1   2
BRANCH   1  18
ATOM     18  N   UNL     1      47.304   6.423  12.053  0.00  0.00    +0.000 NA
ATOM     19  H   UNL     1      47.983   6.600  11.314  0.00  0.00    +0.000 HD
BRANCH  18  21
ATOM     20  C   UNL     1      45.377   7.963  12.483  0.00  0.00    +0.000 C 
ATOM     21  C   UNL     1      45.987   6.886  11.574  0.00  0.00    +0.000 C 
BRANCH  21  22
ATOM     22  C   UNL     1      45.096   5.652  11.543  0.00  0.00    +0.000 A 
ATOM     23  C   UNL     1      44.260   5.295  12.595  0.00  0.00    +0.000 A 
ATOM     24  S   UNL     1      43.423   3.835  12.342  0.00  0.00    +0.000 S 
ATOM     25  C   UNL     1      44.135   3.625  10.810  0.00  0.00    +0.000 A 
ATOM     26  N   UNL     1      43.859   2.524  10.065  0.00  0.00    +0.000 NA
ATOM     27  C   UNL     1      44.465   2.494   8.921  0.00  0.00    +0.000 A 
ATOM     28  N   UNL     1      45.303   3.472   8.456  0.00  0.00    +0.000 N 
ATOM     29  C   UNL     1      45.587   4.623   9.161  0.00  0.00    +0.000 A 
ATOM     30  O   UNL     1      46.280   5.514   8.687  0.00  0.00    +0.000 OA
ATOM     31  C   UNL     1      44.971   4.679  10.482  0.00  0.00    +0.000 A 
ATOM     32  H   UNL     1      45.712   3.399   7.535  0.00  0.00    +0.000 HD
ENDBRANCH  21  22
ENDBRANCH  18  21
ENDBRANCH   1  18
TORSDOF 8
ENDMDL
MODEL 4
REMARK VINA RESULT:    -7.266      2.282      3.114
REMARK INTER + INTRA:         -11.410
REMARK INTER:                 -10.521
REMARK INTRA:                  -0.889
REMARK UNBOUND:                -0.746
REMARK  Name = 
REMARK  9 active torsions:
REMARK  status: ('A' for Active; 'I' for Inactive)
REMARK    1  A    between atoms: C_1  and  C_2
REMARK    2  A    between atoms: C_2  and  N_3
REMARK    3  A    between atoms: C_2  and  C_19
REMARK    4  A    between atoms: N_3  and  C_4
REMARK    5  A    between atoms: C_4  and  C_5
REMARK    6  A    between atoms: C_8  and  C_9
REMARK    7  A    between atoms: C_9  and  N_10
REMARK    8  A    between atoms: N_10  and  C_11
REMARK    9  A    between atoms: C_11  and  C_12
REMARK                            x       y       z     vdW  Elec       q    Type
REMARK                         _______ _______ _______ _____ _____    ______ ____
ROOT
ATOM      1  C   UNL     1      48.416   6.699  13.473  0.00  0.00    +0.000 C 
ENDROOT
BRANCH   1   2
ATOM      2  C   UNL     1      47.001   6.195  13.314  0.00  0.00    +0.000 A 
ATOM      3  C   UNL     1      46.029   6.954  12.657  0.00  0.00    +0.000 A 
ATOM      4  C   UNL     1      44.732   6.462  12.514  0.00  0.00    +0.000 A 
ATOM      5  C   UNL     1      44.428   5.207  13.034  0.00  0.00    +0.000 A 
ATOM      6  N   UNL     1      45.342   4.461  13.706  0.00  0.00    +0.000 NA
ATOM      7  C   UNL     1      46.592   4.968  13.828  0.00  0.00    +0.000 A 
BRANCH   5   8
ATOM      8  C   UNL     1      43.032   4.634  12.873  0.00  0.00    +0.000 C 
BRANCH   8   9
ATOM      9  N   UNL     1      42.736   4.121  11.527  0.00  0.00    +0.000 NA
ATOM     10  H   UNL     1      43.052   4.838  10.868  0.00  0.00    +0.000 HD
BRANCH   9  11
ATOM     11  C   UNL     1      43.484   2.903  11.234  0.00  0.00    +0.000 C 
BRANCH  11  12
ATOM     12  C   UNL     1      44.261   3.112   9.982  0.00  0.00    +0.000 A 
ATOM     13  C   UNL     1      44.887   2.212   9.141  0.00  0.00    +0.000 A 
ATOM     14  C   UNL     1      45.499   2.952   8.102  0.00  0.00    +0.000 A 
ATOM     15  C   UNL     1      45.229   4.283   8.332  0.00  0.00    +0.000 A 
ATOM     16  N   UNL     1      44.481   4.370   9.476  0.00  0.00    +0.000 N 
ATOM     17  H   UNL     1      44.166   5.223   9.919  0.00  0.00    +0.000 HD
ENDBRANCH  11  12
ENDBRANCH   9  11
ENDBRANCH   8   9
ENDBRANCH   5   8
ENDBRANCH   1   2
BRANCH   1  18
ATOM     18  N   UNL     1      48.993   6.318  14.763  0.00  0.00    +0.000 NA
ATOM     19  H   UNL     1      48.258   5.933  15.353  0.00  0.00    +0.000 HD
BRANCH  18  21
ATOM     20  C   UNL     1      51.143   7.243  15.653  0.00  0.00    +0.000 C 
ATOM     21  C   UNL     1      49.626   7.429  15.501  0.00  0.00    +0.000 C 
BRANCH  21  22
ATOM     22  C   UNL     1      48.956   7.458  16.868  0.00  0.00    +0.000 A 
ATOM     23  C   UNL     1      48.321   8.585  17.376  0.00  0.00    +0.000 A 
ATOM     24  S   UNL     1      47.716   8.381  18.953  0.00  0.00    +0.000 S 
ATOM     25  C   UNL     1      48.269   6.771  19.018  0.00  0.00    +0.000 A 
ATOM     26  N   UNL     1      48.094   6.026  20.140  0.00  0.00    +0.000 NA
ATOM     27  C   UNL     1      48.558   4.820  20.051  0.00  0.00    +0.000 A 
ATOM     28  N   UNL     1      49.160   4.296  18.938  0.00  0.00    +0.000 N 
ATOM     29  C   UNL     1      49.329   5.002  17.765  0.00  0.00    +0.000 A 
ATOM     30  O   UNL     1      49.803   4.483  16.764  0.00  0.00    +0.000 OA
ATOM     31  C   UNL     1      48.872   6.386  17.833  0.00  0.00    +0.000 A 
ATOM     32  H   UNL     1      49.464   3.333  18.928  0.00  0.00    +0.000 HD
ENDBRANCH  21  22
ENDBRANCH  18  21
ENDBRANCH   1  18
TORSDOF 8
ENDMDL
MODEL 5
REMARK VINA RESULT:    -7.124      2.943      3.712
REMARK INTER + INTRA:         -11.201
REMARK INTER:                 -10.230
REMARK INTRA:                  -0.971
REMARK UNBOUND:                -0.746
REMARK  Name = 
REMARK  9 active torsions:
REMARK  status: ('A' for Active; 'I' for Inactive)
REMARK    1  A    between atoms: C_1  and  C_2
REMARK    2  A    between atoms: C_2  and  N_3
REMARK    3  A    between atoms: C_2  and  C_19
REMARK    4  A    between atoms: N_3  and  C_4
REMARK    5  A    between atoms: C_4  and  C_5
REMARK    6  A    between atoms: C_8  and  C_9
REMARK    7  A    between atoms: C_9  and  N_10
REMARK    8  A    between atoms: N_10  and  C_11
REMARK    9  A    between atoms: C_11  and  C_12
REMARK                            x       y       z     vdW  Elec       q    Type
REMARK                         _______ _______ _______ _____ _____    ______ ____
ROOT
ATOM      1  C   UNL     1      48.108   7.413  13.468  0.00  0.00    +0.000 C 
ENDROOT
BRANCH   1   2
ATOM      2  C   UNL     1      47.110   6.466  12.845  0.00  0.00    +0.000 A 
ATOM      3  C   UNL     1      46.689   6.621  11.521  0.00  0.00    +0.000 A 
ATOM      4  C   UNL     1      45.775   5.728  10.966  0.00  0.00    +0.000 A 
ATOM      5  C   UNL     1      45.293   4.684  11.751  0.00  0.00    +0.000 A 
ATOM      6  N   UNL     1      45.657   4.526  13.049  0.00  0.00    +0.000 NA
ATOM      7  C   UNL     1      46.547   5.413  13.559  0.00  0.00    +0.000 A 
BRANCH   5   8
ATOM      8  C   UNL     1      44.314   3.681  11.167  0.00  0.00    +0.000 C 
BRANCH   8   9
ATOM      9  N   UNL     1      44.945   2.522  10.519  0.00  0.00    +0.000 NA
ATOM     10  H   UNL     1      44.624   1.695  11.029  0.00  0.00    +0.000 HD
BRANCH   9  11
ATOM     11  C   UNL     1      44.511   2.372   9.133  0.00  0.00    +0.000 C 
BRANCH  11  12
ATOM     12  C   UNL     1      45.712   2.392   8.254  0.00  0.00    +0.000 A 
ATOM     13  C   UNL     1      46.308   3.423   7.554  0.00  0.00    +0.000 A 
ATOM     14  C   UNL     1      47.418   2.885   6.862  0.00  0.00    +0.000 A 
ATOM     15  C   UNL     1      47.474   1.541   7.158  0.00  0.00    +0.000 A 
ATOM     16  N   UNL     1      46.434   1.251   8.000  0.00  0.00    +0.000 N 
ATOM     17  H   UNL     1      46.193   0.335   8.356  0.00  0.00    +0.000 HD
ENDBRANCH  11  12
ENDBRANCH   9  11
ENDBRANCH   8   9
ENDBRANCH   5   8
ENDBRANCH   1   2
BRANCH   1  18
ATOM     18  N   UNL     1      47.805   7.683  14.874  0.00  0.00    +0.000 NA
ATOM     19  H   UNL     1      47.339   8.586  14.944  0.00  0.00    +0.000 HD
BRANCH  18  21
ATOM     20  C   UNL     1      50.286   7.372  15.015  0.00  0.00    +0.000 C 
ATOM     21  C   UNL     1      48.987   7.717  15.758  0.00  0.00    +0.000 C 
BRANCH  21  22
ATOM     22  C   UNL     1      48.718   6.697  16.855  0.00  0.00    +0.000 A 
ATOM     23  C   UNL     1      48.799   5.324  16.649  0.00  0.00    +0.000 A 
ATOM     24  S   UNL     1      48.381   4.398  18.015  0.00  0.00    +0.000 S 
ATOM     25  C   UNL     1      48.084   5.795  18.942  0.00  0.00    +0.000 A 
ATOM     26  N   UNL     1      47.650   5.693  20.225  0.00  0.00    +0.000 NA
ATOM     27  C   UNL     1      47.468   6.832  20.814  0.00  0.00    +0.000 A 
ATOM     28  N   UNL     1      47.699   8.054  20.238  0.00  0.00    +0.000 N 
ATOM     29  C   UNL     1      48.172   8.207  18.951  0.00  0.00    +0.000 A 
ATOM     30  O   UNL     1      48.440   9.309  18.491  0.00  0.00    +0.000 OA
ATOM     31  C   UNL     1      48.341   6.953  18.226  0.00  0.00    +0.000 A 
ATOM     32  H   UNL     1      47.571   8.901  20.772  0.00  0.00    +0.000 HD
ENDBRANCH  21  22
ENDBRANCH  18  21
ENDBRANCH   1  18
TORSDOF 8
ENDMDL
MODEL 6
REMARK VINA RESULT:    -7.053      2.819      3.588
REMARK INTER + INTRA:         -11.097
REMARK INTER:                 -10.063
REMARK INTRA:                  -1.034
REMARK UNBOUND:                -0.746
REMARK  Name = 
REMARK  9 active torsions:
REMARK  status: ('A' for Active; 'I' for Inactive)
REMARK    1  A    between atoms: C_1  and  C_2
REMARK    2  A    between atoms: C_2  and  N_3
REMARK    3  A    between atoms: C_2  and  C_19
REMARK    4  A    between atoms: N_3  and  C_4
REMARK    5  A    between atoms: C_4  and  C_5
REMARK    6  A    between atoms: C_8  and  C_9
REMARK    7  A    between atoms: C_9  and  N_10
REMARK    8  A    between atoms: N_10  and  C_11
REMARK    9  A    between atoms: C_11  and  C_12
REMARK                            x       y       z     vdW  Elec       q    Type
REMARK                         _______ _______ _______ _____ _____    ______ ____
ROOT
ATOM      1  C   UNL     1      47.184   3.663  14.624  0.00  0.00    +0.000 C 
ENDROOT
BRANCH   1   2
ATOM      2  C   UNL     1      46.322   3.965  13.420  0.00  0.00    +0.000 A 
ATOM      3  C   UNL     1      45.682   2.944  12.712  0.00  0.00    +0.000 A 
ATOM      4  C   UNL     1      44.884   3.248  11.611  0.00  0.00    +0.000 A 
ATOM      5  C   UNL     1      44.737   4.580  11.234  0.00  0.00    +0.000 A 
ATOM      6  N   UNL     1      45.372   5.590  11.881  0.00  0.00    +0.000 NA
ATOM      7  C   UNL     1      46.142   5.260  12.947  0.00  0.00    +0.000 A 
BRANCH   5   8
ATOM      8  C   UNL     1      43.856   4.944  10.053  0.00  0.00    +0.000 C 
BRANCH   8   9
ATOM      9  N   UNL     1      44.224   4.284   8.792  0.00  0.00    +0.000 NA
ATOM     10  H   UNL     1      43.609   4.672   8.071  0.00  0.00    +0.000 HD
BRANCH   9  11
ATOM     11  C   UNL     1      45.597   4.590   8.400  0.00  0.00    +0.000 C 
BRANCH  11  12
ATOM     12  C   UNL     1      46.236   3.344   7.896  0.00  0.00    +0.000 A 
ATOM     13  C   UNL     1      46.035   2.019   8.233  0.00  0.00    +0.000 A 
ATOM     14  C   UNL     1      46.926   1.240   7.457  0.00  0.00    +0.000 A 
ATOM     15  C   UNL     1      47.646   2.107   6.666  0.00  0.00    +0.000 A 
ATOM     16  N   UNL     1      47.223   3.380   6.940  0.00  0.00    +0.000 N 
ATOM     17  H   UNL     1      47.598   4.232   6.543  0.00  0.00    +0.000 HD
ENDBRANCH  11  12
ENDBRANCH   9  11
ENDBRANCH   8   9
ENDBRANCH   5   8
ENDBRANCH   1   2
BRANCH   1  18
ATOM     18  N   UNL     1      47.506   4.871  15.385  0.00  0.00    +0.000 NA
ATOM     19  H   UNL     1      48.083   5.481  14.808  0.00  0.00    +0.000 HD
BRANCH  18  21
ATOM     20  C   UNL     1      47.579   3.524  17.494  0.00  0.00    +0.000 C 
ATOM     21  C   UNL     1      48.233   4.624  16.646  0.00  0.00    +0.000 C 
BRANCH  21  22
ATOM     22  C   UNL     1      48.227   5.948  17.398  0.00  0.00    +0.000 A 
ATOM     23  C   UNL     1      47.650   6.102  18.654  0.00  0.00    +0.000 A 
ATOM     24  S   UNL     1      47.713   7.696  19.247  0.00  0.00    +0.000 S 
ATOM     25  C   UNL     1      48.523   8.244  17.853  0.00  0.00    +0.000 A 
ATOM     26  N   UNL     1      48.846   9.556  17.713  0.00  0.00    +0.000 NA
ATOM     27  C   UNL     1      49.462   9.833  16.609  0.00  0.00    +0.000 A 
ATOM     28  N   UNL     1      49.797   8.914  15.650  0.00  0.00    +0.000 N 
ATOM     29  C   UNL     1      49.521   7.568  15.763  0.00  0.00    +0.000 A 
ATOM     30  O   UNL     1      49.898   6.760  14.924  0.00  0.00    +0.000 OA
ATOM     31  C   UNL     1      48.777   7.212  16.966  0.00  0.00    +0.000 A 
ATOM     32  H   UNL     1      50.312   9.198  14.829  0.00  0.00    +0.000 HD
ENDBRANCH  21  22
ENDBRANCH  18  21
ENDBRANCH   1  18
TORSDOF 8
ENDMDL
MODEL 7
REMARK VINA RESULT:    -6.982      3.695      8.973
REMARK INTER + INTRA:         -10.993
REMARK INTER:                  -9.747
REMARK INTRA:                  -1.246
REMARK UNBOUND:                -0.746
REMARK  Name = 
REMARK  9 active torsions:
REMARK  status: ('A' for Active; 'I' for Inactive)
REMARK    1  A    between atoms: C_1  and  C_2
REMARK    2  A    between atoms: C_2  and  N_3
REMARK    3  A    between atoms: C_2  and  C_19
REMARK    4  A    between atoms: N_3  and  C_4
REMARK    5  A    between atoms: C_4  and  C_5
REMARK    6  A    between atoms: C_8  and  C_9
REMARK    7  A    between atoms: C_9  and  N_10
REMARK    8  A    between atoms: N_10  and  C_11
REMARK    9  A    between atoms: C_11  and  C_12
REMARK                            x       y       z     vdW  Elec       q    Type
REMARK                         _______ _______ _______ _____ _____    ______ ____
ROOT
ATOM      1  C   UNL     1      48.076   7.726  12.314  0.00  0.00    +0.000 C 
ENDROOT
BRANCH   1   2
ATOM      2  C   UNL     1      48.264   7.809  13.810  0.00  0.00    +0.000 A 
ATOM      3  C   UNL     1      48.149   9.026  14.490  0.00  0.00    +0.000 A 
ATOM      4  C   UNL     1      48.317   9.075  15.872  0.00  0.00    +0.000 A 
ATOM      5  C   UNL     1      48.597   7.897  16.559  0.00  0.00    +0.000 A 
ATOM      6  N   UNL     1      48.747   6.707  15.923  0.00  0.00    +0.000 NA
ATOM      7  C   UNL     1      48.579   6.693  14.579  0.00  0.00    +0.000 A 
BRANCH   5   8
ATOM      8  C   UNL     1      48.761   7.916  18.068  0.00  0.00    +0.000 C 
BRANCH   8   9
ATOM      9  N   UNL     1      47.551   7.543  18.816  0.00  0.00    +0.000 NA
ATOM     10  H   UNL     1      46.869   7.223  18.124  0.00  0.00    +0.000 HD
BRANCH   9  11
ATOM     11  C   UNL     1      47.798   6.430  19.728  0.00  0.00    +0.000 C 
BRANCH  11  12
ATOM     12  C   UNL     1      47.851   5.171  18.937  0.00  0.00    +0.000 A 
ATOM     13  C   UNL     1      48.743   4.116  18.967  0.00  0.00    +0.000 A 
ATOM     14  C   UNL     1      48.333   3.181  17.988  0.00  0.00    +0.000 A 
ATOM     15  C   UNL     1      47.201   3.685  17.387  0.00  0.00    +0.000 A 
ATOM     16  N   UNL     1      46.918   4.893  17.967  0.00  0.00    +0.000 N 
ATOM     17  H   UNL     1      46.167   5.519  17.705  0.00  0.00    +0.000 HD
ENDBRANCH  11  12
ENDBRANCH   9  11
ENDBRANCH   8   9
ENDBRANCH   5   8
ENDBRANCH   1   2
BRANCH   1  18
ATOM     18  N   UNL     1      47.238   6.590  11.928  0.00  0.00    +0.000 NA
ATOM     19  H   UNL     1      47.701   6.075  11.182  0.00  0.00    +0.000 HD
BRANCH  18  21
ATOM     20  C   UNL     1      45.255   8.076  12.290  0.00  0.00    +0.000 C 
ATOM     21  C   UNL     1      45.891   6.959  11.450  0.00  0.00    +0.000 C 
BRANCH  21  22
ATOM     22  C   UNL     1      45.054   5.689  11.536  0.00  0.00    +0.000 A 
ATOM     23  C   UNL     1      44.284   5.364  12.647  0.00  0.00    +0.000 A 
ATOM     24  S   UNL     1      43.502   3.858  12.523  0.00  0.00    +0.000 S 
ATOM     25  C   UNL     1      44.152   3.583  10.973  0.00  0.00    +0.000 A 
ATOM     26  N   UNL     1      43.890   2.427  10.309  0.00  0.00    +0.000 NA
ATOM     27  C   UNL     1      44.444   2.352   9.141  0.00  0.00    +0.000 A 
ATOM     28  N   UNL     1      45.216   3.334   8.579  0.00  0.00    +0.000 N 
ATOM     29  C   UNL     1      45.481   4.537   9.199  0.00  0.00    +0.000 A 
ATOM     30  O   UNL     1      46.112   5.424   8.640  0.00  0.00    +0.000 OA
ATOM     31  C   UNL     1      44.924   4.649  10.542  0.00  0.00    +0.000 A 
ATOM     32  H   UNL     1      45.584   3.220   7.645  0.00  0.00    +0.000 HD
ENDBRANCH  21  22
ENDBRANCH  18  21
ENDBRANCH   1  18
TORSDOF 8
ENDMDL
MODEL 8
REMARK VINA RESULT:    -6.697      3.471      4.241
REMARK INTER + INTRA:         -10.575
REMARK INTER:                  -9.632
REMARK INTRA:                  -0.943
REMARK UNBOUND:                -0.746
REMARK  Name = 
REMARK  9 active torsions:
REMARK  status: ('A' for Active; 'I' for Inactive)
REMARK    1  A    between atoms: C_1  and  C_2
REMARK    2  A    between atoms: C_2  and  N_3
REMARK    3  A    between atoms: C_2  and  C_19
REMARK    4  A    between atoms: N_3  and  C_4
REMARK    5  A    between atoms: C_4  and  C_5
REMARK    6  A    between atoms: C_8  and  C_9
REMARK    7  A    between atoms: C_9  and  N_10
REMARK    8  A    between atoms: N_10  and  C_11
REMARK    9  A    between atoms: C_11  and  C_12
REMARK                            x       y       z     vdW  Elec       q    Type
REMARK                         _______ _______ _______ _____ _____    ______ ____
ROOT
ATOM      1  C   UNL     1      47.928   6.281  13.886  0.00  0.00    +0.000 C 
ENDROOT
BRANCH   1   2
ATOM      2  C   UNL     1      46.854   5.605  13.066  0.00  0.00    +0.000 A 
ATOM      3  C   UNL     1      46.351   4.350  13.420  0.00  0.00    +0.000 A 
ATOM      4  C   UNL     1      45.354   3.752  12.652  0.00  0.00    +0.000 A 
ATOM      5  C   UNL     1      44.871   4.424  11.534  0.00  0.00    +0.000 A 
ATOM      6  N   UNL     1      45.363   5.629  11.145  0.00  0.00    +0.000 NA
ATOM      7  C   UNL     1      46.333   6.183  11.912  0.00  0.00    +0.000 A 
BRANCH   5   8
ATOM      8  C   UNL     1      43.769   3.809  10.691  0.00  0.00    +0.000 C 
BRANCH   8   9
ATOM      9  N   UNL     1      44.158   3.510   9.305  0.00  0.00    +0.000 NA
ATOM     10  H   UNL     1      44.896   4.174   9.061  0.00  0.00    +0.000 HD
BRANCH   9  11
ATOM     11  C   UNL     1      44.722   2.169   9.176  0.00  0.00    +0.000 C 
BRANCH  11  12
ATOM     12  C   UNL     1      45.846   2.218   8.202  0.00  0.00    +0.000 A 
ATOM     13  C   UNL     1      46.336   3.255   7.431  0.00  0.00    +0.000 A 
ATOM     14  C   UNL     1      47.411   2.746   6.664  0.00  0.00    +0.000 A 
ATOM     15  C   UNL     1      47.552   1.415   6.987  0.00  0.00    +0.000 A 
ATOM     16  N   UNL     1      46.597   1.103   7.917  0.00  0.00    +0.000 N 
ATOM     17  H   UNL     1      46.428   0.188   8.314  0.00  0.00    +0.000 HD
ENDBRANCH  11  12
ENDBRANCH   9  11
ENDBRANCH   8   9
ENDBRANCH   5   8
ENDBRANCH   1   2
BRANCH   1  18
ATOM     18  N   UNL     1      49.100   6.623  13.081  0.00  0.00    +0.000 NA
ATOM     19  H   UNL     1      49.922   6.180  13.488  0.00  0.00    +0.000 HD
BRANCH  18  21
ATOM     20  C   UNL     1      48.997   8.647  11.609  0.00  0.00    +0.000 C 
ATOM     21  C   UNL     1      49.372   8.071  12.982  0.00  0.00    +0.000 C 
BRANCH  21  22
ATOM     22  C   UNL     1      50.865   8.234  13.236  0.00  0.00    +0.000 A 
ATOM     23  C   UNL     1      51.771   8.567  12.235  0.00  0.00    +0.000 A 
ATOM     24  S   UNL     1      53.388   8.617  12.761  0.00  0.00    +0.000 S 
ATOM     25  C   UNL     1      52.943   8.206  14.353  0.00  0.00    +0.000 A 
ATOM     26  N   UNL     1      53.888   8.050  15.316  0.00  0.00    +0.000 NA
ATOM     27  C   UNL     1      53.411   7.742  16.480  0.00  0.00    +0.000 A 
ATOM     28  N   UNL     1      52.079   7.596  16.763  0.00  0.00    +0.000 N 
ATOM     29  C   UNL     1      51.082   7.778  15.828  0.00  0.00    +0.000 A 
ATOM     30  O   UNL     1      49.897   7.714  16.129  0.00  0.00    +0.000 OA
ATOM     31  C   UNL     1      51.571   8.073  14.486  0.00  0.00    +0.000 A 
ATOM     32  H   UNL     1      51.777   7.392  17.705  0.00  0.00    +0.000 HD
ENDBRANCH  21  22
ENDBRANCH  18  21
ENDBRANCH   1  18
TORSDOF 8
ENDMDL
MODEL 9
REMARK VINA RESULT:    -6.583      4.717      5.807
REMARK INTER + INTRA:         -10.407
REMARK INTER:                  -9.495
REMARK INTRA:                  -0.913
REMARK UNBOUND:                -0.746
REMARK  Name = 
REMARK  9 active torsions:
REMARK  status: ('A' for Active; 'I' for Inactive)
REMARK    1  A    between atoms: C_1  and  C_2
REMARK    2  A    between atoms: C_2  and  N_3
REMARK    3  A    between atoms: C_2  and  C_19
REMARK    4  A    between atoms: N_3  and  C_4
REMARK    5  A    between atoms: C_4  and  C_5
REMARK    6  A    between atoms: C_8  and  C_9
REMARK    7  A    between atoms: C_9  and  N_10
REMARK    8  A    between atoms: N_10  and  C_11
REMARK    9  A    between atoms: C_11  and  C_12
REMARK                            x       y       z     vdW  Elec       q    Type
REMARK                         _______ _______ _______ _____ _____    ______ ____
ROOT
ATOM      1  C   UNL     1      46.499   8.216  13.125  0.00  0.00    +0.000 C 
ENDROOT
BRANCH   1   2
ATOM      2  C   UNL     1      45.827   6.959  12.625  0.00  0.00    +0.000 A 
ATOM      3  C   UNL     1      44.765   7.016  11.718  0.00  0.00    +0.000 A 
ATOM      4  C   UNL     1      44.169   5.841  11.263  0.00  0.00    +0.000 A 
ATOM      5  C   UNL     1      44.648   4.620  11.726  0.00  0.00    +0.000 A 
ATOM      6  N   UNL     1      45.656   4.534  12.632  0.00  0.00    +0.000 NA
ATOM      7  C   UNL     1      46.214   5.694  13.055  0.00  0.00    +0.000 A 
BRANCH   5   8
ATOM      8  C   UNL     1      44.034   3.323  11.231  0.00  0.00    +0.000 C 
BRANCH   8   9
ATOM      9  N   UNL     1      44.924   2.511  10.387  0.00  0.00    +0.000 NA
ATOM     10  H   UNL     1      44.824   1.544  10.706  0.00  0.00    +0.000 HD
BRANCH   9  11
ATOM     11  C   UNL     1      44.523   2.547   8.984  0.00  0.00    +0.000 C 
BRANCH  11  12
ATOM     12  C   UNL     1      45.742   2.431   8.138  0.00  0.00    +0.000 A 
ATOM     13  C   UNL     1      46.404   3.366   7.365  0.00  0.00    +0.000 A 
ATOM     14  C   UNL     1      47.501   2.715   6.752  0.00  0.00    +0.000 A 
ATOM     15  C   UNL     1      47.483   1.402   7.167  0.00  0.00    +0.000 A 
ATOM     16  N   UNL     1      46.412   1.239   8.004  0.00  0.00    +0.000 N 
ATOM     17  H   UNL     1      46.118   0.371   8.434  0.00  0.00    +0.000 HD
ENDBRANCH  11  12
ENDBRANCH   9  11
ENDBRANCH   8   9
ENDBRANCH   5   8
ENDBRANCH   1   2
BRANCH   1  18
ATOM     18  N   UNL     1      47.306   8.858  12.087  0.00  0.00    +0.000 NA
ATOM     19  H   UNL     1      48.124   8.282  11.899  0.00  0.00    +0.000 HD
BRANCH  18  21
ATOM     20  C   UNL     1      46.839  11.313  11.920  0.00  0.00    +0.000 C 
ATOM     21  C   UNL     1      47.780  10.213  12.432  0.00  0.00    +0.000 C 
BRANCH  21  22
ATOM     22  C   UNL     1      49.154  10.351  11.790  0.00  0.00    +0.000 A 
ATOM     23  C   UNL     1      49.421  11.240  10.755  0.00  0.00    +0.000 A 
ATOM     24  S   UNL     1      51.014  11.149  10.164  0.00  0.00    +0.000 S 
ATOM     25  C   UNL     1      51.417   9.924  11.276  0.00  0.00    +0.000 A 
ATOM     26  N   UNL     1      52.657   9.370  11.273  0.00  0.00    +0.000 NA
ATOM     27  C   UNL     1      52.829   8.454  12.173  0.00  0.00    +0.000 A 
ATOM     28  N   UNL     1      51.879   8.063  13.079  0.00  0.00    +0.000 N 
ATOM     29  C   UNL     1      50.619   8.620  13.143  0.00  0.00    +0.000 A 
ATOM     30  O   UNL     1      49.818   8.302  14.012  0.00  0.00    +0.000 OA
ATOM     31  C   UNL     1      50.357   9.619  12.113  0.00  0.00    +0.000 A 
ATOM     32  H   UNL     1      52.097   7.367  13.777  0.00  0.00    +0.000 HD
ENDBRANCH  21  22
ENDBRANCH  18  21
ENDBRANCH   1  18
TORSDOF 8
ENDMDL
