MODEL 1
REMARK VINA RESULT:    -8.175      0.000      0.000
REMARK INTER + INTRA:         -13.388
REMARK INTER:                 -11.999
REMARK INTRA:                  -1.389
REMARK UNBOUND:                -1.389
REMARK  Name = 
REMARK  9 active torsions:
REMARK  status: ('A' for Active; 'I' for Inactive)
REMARK    1  A    between atoms: C_1  and  O_2
REMARK    2  A    between atoms: O_2  and  C_3
REMARK    3  A    between atoms: C_10  and  C_11
REMARK    4  A    between atoms: N_13  and  C_14
REMARK    5  A    between atoms: C_14  and  C_15
REMARK    6  A    between atoms: C_18  and  C_19
REMARK    7  A    between atoms: C_19  and  C_20
REMARK    8  A    between atoms: C_20  and  C_21
REMARK    9  A    between atoms: C_21  and  C_22
REMARK                            x       y       z     vdW  Elec       q    Type
REMARK                         _______ _______ _______ _____ _____    ______ ____
ROOT
ATOM      1  C   UNL     1      47.735   7.681  13.247  0.00  0.00    +0.000 C 
ENDROOT
BRANCH   1   2
ATOM      2  C   UNL     1      46.636   6.805  12.707  0.00  0.00    +0.000 A 
ATOM      3  C   UNL     1      45.621   7.343  11.907  0.00  0.00    +0.000 A 
ATOM      4  C   UNL     1      44.621   6.522  11.379  0.00  0.00    +0.000 A 
ATOM      5  C   UNL     1      44.617   5.146  11.637  0.00  0.00    +0.000 A 
ATOM      6  C   UNL     1      45.603   4.618  12.481  0.00  0.00    +0.000 A 
ATOM      7  C   UNL     1      46.600   5.439  13.014  0.00  0.00    +0.000 A 
BRANCH   5   8
ATOM      8  C   UNL     1      43.579   4.238  11.021  0.00  0.00    +0.000 C 
BRANCH   8   9
ATOM      9  C   UNL     1      44.132   3.260   9.973  0.00  0.00    +0.000 C 
BRANCH   9  10
ATOM     10  C   UNL     1      44.737   3.964   8.753  0.00  0.00    +0.000 C 
BRANCH  10  11
ATOM     11  C   UNL     1      45.694   3.070   8.002  0.00  0.00    +0.000 A 
ATOM     12  C   UNL     1      46.385   3.551   6.882  0.00  0.00    +0.000 A 
ATOM     13  C   UNL     1      47.281   2.728   6.196  0.00  0.00    +0.000 A 
ATOM     14  C   UNL     1      47.490   1.417   6.618  0.00  0.00    +0.000 A 
ATOM     15  C   UNL     1      46.797   0.925   7.723  0.00  0.00    +0.000 A 
ATOM     16  C   UNL     1      45.900   1.746   8.409  0.00  0.00    +0.000 A 
ENDBRANCH  10  11
ENDBRANCH   9  10
ENDBRANCH   8   9
ENDBRANCH   5   8
ENDBRANCH   1   2
BRANCH   1  19
ATOM     17  C   UNL     1      48.880   7.162  15.351  0.00  0.00    +0.000 C 
ATOM     18  O   UNL     1      49.854   6.730  14.740  0.00  0.00    +0.000 OA
ATOM     19  N   UNL     1      47.783   7.639  14.686  0.00  0.00    +0.000 N 
ATOM     20  H   UNL     1      46.963   7.939  15.196  0.00  0.00    +0.000 HD
BRANCH  17  28
ATOM     21  C   UNL     1      48.822   4.734  17.804  0.00  0.00    +0.000 A 
ATOM     22  N   UNL     1      48.713   4.020  18.943  0.00  0.00    +0.000 NA
ATOM     23  C   UNL     1      48.620   4.684  20.098  0.00  0.00    +0.000 A 
ATOM     24  N   UNL     1      48.629   6.003  20.265  0.00  0.00    +0.000 NA
ATOM     25  C   UNL     1      48.725   6.677  19.108  0.00  0.00    +0.000 A 
ATOM     26  S   UNL     1      48.763   8.374  19.135  0.00  0.00    +0.000 S 
ATOM     27  C   UNL     1      48.856   8.448  17.442  0.00  0.00    +0.000 A 
ATOM     28  C   UNL     1      48.856   7.203  16.822  0.00  0.00    +0.000 A 
ATOM     29  C   UNL     1      48.808   6.140  17.825  0.00  0.00    +0.000 A 
BRANCH  21  31
ATOM     30  C   UNL     1      47.768   3.438  16.148  0.00  0.00    +0.000 C 
ATOM     31  O   UNL     1      48.970   4.050  16.614  0.00  0.00    +0.000 OA
ENDBRANCH  21  31
ENDBRANCH  17  28
ENDBRANCH   1  19
TORSDOF 8
ENDMDL
MODEL 2
REMARK VINA RESULT:    -8.081      1.688      2.747
REMARK INTER + INTRA:         -13.250
REMARK INTER:                 -11.724
REMARK INTRA:                  -1.526
REMARK UNBOUND:                -1.389
REMARK  Name = 
REMARK  9 active torsions:
REMARK  status: ('A' for Active; 'I' for Inactive)
REMARK    1  A    between atoms: C_1  and  O_2
REMARK    2  A    between atoms: O_2  and  C_3
REMARK    3  A    between atoms: C_10  and  C_11
REMARK    4  A    between atoms: N_13  and  C_14
REMARK    5  A    between atoms: C_14  and  C_15
REMARK    6  A    between atoms: C_18  and  C_19
REMARK    7  A    between atoms: C_19  and  C_20
REMARK    8  A    between atoms: C_20  and  C_21
REMARK    9  A    between atoms: C_21  and  C_22
REMARK                            x       y       z     vdW  Elec       q    Type
REMARK                         _______ _______ _______ _____ _____    ______ ____
ROOT
ATOM      1  C   UNL     1      48.345   6.537  13.997  0.00  0.00    +0.000 C 
ENDROOT
BRANCH   1   2
ATOM      2  C   UNL     1      47.204   5.964  13.198  0.00  0.00    +0.000 A 
ATOM      3  C   UNL     1      46.440   4.905  13.701  0.00  0.00    +0.000 A 
ATOM      4  C   UNL     1      45.360   4.398  12.973  0.00  0.00    +0.000 A 
ATOM      5  C   UNL     1      45.021   4.942  11.727  0.00  0.00    +0.000 A 
ATOM      6  C   UNL     1      45.819   5.967  11.202  0.00  0.00    +0.000 A 
ATOM      7  C   UNL     1      46.902   6.470  11.927  0.00  0.00    +0.000 A 
BRANCH   5   8
ATOM      8  C   UNL     1      43.818   4.446  10.960  0.00  0.00    +0.000 C 
BRANCH   8   9
ATOM      9  C   UNL     1      44.131   3.952   9.539  0.00  0.00    +0.000 C 
BRANCH   9  10
ATOM     10  C   UNL     1      44.849   2.598   9.517  0.00  0.00    +0.000 C 
BRANCH  10  11
ATOM     11  C   UNL     1      45.756   2.459   8.318  0.00  0.00    +0.000 A 
ATOM     12  C   UNL     1      45.947   3.537   7.442  0.00  0.00    +0.000 A 
ATOM     13  C   UNL     1      46.797   3.412   6.341  0.00  0.00    +0.000 A 
ATOM     14  C   UNL     1      47.456   2.208   6.100  0.00  0.00    +0.000 A 
ATOM     15  C   UNL     1      47.261   1.126   6.956  0.00  0.00    +0.000 A 
ATOM     16  C   UNL     1      46.411   1.249   8.057  0.00  0.00    +0.000 A 
ENDBRANCH  10  11
ENDBRANCH   9  10
ENDBRANCH   8   9
ENDBRANCH   5   8
ENDBRANCH   1   2
BRANCH   1  19
ATOM     17  C   UNL     1      48.941   6.296  16.362  0.00  0.00    +0.000 C 
ATOM     18  O   UNL     1      50.070   5.917  16.062  0.00  0.00    +0.000 OA
ATOM     19  N   UNL     1      48.021   6.610  15.399  0.00  0.00    +0.000 N 
ATOM     20  H   UNL     1      47.077   6.866  15.654  0.00  0.00    +0.000 HD
BRANCH  17  28
ATOM     21  C   UNL     1      47.755   8.945  18.230  0.00  0.00    +0.000 A 
ATOM     22  N   UNL     1      47.366   9.800  19.199  0.00  0.00    +0.000 NA
ATOM     23  C   UNL     1      47.247   9.331  20.444  0.00  0.00    +0.000 A 
ATOM     24  N   UNL     1      47.464   8.085  20.853  0.00  0.00    +0.000 NA
ATOM     25  C   UNL     1      47.862   7.269  19.864  0.00  0.00    +0.000 A 
ATOM     26  S   UNL     1      48.173   5.636  20.206  0.00  0.00    +0.000 S 
ATOM     27  C   UNL     1      48.608   5.330  18.594  0.00  0.00    +0.000 A 
ATOM     28  C   UNL     1      48.533   6.446  17.768  0.00  0.00    +0.000 A 
ATOM     29  C   UNL     1      48.055   7.603  18.525  0.00  0.00    +0.000 A 
BRANCH  21  31
ATOM     30  C   UNL     1      49.072  10.042  16.619  0.00  0.00    +0.000 C 
ATOM     31  O   UNL     1      47.829   9.415  16.934  0.00  0.00    +0.000 OA
ENDBRANCH  21  31
ENDBRANCH  17  28
ENDBRANCH   1  19
TORSDOF 8
ENDMDL
MODEL 3
REMARK VINA RESULT:    -7.591      1.540      2.995
REMARK INTER + INTRA:         -12.530
REMARK INTER:                 -10.822
REMARK INTRA:                  -1.708
REMARK UNBOUND:                -1.389
REMARK  Name = 
REMARK  9 active torsions:
REMARK  status: ('A' for Active; 'I' for Inactive)
REMARK    1  A    between atoms: C_1  and  O_2
REMARK    2  A    between atoms: O_2  and  C_3
REMARK    3  A    between atoms: C_10  and  C_11
REMARK    4  A    between atoms: N_13  and  C_14
REMARK    5  A    between atoms: C_14  and  C_15
REMARK    6  A    between atoms: C_18  and  C_19
REMARK    7  A    between atoms: C_19  and  C_20
REMARK    8  A    between atoms: C_20  and  C_21
REMARK    9  A    between atoms: C_21  and  C_22
REMARK                            x       y       z     vdW  Elec       q    Type
REMARK                         _______ _______ _______ _____ _____    ______ ____
ROOT
ATOM      1  C   UNL     1      47.394   3.854  14.836  0.00  0.00    +0.000 C 
ENDROOT
BRANCH   1   2
ATOM      2  C   UNL     1      46.415   4.165  13.735  0.00  0.00    +0.000 A 
ATOM      3  C   UNL     1      46.008   5.483  13.491  0.00  0.00    +0.000 A 
ATOM      4  C   UNL     1      45.127   5.773  12.446  0.00  0.00    +0.000 A 
ATOM      5  C   UNL     1      44.636   4.752  11.621  0.00  0.00    +0.000 A 
ATOM      6  C   UNL     1      45.004   3.429  11.899  0.00  0.00    +0.000 A 
ATOM      7  C   UNL     1      45.881   3.138  12.948  0.00  0.00    +0.000 A 
BRANCH   5   8
ATOM      8  C   UNL     1      43.734   5.061  10.450  0.00  0.00    +0.000 C 
BRANCH   8   9
ATOM      9  C   UNL     1      44.065   4.278   9.170  0.00  0.00    +0.000 C 
BRANCH   9  10
ATOM     10  C   UNL     1      45.478   4.556   8.643  0.00  0.00    +0.000 C 
BRANCH  10  11
ATOM     11  C   UNL     1      46.090   3.336   7.997  0.00  0.00    +0.000 A 
ATOM     12  C   UNL     1      45.862   2.059   8.529  0.00  0.00    +0.000 A 
ATOM     13  C   UNL     1      46.417   0.930   7.924  0.00  0.00    +0.000 A 
ATOM     14  C   UNL     1      47.211   1.067   6.786  0.00  0.00    +0.000 A 
ATOM     15  C   UNL     1      47.456   2.333   6.258  0.00  0.00    +0.000 A 
ATOM     16  C   UNL     1      46.902   3.463   6.863  0.00  0.00    +0.000 A 
ENDBRANCH  10  11
ENDBRANCH   9  10
ENDBRANCH   8   9
ENDBRANCH   5   8
ENDBRANCH   1   2
BRANCH   1  19
ATOM     17  C   UNL     1      48.550   5.012  16.660  0.00  0.00    +0.000 C 
ATOM     18  O   UNL     1      49.360   4.094  16.760  0.00  0.00    +0.000 OA
ATOM     19  N   UNL     1      47.537   4.965  15.742  0.00  0.00    +0.000 N 
ATOM     20  H   UNL     1      46.842   5.698  15.706  0.00  0.00    +0.000 HD
BRANCH  17  28
ATOM     21  C   UNL     1      48.624   8.401  16.007  0.00  0.00    +0.000 A 
ATOM     22  N   UNL     1      48.756   9.743  16.041  0.00  0.00    +0.000 NA
ATOM     23  C   UNL     1      48.928  10.330  17.228  0.00  0.00    +0.000 A 
ATOM     24  N   UNL     1      48.979   9.733  18.415  0.00  0.00    +0.000 NA
ATOM     25  C   UNL     1      48.857   8.399  18.337  0.00  0.00    +0.000 A 
ATOM     26  S   UNL     1      48.888   7.476  19.762  0.00  0.00    +0.000 S 
ATOM     27  C   UNL     1      48.721   6.030  18.887  0.00  0.00    +0.000 A 
ATOM     28  C   UNL     1      48.644   6.210  17.511  0.00  0.00    +0.000 A 
ATOM     29  C   UNL     1      48.694   7.634  17.184  0.00  0.00    +0.000 A 
BRANCH  21  31
ATOM     30  C   UNL     1      49.585   7.507  14.054  0.00  0.00    +0.000 C 
ATOM     31  O   UNL     1      48.394   7.797  14.786  0.00  0.00    +0.000 OA
ENDBRANCH  21  31
ENDBRANCH  17  28
ENDBRANCH   1  19
TORSDOF 8
ENDMDL
MODEL 4
REMARK VINA RESULT:    -7.538      1.505      2.377
REMARK INTER + INTRA:         -12.452
REMARK INTER:                 -11.056
REMARK INTRA:                  -1.396
REMARK UNBOUND:                -1.389
REMARK  Name = 
REMARK  9 active torsions:
REMARK  status: ('A' for Active; 'I' for Inactive)
REMARK    1  A    between atoms: C_1  and  O_2
REMARK    2  A    between atoms: O_2  and  C_3
REMARK    3  A    between atoms: C_10  and  C_11
REMARK    4  A    between atoms: N_13  and  C_14
REMARK    5  A    between atoms: C_14  and  C_15
REMARK    6  A    between atoms: C_18  and  C_19
REMARK    7  A    between atoms: C_19  and  C_20
REMARK    8  A    between atoms: C_20  and  C_21
REMARK    9  A    between atoms: C_21  and  C_22
REMARK                            x       y       z     vdW  Elec       q    Type
REMARK                         _______ _______ _______ _____ _____    ______ ____
ROOT
ATOM      1  C   UNL     1      47.572   4.289  14.951  0.00  0.00    +0.000 C 
ENDROOT
BRANCH   1   2
ATOM      2  C   UNL     1      46.623   4.430  13.791  0.00  0.00    +0.000 A 
ATOM      3  C   UNL     1      46.109   3.298  13.145  0.00  0.00    +0.000 A 
ATOM      4  C   UNL     1      45.201   3.431  12.091  0.00  0.00    +0.000 A 
ATOM      5  C   UNL     1      44.786   4.699  11.662  0.00  0.00    +0.000 A 
ATOM      6  C   UNL     1      45.341   5.830  12.275  0.00  0.00    +0.000 A 
ATOM      7  C   UNL     1      46.253   5.698  13.325  0.00  0.00    +0.000 A 
BRANCH   5   8
ATOM      8  C   UNL     1      43.757   4.854  10.568  0.00  0.00    +0.000 C 
BRANCH   8   9
ATOM      9  C   UNL     1      44.001   3.968   9.337  0.00  0.00    +0.000 C 
BRANCH   9  10
ATOM     10  C   UNL     1      45.198   4.425   8.494  0.00  0.00    +0.000 C 
BRANCH  10  11
ATOM     11  C   UNL     1      45.974   3.257   7.935  0.00  0.00    +0.000 A 
ATOM     12  C   UNL     1      46.905   3.450   6.906  0.00  0.00    +0.000 A 
ATOM     13  C   UNL     1      47.633   2.371   6.398  0.00  0.00    +0.000 A 
ATOM     14  C   UNL     1      47.432   1.091   6.909  0.00  0.00    +0.000 A 
ATOM     15  C   UNL     1      46.498   0.886   7.923  0.00  0.00    +0.000 A 
ATOM     16  C   UNL     1      45.769   1.963   8.430  0.00  0.00    +0.000 A 
ENDBRANCH  10  11
ENDBRANCH   9  10
ENDBRANCH   8   9
ENDBRANCH   5   8
ENDBRANCH   1   2
BRANCH   1  19
ATOM     17  C   UNL     1      48.616   5.734  16.632  0.00  0.00    +0.000 C 
ATOM     18  O   UNL     1      49.547   4.944  16.766  0.00  0.00    +0.000 OA
ATOM     19  N   UNL     1      47.590   5.478  15.764  0.00  0.00    +0.000 N 
ATOM     20  H   UNL     1      46.800   6.105  15.702  0.00  0.00    +0.000 HD
BRANCH  17  28
ATOM     21  C   UNL     1      47.801   6.542  19.887  0.00  0.00    +0.000 A 
ATOM     22  N   UNL     1      47.464   7.144  21.047  0.00  0.00    +0.000 NA
ATOM     23  C   UNL     1      47.540   8.475  21.112  0.00  0.00    +0.000 A 
ATOM     24  N   UNL     1      47.928   9.302  20.146  0.00  0.00    +0.000 NA
ATOM     25  C   UNL     1      48.241   8.667  19.005  0.00  0.00    +0.000 A 
ATOM     26  S   UNL     1      48.769   9.569  17.668  0.00  0.00    +0.000 S 
ATOM     27  C   UNL     1      48.918   8.168  16.720  0.00  0.00    +0.000 A 
ATOM     28  C   UNL     1      48.571   6.998  17.385  0.00  0.00    +0.000 A 
ATOM     29  C   UNL     1      48.195   7.295  18.767  0.00  0.00    +0.000 A 
BRANCH  21  31
ATOM     30  C   UNL     1      48.916   4.538  20.414  0.00  0.00    +0.000 C 
ATOM     31  O   UNL     1      47.772   5.162  19.833  0.00  0.00    +0.000 OA
ENDBRANCH  21  31
ENDBRANCH  17  28
ENDBRANCH   1  19
TORSDOF 8
ENDMDL
MODEL 5
REMARK VINA RESULT:    -7.522      1.803      2.439
REMARK INTER + INTRA:         -12.429
REMARK INTER:                 -11.292
REMARK INTRA:                  -1.137
REMARK UNBOUND:                -1.389
REMARK  Name = 
REMARK  9 active torsions:
REMARK  status: ('A' for Active; 'I' for Inactive)
REMARK    1  A    between atoms: C_1  and  O_2
REMARK    2  A    between atoms: O_2  and  C_3
REMARK    3  A    between atoms: C_10  and  C_11
REMARK    4  A    between atoms: N_13  and  C_14
REMARK    5  A    between atoms: C_14  and  C_15
REMARK    6  A    between atoms: C_18  and  C_19
REMARK    7  A    between atoms: C_19  and  C_20
REMARK    8  A    between atoms: C_20  and  C_21
REMARK    9  A    between atoms: C_21  and  C_22
REMARK                            x       y       z     vdW  Elec       q    Type
REMARK                         _______ _______ _______ _____ _____    ______ ____
ROOT
ATOM      1  C   UNL     1      46.017   8.074  12.938  0.00  0.00    +0.000 C 
ENDROOT
BRANCH   1   2
ATOM      2  C   UNL     1      45.436   6.752  12.512  0.00  0.00    +0.000 A 
ATOM      3  C   UNL     1      46.106   5.554  12.790  0.00  0.00    +0.000 A 
ATOM      4  C   UNL     1      45.548   4.326  12.425  0.00  0.00    +0.000 A 
ATOM      5  C   UNL     1      44.308   4.270  11.775  0.00  0.00    +0.000 A 
ATOM      6  C   UNL     1      43.664   5.472  11.451  0.00  0.00    +0.000 A 
ATOM      7  C   UNL     1      44.225   6.701  11.812  0.00  0.00    +0.000 A 
BRANCH   5   8
ATOM      8  C   UNL     1      43.665   2.947  11.432  0.00  0.00    +0.000 C 
BRANCH   8   9
ATOM      9  C   UNL     1      44.160   2.322  10.120  0.00  0.00    +0.000 C 
BRANCH   9  10
ATOM     10  C   UNL     1      44.592   3.364   9.082  0.00  0.00    +0.000 C 
BRANCH  10  11
ATOM     11  C   UNL     1      45.637   2.822   8.137  0.00  0.00    +0.000 A 
ATOM     12  C   UNL     1      46.084   1.499   8.255  0.00  0.00    +0.000 A 
ATOM     13  C   UNL     1      47.042   0.994   7.372  0.00  0.00    +0.000 A 
ATOM     14  C   UNL     1      47.565   1.807   6.369  0.00  0.00    +0.000 A 
ATOM     15  C   UNL     1      47.137   3.128   6.252  0.00  0.00    +0.000 A 
ATOM     16  C   UNL     1      46.181   3.635   7.135  0.00  0.00    +0.000 A 
ENDBRANCH  10  11
ENDBRANCH   9  10
ENDBRANCH   8   9
ENDBRANCH   5   8
ENDBRANCH   1   2
BRANCH   1  19
ATOM     17  C   UNL     1      48.426   7.883  13.345  0.00  0.00    +0.000 C 
ATOM     18  O   UNL     1      48.661   8.000  12.145  0.00  0.00    +0.000 OA
ATOM     19  N   UNL     1      47.143   7.896  13.819  0.00  0.00    +0.000 N 
ATOM     20  H   UNL     1      46.956   7.742  14.801  0.00  0.00    +0.000 HD
BRANCH  17  28
ATOM     21  C   UNL     1      49.053   5.655  15.906  0.00  0.00    +0.000 A 
ATOM     22  N   UNL     1      49.499   5.000  16.998  0.00  0.00    +0.000 NA
ATOM     23  C   UNL     1      50.614   5.440  17.586  0.00  0.00    +0.000 A 
ATOM     24  N   UNL     1      51.363   6.471  17.210  0.00  0.00    +0.000 NA
ATOM     25  C   UNL     1      50.879   7.105  16.130  0.00  0.00    +0.000 A 
ATOM     26  S   UNL     1      51.718   8.441  15.503  0.00  0.00    +0.000 S 
ATOM     27  C   UNL     1      50.555   8.663  14.286  0.00  0.00    +0.000 A 
ATOM     28  C   UNL     1      49.513   7.743  14.327  0.00  0.00    +0.000 A 
ATOM     29  C   UNL     1      49.725   6.789  15.416  0.00  0.00    +0.000 A 
BRANCH  21  31
ATOM     30  C   UNL     1      47.199   4.212  16.029  0.00  0.00    +0.000 C 
ATOM     31  O   UNL     1      47.929   5.172  15.266  0.00  0.00    +0.000 OA
ENDBRANCH  21  31
ENDBRANCH  17  28
ENDBRANCH   1  19
TORSDOF 8
ENDMDL
MODEL 6
REMARK VINA RESULT:    -7.455      1.850      2.389
REMARK INTER + INTRA:         -12.330
REMARK INTER:                 -10.487
REMARK INTRA:                  -1.844
REMARK UNBOUND:                -1.389
REMARK  Name = 
REMARK  9 active torsions:
REMARK  status: ('A' for Active; 'I' for Inactive)
REMARK    1  A    between atoms: C_1  and  O_2
REMARK    2  A    between atoms: O_2  and  C_3
REMARK    3  A    between atoms: C_10  and  C_11
REMARK    4  A    between atoms: N_13  and  C_14
REMARK    5  A    between atoms: C_14  and  C_15
REMARK    6  A    between atoms: C_18  and  C_19
REMARK    7  A    between atoms: C_19  and  C_20
REMARK    8  A    between atoms: C_20  and  C_21
REMARK    9  A    between atoms: C_21  and  C_22
REMARK                            x       y       z     vdW  Elec       q    Type
REMARK                         _______ _______ _______ _____ _____    ______ ____
ROOT
ATOM      1  C   UNL     1      48.592   7.482  12.604  0.00  0.00    +0.000 C 
ENDROOT
BRANCH   1   2
ATOM      2  C   UNL     1      47.269   6.777  12.741  0.00  0.00    +0.000 A 
ATOM      3  C   UNL     1      46.074   7.429  12.415  0.00  0.00    +0.000 A 
ATOM      4  C   UNL     1      44.850   6.761  12.510  0.00  0.00    +0.000 A 
ATOM      5  C   UNL     1      44.797   5.425  12.929  0.00  0.00    +0.000 A 
ATOM      6  C   UNL     1      45.989   4.791  13.305  0.00  0.00    +0.000 A 
ATOM      7  C   UNL     1      47.212   5.460  13.215  0.00  0.00    +0.000 A 
BRANCH   5   8
ATOM      8  C   UNL     1      43.488   4.673  12.975  0.00  0.00    +0.000 C 
BRANCH   8   9
ATOM      9  C   UNL     1      43.007   4.152  11.612  0.00  0.00    +0.000 C 
BRANCH   9  10
ATOM     10  C   UNL     1      43.739   2.883  11.161  0.00  0.00    +0.000 C 
BRANCH  10  11
ATOM     11  C   UNL     1      44.601   3.129   9.947  0.00  0.00    +0.000 A 
ATOM     12  C   UNL     1      45.076   2.054   9.182  0.00  0.00    +0.000 A 
ATOM     13  C   UNL     1      45.863   2.283   8.051  0.00  0.00    +0.000 A 
ATOM     14  C   UNL     1      46.188   3.585   7.678  0.00  0.00    +0.000 A 
ATOM     15  C   UNL     1      45.733   4.660   8.440  0.00  0.00    +0.000 A 
ATOM     16  C   UNL     1      44.947   4.433   9.571  0.00  0.00    +0.000 A 
ENDBRANCH  10  11
ENDBRANCH   9  10
ENDBRANCH   8   9
ENDBRANCH   5   8
ENDBRANCH   1   2
BRANCH   1  19
ATOM     17  C   UNL     1      49.644   7.599  14.815  0.00  0.00    +0.000 C 
ATOM     18  O   UNL     1      48.944   8.560  15.122  0.00  0.00    +0.000 OA
ATOM     19  N   UNL     1      49.542   7.015  13.581  0.00  0.00    +0.000 N 
ATOM     20  H   UNL     1      50.162   6.261  13.316  0.00  0.00    +0.000 HD
BRANCH  17  28
ATOM     21  C   UNL     1      49.533   4.935  17.007  0.00  0.00    +0.000 A 
ATOM     22  N   UNL     1      49.738   4.029  17.986  0.00  0.00    +0.000 NA
ATOM     23  C   UNL     1      50.905   4.053  18.634  0.00  0.00    +0.000 A 
ATOM     24  N   UNL     1      51.922   4.881  18.417  0.00  0.00    +0.000 NA
ATOM     25  C   UNL     1      51.675   5.775  17.446  0.00  0.00    +0.000 A 
ATOM     26  S   UNL     1      52.872   6.904  17.028  0.00  0.00    +0.000 S 
ATOM     27  C   UNL     1      51.864   7.613  15.861  0.00  0.00    +0.000 A 
ATOM     28  C   UNL     1      50.610   7.021  15.763  0.00  0.00    +0.000 A 
ATOM     29  C   UNL     1      50.509   5.898  16.694  0.00  0.00    +0.000 A 
BRANCH  21  31
ATOM     30  C   UNL     1      47.327   4.118  16.948  0.00  0.00    +0.000 C 
ATOM     31  O   UNL     1      48.346   4.880  16.302  0.00  0.00    +0.000 OA
ENDBRANCH  21  31
ENDBRANCH  17  28
ENDBRANCH   1  19
TORSDOF 8
ENDMDL
MODEL 7
REMARK VINA RESULT:    -7.110      3.329      5.357
REMARK INTER + INTRA:         -11.825
REMARK INTER:                  -9.730
REMARK INTRA:                  -2.095
REMARK UNBOUND:                -1.389
REMARK  Name = 
REMARK  9 active torsions:
REMARK  status: ('A' for Active; 'I' for Inactive)
REMARK    1  A    between atoms: C_1  and  O_2
REMARK    2  A    between atoms: O_2  and  C_3
REMARK    3  A    between atoms: C_10  and  C_11
REMARK    4  A    between atoms: N_13  and  C_14
REMARK    5  A    between atoms: C_14  and  C_15
REMARK    6  A    between atoms: C_18  and  C_19
REMARK    7  A    between atoms: C_19  and  C_20
REMARK    8  A    between atoms: C_20  and  C_21
REMARK    9  A    between atoms: C_21  and  C_22
REMARK                            x       y       z     vdW  Elec       q    Type
REMARK                         _______ _______ _______ _____ _____    ______ ____
ROOT
ATOM      1  C   UNL     1      47.629   3.257  17.052  0.00  0.00    +0.000 C 
ENDROOT
BRANCH   1   2
ATOM      2  C   UNL     1      47.564   4.131  15.828  0.00  0.00    +0.000 A 
ATOM      3  C   UNL     1      47.033   3.642  14.627  0.00  0.00    +0.000 A 
ATOM      4  C   UNL     1      46.942   4.466  13.502  0.00  0.00    +0.000 A 
ATOM      5  C   UNL     1      47.377   5.796  13.555  0.00  0.00    +0.000 A 
ATOM      6  C   UNL     1      47.955   6.268  14.741  0.00  0.00    +0.000 A 
ATOM      7  C   UNL     1      48.052   5.443  15.864  0.00  0.00    +0.000 A 
BRANCH   5   8
ATOM      8  C   UNL     1      47.225   6.715  12.365  0.00  0.00    +0.000 C 
BRANCH   8   9
ATOM      9  C   UNL     1      45.997   7.636  12.427  0.00  0.00    +0.000 C 
BRANCH   9  10
ATOM     10  C   UNL     1      44.923   7.278  11.393  0.00  0.00    +0.000 C 
BRANCH  10  11
ATOM     11  C   UNL     1      44.386   5.882  11.596  0.00  0.00    +0.000 A 
ATOM     12  C   UNL     1      44.557   4.903  10.607  0.00  0.00    +0.000 A 
ATOM     13  C   UNL     1      44.072   3.608  10.801  0.00  0.00    +0.000 A 
ATOM     14  C   UNL     1      43.405   3.281  11.980  0.00  0.00    +0.000 A 
ATOM     15  C   UNL     1      43.217   4.251  12.963  0.00  0.00    +0.000 A 
ATOM     16  C   UNL     1      43.700   5.547  12.771  0.00  0.00    +0.000 A 
ENDBRANCH  10  11
ENDBRANCH   9  10
ENDBRANCH   8   9
ENDBRANCH   5   8
ENDBRANCH   1   2
BRANCH   1  19
ATOM     17  C   UNL     1      49.865   2.264  16.909  0.00  0.00    +0.000 C 
ATOM     18  O   UNL     1      49.525   1.580  15.947  0.00  0.00    +0.000 OA
ATOM     19  N   UNL     1      48.983   3.110  17.523  0.00  0.00    +0.000 N 
ATOM     20  H   UNL     1      49.255   3.626  18.349  0.00  0.00    +0.000 HD
BRANCH  17  28
ATOM     21  C   UNL     1      52.067   4.668  18.044  0.00  0.00    +0.000 A 
ATOM     22  N   UNL     1      53.136   5.384  18.450  0.00  0.00    +0.000 NA
ATOM     23  C   UNL     1      54.268   4.729  18.722  0.00  0.00    +0.000 A 
ATOM     24  N   UNL     1      54.470   3.417  18.647  0.00  0.00    +0.000 NA
ATOM     25  C   UNL     1      53.388   2.742  18.226  0.00  0.00    +0.000 A 
ATOM     26  S   UNL     1      53.465   1.053  18.082  0.00  0.00    +0.000 S 
ATOM     27  C   UNL     1      51.863   0.978  17.525  0.00  0.00    +0.000 A 
ATOM     28  C   UNL     1      51.240   2.218  17.432  0.00  0.00    +0.000 A 
ATOM     29  C   UNL     1      52.147   3.273  17.883  0.00  0.00    +0.000 A 
BRANCH  21  31
ATOM     30  C   UNL     1      50.876   6.682  18.289  0.00  0.00    +0.000 C 
ATOM     31  O   UNL     1      50.882   5.337  17.811  0.00  0.00    +0.000 OA
ENDBRANCH  21  31
ENDBRANCH  17  28
ENDBRANCH   1  19
TORSDOF 8
ENDMDL
MODEL 8
REMARK VINA RESULT:    -6.699      2.661      3.597
REMARK INTER + INTRA:         -11.221
REMARK INTER:                  -9.558
REMARK INTRA:                  -1.663
REMARK UNBOUND:                -1.389
REMARK  Name = 
REMARK  9 active torsions:
REMARK  status: ('A' for Active; 'I' for Inactive)
REMARK    1  A    between atoms: C_1  and  O_2
REMARK    2  A    between atoms: O_2  and  C_3
REMARK    3  A    between atoms: C_10  and  C_11
REMARK    4  A    between atoms: N_13  and  C_14
REMARK    5  A    between atoms: C_14  and  C_15
REMARK    6  A    between atoms: C_18  and  C_19
REMARK    7  A    between atoms: C_19  and  C_20
REMARK    8  A    between atoms: C_20  and  C_21
REMARK    9  A    between atoms: C_21  and  C_22
REMARK                            x       y       z     vdW  Elec       q    Type
REMARK                         _______ _______ _______ _____ _____    ______ ____
ROOT
ATOM      1  C   UNL     1      48.570   7.527  12.643  0.00  0.00    +0.000 C 
ENDROOT
BRANCH   1   2
ATOM      2  C   UNL     1      47.243   6.822  12.732  0.00  0.00    +0.000 A 
ATOM      3  C   UNL     1      46.062   7.470  12.348  0.00  0.00    +0.000 A 
ATOM      4  C   UNL     1      44.835   6.802  12.399  0.00  0.00    +0.000 A 
ATOM      5  C   UNL     1      44.764   5.472  12.833  0.00  0.00    +0.000 A 
ATOM      6  C   UNL     1      45.939   4.843  13.266  0.00  0.00    +0.000 A 
ATOM      7  C   UNL     1      47.165   5.512  13.220  0.00  0.00    +0.000 A 
BRANCH   5   8
ATOM      8  C   UNL     1      43.455   4.720  12.832  0.00  0.00    +0.000 C 
BRANCH   8   9
ATOM      9  C   UNL     1      43.025   4.195  11.454  0.00  0.00    +0.000 C 
BRANCH   9  10
ATOM     10  C   UNL     1      43.766   2.920  11.037  0.00  0.00    +0.000 C 
BRANCH  10  11
ATOM     11  C   UNL     1      44.663   3.152   9.844  0.00  0.00    +0.000 A 
ATOM     12  C   UNL     1      45.148   2.068   9.098  0.00  0.00    +0.000 A 
ATOM     13  C   UNL     1      45.966   2.284   7.987  0.00  0.00    +0.000 A 
ATOM     14  C   UNL     1      46.312   3.581   7.615  0.00  0.00    +0.000 A 
ATOM     15  C   UNL     1      45.847   4.664   8.359  0.00  0.00    +0.000 A 
ATOM     16  C   UNL     1      45.030   4.451   9.471  0.00  0.00    +0.000 A 
ENDBRANCH  10  11
ENDBRANCH   9  10
ENDBRANCH   8   9
ENDBRANCH   5   8
ENDBRANCH   1   2
BRANCH   1  19
ATOM     17  C   UNL     1      49.309   7.516  14.979  0.00  0.00    +0.000 C 
ATOM     18  O   UNL     1      48.412   8.295  15.291  0.00  0.00    +0.000 OA
ATOM     19  N   UNL     1      49.466   7.097  13.686  0.00  0.00    +0.000 N 
ATOM     20  H   UNL     1      50.241   6.502  13.429  0.00  0.00    +0.000 HD
BRANCH  17  28
ATOM     21  C   UNL     1      52.752   7.435  15.225  0.00  0.00    +0.000 A 
ATOM     22  N   UNL     1      54.041   7.190  15.537  0.00  0.00    +0.000 NA
ATOM     23  C   UNL     1      54.302   6.501  16.650  0.00  0.00    +0.000 A 
ATOM     24  N   UNL     1      53.417   6.021  17.518  0.00  0.00    +0.000 NA
ATOM     25  C   UNL     1      52.146   6.273  17.167  0.00  0.00    +0.000 A 
ATOM     26  S   UNL     1      50.883   5.741  18.169  0.00  0.00    +0.000 S 
ATOM     27  C   UNL     1      49.713   6.369  17.111  0.00  0.00    +0.000 A 
ATOM     28  C   UNL     1      50.245   6.986  15.984  0.00  0.00    +0.000 A 
ATOM     29  C   UNL     1      51.706   6.955  16.034  0.00  0.00    +0.000 A 
BRANCH  21  31
ATOM     30  C   UNL     1      53.608   8.371  13.244  0.00  0.00    +0.000 C 
ATOM     31  O   UNL     1      52.482   8.191  14.102  0.00  0.00    +0.000 OA
ENDBRANCH  21  31
ENDBRANCH  17  28
ENDBRANCH   1  19
TORSDOF 8
ENDMDL
MODEL 9
REMARK VINA RESULT:    -6.698      3.807      8.415
REMARK INTER + INTRA:         -11.220
REMARK INTER:                  -8.660
REMARK INTRA:                  -2.560
REMARK UNBOUND:                -1.389
REMARK  Name = 
REMARK  9 active torsions:
REMARK  status: ('A' for Active; 'I' for Inactive)
REMARK    1  A    between atoms: C_1  and  O_2
REMARK    2  A    between atoms: O_2  and  C_3
REMARK    3  A    between atoms: C_10  and  C_11
REMARK    4  A    between atoms: N_13  and  C_14
REMARK    5  A    between atoms: C_14  and  C_15
REMARK    6  A    between atoms: C_18  and  C_19
REMARK    7  A    between atoms: C_19  and  C_20
REMARK    8  A    between atoms: C_20  and  C_21
REMARK    9  A    between atoms: C_21  and  C_22
REMARK                            x       y       z     vdW  Elec       q    Type
REMARK                         _______ _______ _______ _____ _____    ______ ____
ROOT
ATOM      1  C   UNL     1      48.411   8.450  14.457  0.00  0.00    +0.000 C 
ENDROOT
BRANCH   1   2
ATOM      2  C   UNL     1      48.858   8.114  15.855  0.00  0.00    +0.000 A 
ATOM      3  C   UNL     1      48.236   8.699  16.965  0.00  0.00    +0.000 A 
ATOM      4  C   UNL     1      48.630   8.359  18.262  0.00  0.00    +0.000 A 
ATOM      5  C   UNL     1      49.652   7.426  18.476  0.00  0.00    +0.000 A 
ATOM      6  C   UNL     1      50.310   6.882  17.365  0.00  0.00    +0.000 A 
ATOM      7  C   UNL     1      49.920   7.226  16.067  0.00  0.00    +0.000 A 
BRANCH   5   8
ATOM      8  C   UNL     1      50.043   7.004  19.873  0.00  0.00    +0.000 C 
BRANCH   8   9
ATOM      9  C   UNL     1      50.219   5.489  20.052  0.00  0.00    +0.000 C 
BRANCH   9  10
ATOM     10  C   UNL     1      48.888   4.728  20.078  0.00  0.00    +0.000 C 
BRANCH  10  11
ATOM     11  C   UNL     1      48.540   4.152  18.727  0.00  0.00    +0.000 A 
ATOM     12  C   UNL     1      49.331   3.145  18.158  0.00  0.00    +0.000 A 
ATOM     13  C   UNL     1      49.000   2.603  16.914  0.00  0.00    +0.000 A 
ATOM     14  C   UNL     1      47.881   3.066  16.225  0.00  0.00    +0.000 A 
ATOM     15  C   UNL     1      47.096   4.077  16.776  0.00  0.00    +0.000 A 
ATOM     16  C   UNL     1      47.426   4.621  18.019  0.00  0.00    +0.000 A 
ENDBRANCH  10  11
ENDBRANCH   9  10
ENDBRANCH   8   9
ENDBRANCH   5   8
ENDBRANCH   1   2
BRANCH   1  19
ATOM     17  C   UNL     1      47.690   6.456  13.229  0.00  0.00    +0.000 C 
ATOM     18  O   UNL     1      48.845   6.226  12.878  0.00  0.00    +0.000 OA
ATOM     19  N   UNL     1      47.388   7.545  14.000  0.00  0.00    +0.000 N 
ATOM     20  H   UNL     1      46.428   7.758  14.235  0.00  0.00    +0.000 HD
BRANCH  17  28
ATOM     21  C   UNL     1      44.610   6.966  11.756  0.00  0.00    +0.000 A 
ATOM     22  N   UNL     1      43.347   6.881  11.288  0.00  0.00    +0.000 NA
ATOM     23  C   UNL     1      42.758   5.683  11.273  0.00  0.00    +0.000 A 
ATOM     24  N   UNL     1      43.284   4.529  11.670  0.00  0.00    +0.000 NA
ATOM     25  C   UNL     1      44.535   4.656  12.142  0.00  0.00    +0.000 A 
ATOM     26  S   UNL     1      45.366   3.278  12.682  0.00  0.00    +0.000 S 
ATOM     27  C   UNL     1      46.726   4.202  13.102  0.00  0.00    +0.000 A 
ATOM     28  C   UNL     1      46.584   5.562  12.850  0.00  0.00    +0.000 A 
ATOM     29  C   UNL     1      45.280   5.829  12.245  0.00  0.00    +0.000 A 
BRANCH  21  31
ATOM     30  C   UNL     1      44.399   9.261  11.286  0.00  0.00    +0.000 C 
ATOM     31  O   UNL     1      45.239   8.194  11.725  0.00  0.00    +0.000 OA
ENDBRANCH  21  31
ENDBRANCH  17  28
ENDBRANCH   1  19
TORSDOF 8
ENDMDL
