MODEL 1
REMARK VINA RESULT:    -7.821      0.000      0.000
REMARK INTER + INTRA:         -10.112
REMARK INTER:                  -9.650
REMARK INTRA:                  -0.463
REMARK UNBOUND:                -0.463
REMARK  Name = 
REMARK  5 active torsions:
REMARK  status: ('A' for Active; 'I' for Inactive)
REMARK    1  A    between atoms: C_1  and  O_2
REMARK    2  A    between atoms: O_2  and  C_3
REMARK    3  A    between atoms: C_6  and  C_7
REMARK    4  A    between atoms: N_10  and  C_11
REMARK    5  A    between atoms: C_14  and  C_15
REMARK                            x       y       z     vdW  Elec       q    Type
REMARK                         _______ _______ _______ _____ _____    ______ ____
ROOT
ATOM      1  C   UNL     1      44.004   4.168  10.357  0.00  0.00    +0.000 C 
ATOM      2  C   UNL     1      44.590   5.568  10.653  0.00  0.00    +0.000 C 
ATOM      3  C   UNL     1      45.948   5.449  11.346  0.00  0.00    +0.000 C 
ATOM      4  N   UNL     1      45.742   4.748  12.620  0.00  0.00    +0.000 N 
ATOM      5  C   UNL     1      45.182   3.399  12.517  0.00  0.00    +0.000 C 
ATOM      6  C   UNL     1      43.877   3.430  11.708  0.00  0.00    +0.000 C 
ENDROOT
BRANCH   1  10
ATOM      7  C   UNL     1      46.703   2.308   7.519  0.00  0.00    +0.000 A 
ATOM      8  C   UNL     1      45.959   1.510   8.380  0.00  0.00    +0.000 A 
ATOM      9  C   UNL     1      45.006   2.083   9.228  0.00  0.00    +0.000 A 
ATOM     10  C   UNL     1      44.821   3.470   9.271  0.00  0.00    +0.000 A 
ATOM     11  C   UNL     1      45.496   4.247   8.317  0.00  0.00    +0.000 A 
ATOM     12  C   UNL     1      46.446   3.676   7.471  0.00  0.00    +0.000 A 
BRANCH   7  14
ATOM     13  C   UNL     1      47.761   2.461   5.411  0.00  0.00    +0.000 C 
ATOM     14  O   UNL     1      47.717   1.881   6.709  0.00  0.00    +0.000 OA
ENDBRANCH   7  14
ENDBRANCH   1  10
BRANCH   4  15
ATOM     15  C   UNL     1      46.569   5.070  13.688  0.00  0.00    +0.000 A 
ATOM     16  C   UNL     1      46.562   4.279  14.847  0.00  0.00    +0.000 A 
ATOM     17  C   UNL     1      47.471   4.503  15.881  0.00  0.00    +0.000 A 
ATOM     18  C   UNL     1      48.378   5.541  15.733  0.00  0.00    +0.000 A 
ATOM     19  N   UNL     1      48.419   6.367  14.651  0.00  0.00    +0.000 NA
ATOM     20  C   UNL     1      47.518   6.101  13.672  0.00  0.00    +0.000 A 
BRANCH  18  21
ATOM     21  C   UNL     1      49.420   5.766  16.778  0.00  0.00    +0.000 C 
ATOM     22  N   UNL     1      49.028   6.551  17.831  0.00  0.00    +0.000 N 
ATOM     23  O   UNL     1      50.548   5.298  16.705  0.00  0.00    +0.000 OA
ATOM     24  H   UNL     1      48.091   6.939  17.839  0.00  0.00    +0.000 HD
ATOM     25  H   UNL     1      49.686   6.773  18.560  0.00  0.00    +0.000 HD
ENDBRANCH  18  21
ENDBRANCH   4  15
TORSDOF 4
ENDMDL
MODEL 2
REMARK VINA RESULT:    -7.174      1.728      2.079
REMARK INTER + INTRA:          -9.315
REMARK INTER:                  -9.071
REMARK INTRA:                  -0.244
REMARK UNBOUND:                -0.463
REMARK  Name = 
REMARK  5 active torsions:
REMARK  status: ('A' for Active; 'I' for Inactive)
REMARK    1  A    between atoms: C_1  and  O_2
REMARK    2  A    between atoms: O_2  and  C_3
REMARK    3  A    between atoms: C_6  and  C_7
REMARK    4  A    between atoms: N_10  and  C_11
REMARK    5  A    between atoms: C_14  and  C_15
REMARK                            x       y       z     vdW  Elec       q    Type
REMARK                         _______ _______ _______ _____ _____    ______ ____
ROOT
ATOM      1  C   UNL     1      43.821   3.679  10.521  0.00  0.00    +0.000 C 
ATOM      2  C   UNL     1      43.771   5.221  10.430  0.00  0.00    +0.000 C 
ATOM      3  C   UNL     1      45.153   5.821  10.692  0.00  0.00    +0.000 C 
ATOM      4  N   UNL     1      45.557   5.443  12.053  0.00  0.00    +0.000 N 
ATOM      5  C   UNL     1      45.647   4.005  12.311  0.00  0.00    +0.000 C 
ATOM      6  C   UNL     1      44.325   3.318  11.935  0.00  0.00    +0.000 C 
ENDROOT
BRANCH   1  10
ATOM      7  C   UNL     1      46.443   2.239   7.382  0.00  0.00    +0.000 A 
ATOM      8  C   UNL     1      45.961   1.348   8.334  0.00  0.00    +0.000 A 
ATOM      9  C   UNL     1      45.031   1.769   9.289  0.00  0.00    +0.000 A 
ATOM     10  C   UNL     1      44.611   3.103   9.345  0.00  0.00    +0.000 A 
ATOM     11  C   UNL     1      45.018   3.959   8.311  0.00  0.00    +0.000 A 
ATOM     12  C   UNL     1      45.945   3.539   7.357  0.00  0.00    +0.000 A 
BRANCH   7  14
ATOM     13  C   UNL     1      47.370   2.758   5.271  0.00  0.00    +0.000 C 
ATOM     14  O   UNL     1      47.411   1.973   6.455  0.00  0.00    +0.000 OA
ENDBRANCH   7  14
ENDBRANCH   1  10
BRANCH   4  15
ATOM     15  C   UNL     1      46.360   6.321  12.768  0.00  0.00    +0.000 A 
ATOM     16  C   UNL     1      46.074   7.695  12.770  0.00  0.00    +0.000 A 
ATOM     17  C   UNL     1      46.786   8.581  13.578  0.00  0.00    +0.000 A 
ATOM     18  C   UNL     1      47.794   8.062  14.376  0.00  0.00    +0.000 A 
ATOM     19  N   UNL     1      48.147   6.747  14.399  0.00  0.00    +0.000 NA
ATOM     20  C   UNL     1      47.419   5.929  13.598  0.00  0.00    +0.000 A 
BRANCH  18  21
ATOM     21  C   UNL     1      48.529   8.961  15.316  0.00  0.00    +0.000 C 
ATOM     22  N   UNL     1      47.774   9.475  16.338  0.00  0.00    +0.000 N 
ATOM     23  O   UNL     1      49.714   9.234  15.187  0.00  0.00    +0.000 OA
ATOM     24  H   UNL     1      46.789   9.241  16.393  0.00  0.00    +0.000 HD
ATOM     25  H   UNL     1      48.192  10.113  16.996  0.00  0.00    +0.000 HD
ENDBRANCH  18  21
ENDBRANCH   4  15
TORSDOF 4
ENDMDL
MODEL 3
REMARK VINA RESULT:    -6.390      3.029      8.372
REMARK INTER + INTRA:          -8.347
REMARK INTER:                  -7.977
REMARK INTRA:                  -0.370
REMARK UNBOUND:                -0.463
REMARK  Name = 
REMARK  5 active torsions:
REMARK  status: ('A' for Active; 'I' for Inactive)
REMARK    1  A    between atoms: C_1  and  O_2
REMARK    2  A    between atoms: O_2  and  C_3
REMARK    3  A    between atoms: C_6  and  C_7
REMARK    4  A    between atoms: N_10  and  C_11
REMARK    5  A    between atoms: C_14  and  C_15
REMARK                            x       y       z     vdW  Elec       q    Type
REMARK                         _______ _______ _______ _____ _____    ______ ____
ROOT
ATOM      1  C   UNL     1      48.541   4.140  17.898  0.00  0.00    +0.000 C 
ATOM      2  C   UNL     1      47.438   3.265  17.260  0.00  0.00    +0.000 C 
ATOM      3  C   UNL     1      47.545   3.290  15.735  0.00  0.00    +0.000 C 
ATOM      4  N   UNL     1      47.356   4.678  15.294  0.00  0.00    +0.000 N 
ATOM      5  C   UNL     1      48.321   5.645  15.817  0.00  0.00    +0.000 C 
ATOM      6  C   UNL     1      48.363   5.573  17.351  0.00  0.00    +0.000 C 
ENDROOT
BRANCH   1  10
ATOM      7  C   UNL     1      52.445   2.258  17.789  0.00  0.00    +0.000 A 
ATOM      8  C   UNL     1      51.328   1.542  17.372  0.00  0.00    +0.000 A 
ATOM      9  C   UNL     1      50.078   2.164  17.298  0.00  0.00    +0.000 A 
ATOM     10  C   UNL     1      49.912   3.497  17.696  0.00  0.00    +0.000 A 
ATOM     11  C   UNL     1      51.066   4.233  18.004  0.00  0.00    +0.000 A 
ATOM     12  C   UNL     1      52.313   3.614  18.076  0.00  0.00    +0.000 A 
BRANCH   7  14
ATOM     13  C   UNL     1      54.045   0.634  17.167  0.00  0.00    +0.000 C 
ATOM     14  O   UNL     1      53.696   1.744  17.983  0.00  0.00    +0.000 OA
ENDBRANCH   7  14
ENDBRANCH   1  10
BRANCH   4  15
ATOM     15  C   UNL     1      46.760   4.899  14.059  0.00  0.00    +0.000 A 
ATOM     16  C   UNL     1      47.160   5.988  13.270  0.00  0.00    +0.000 A 
ATOM     17  C   UNL     1      46.671   6.161  11.976  0.00  0.00    +0.000 A 
ATOM     18  C   UNL     1      45.767   5.227  11.494  0.00  0.00    +0.000 A 
ATOM     19  N   UNL     1      45.312   4.166  12.216  0.00  0.00    +0.000 NA
ATOM     20  C   UNL     1      45.824   4.041  13.466  0.00  0.00    +0.000 A 
BRANCH  18  21
ATOM     21  C   UNL     1      45.279   5.328  10.086  0.00  0.00    +0.000 C 
ATOM     22  N   UNL     1      43.927   5.169   9.926  0.00  0.00    +0.000 N 
ATOM     23  O   UNL     1      46.024   5.527   9.136  0.00  0.00    +0.000 OA
ATOM     24  H   UNL     1      43.350   4.982  10.738  0.00  0.00    +0.000 HD
ATOM     25  H   UNL     1      43.528   5.194   9.002  0.00  0.00    +0.000 HD
ENDBRANCH  18  21
ENDBRANCH   4  15
TORSDOF 4
ENDMDL
MODEL 4
REMARK VINA RESULT:    -5.674      4.261      7.473
REMARK INTER + INTRA:          -7.463
REMARK INTER:                  -6.967
REMARK INTRA:                  -0.496
REMARK UNBOUND:                -0.463
REMARK  Name = 
REMARK  5 active torsions:
REMARK  status: ('A' for Active; 'I' for Inactive)
REMARK    1  A    between atoms: C_1  and  O_2
REMARK    2  A    between atoms: O_2  and  C_3
REMARK    3  A    between atoms: C_6  and  C_7
REMARK    4  A    between atoms: N_10  and  C_11
REMARK    5  A    between atoms: C_14  and  C_15
REMARK                            x       y       z     vdW  Elec       q    Type
REMARK                         _______ _______ _______ _____ _____    ______ ____
ROOT
ATOM      1  C   UNL     1      49.221   8.818  14.221  0.00  0.00    +0.000 C 
ATOM      2  C   UNL     1      49.429   7.287  14.250  0.00  0.00    +0.000 C 
ATOM      3  C   UNL     1      48.720   6.624  13.068  0.00  0.00    +0.000 C 
ATOM      4  N   UNL     1      47.284   6.905  13.189  0.00  0.00    +0.000 N 
ATOM      5  C   UNL     1      46.914   8.321  13.185  0.00  0.00    +0.000 C 
ATOM      6  C   UNL     1      47.699   9.076  14.268  0.00  0.00    +0.000 C 
ENDROOT
BRANCH   1  10
ATOM      7  C   UNL     1      51.298  10.167  10.661  0.00  0.00    +0.000 A 
ATOM      8  C   UNL     1      50.042  10.685  10.959  0.00  0.00    +0.000 A 
ATOM      9  C   UNL     1      49.403  10.344  12.155  0.00  0.00    +0.000 A 
ATOM     10  C   UNL     1      49.983   9.434  13.047  0.00  0.00    +0.000 A 
ATOM     11  C   UNL     1      51.295   9.011  12.786  0.00  0.00    +0.000 A 
ATOM     12  C   UNL     1      51.933   9.352  11.594  0.00  0.00    +0.000 A 
BRANCH   7  14
ATOM     13  C   UNL     1      52.888   9.320   9.132  0.00  0.00    +0.000 C 
ATOM     14  O   UNL     1      51.984  10.355   9.494  0.00  0.00    +0.000 OA
ENDBRANCH   7  14
ENDBRANCH   1  10
BRANCH   4  15
ATOM     15  C   UNL     1      46.387   5.958  12.714  0.00  0.00    +0.000 A 
ATOM     16  C   UNL     1      45.844   6.085  11.427  0.00  0.00    +0.000 A 
ATOM     17  C   UNL     1      45.042   5.086  10.878  0.00  0.00    +0.000 A 
ATOM     18  C   UNL     1      44.788   3.962  11.649  0.00  0.00    +0.000 A 
ATOM     19  N   UNL     1      45.254   3.788  12.917  0.00  0.00    +0.000 NA
ATOM     20  C   UNL     1      46.034   4.788  13.400  0.00  0.00    +0.000 A 
BRANCH  18  21
ATOM     21  C   UNL     1      44.000   2.832  11.072  0.00  0.00    +0.000 C 
ATOM     22  N   UNL     1      44.555   2.241   9.968  0.00  0.00    +0.000 N 
ATOM     23  O   UNL     1      42.931   2.460  11.537  0.00  0.00    +0.000 OA
ATOM     24  H   UNL     1      45.431   2.597   9.601  0.00  0.00    +0.000 HD
ATOM     25  H   UNL     1      44.068   1.491   9.505  0.00  0.00    +0.000 HD
ENDBRANCH  18  21
ENDBRANCH   4  15
TORSDOF 4
ENDMDL
MODEL 5
REMARK VINA RESULT:    -5.627      3.530      9.393
REMARK INTER + INTRA:          -7.405
REMARK INTER:                  -6.914
REMARK INTRA:                  -0.491
REMARK UNBOUND:                -0.463
REMARK  Name = 
REMARK  5 active torsions:
REMARK  status: ('A' for Active; 'I' for Inactive)
REMARK    1  A    between atoms: C_1  and  O_2
REMARK    2  A    between atoms: O_2  and  C_3
REMARK    3  A    between atoms: C_6  and  C_7
REMARK    4  A    between atoms: N_10  and  C_11
REMARK    5  A    between atoms: C_14  and  C_15
REMARK                            x       y       z     vdW  Elec       q    Type
REMARK                         _______ _______ _______ _____ _____    ______ ____
ROOT
ATOM      1  C   UNL     1      49.311   8.538  15.280  0.00  0.00    +0.000 C 
ATOM      2  C   UNL     1      48.538   9.161  14.095  0.00  0.00    +0.000 C 
ATOM      3  C   UNL     1      47.177   8.485  13.924  0.00  0.00    +0.000 C 
ATOM      4  N   UNL     1      47.413   7.065  13.637  0.00  0.00    +0.000 N 
ATOM      5  C   UNL     1      48.145   6.323  14.665  0.00  0.00    +0.000 C 
ATOM      6  C   UNL     1      49.471   7.031  14.983  0.00  0.00    +0.000 C 
ENDROOT
BRANCH   1  10
ATOM      7  C   UNL     1      47.838   9.599  19.217  0.00  0.00    +0.000 A 
ATOM      8  C   UNL     1      47.848  10.557  18.210  0.00  0.00    +0.000 A 
ATOM      9  C   UNL     1      48.218  10.208  16.907  0.00  0.00    +0.000 A 
ATOM     10  C   UNL     1      48.640   8.908  16.603  0.00  0.00    +0.000 A 
ATOM     11  C   UNL     1      48.515   7.931  17.602  0.00  0.00    +0.000 A 
ATOM     12  C   UNL     1      48.145   8.279  18.901  0.00  0.00    +0.000 A 
BRANCH   7  14
ATOM     13  C   UNL     1      46.304  10.387  20.833  0.00  0.00    +0.000 C 
ATOM     14  O   UNL     1      47.579   9.832  20.539  0.00  0.00    +0.000 OA
ENDBRANCH   7  14
ENDBRANCH   1  10
BRANCH   4  15
ATOM     15  C   UNL     1      46.504   6.399  12.825  0.00  0.00    +0.000 A 
ATOM     16  C   UNL     1      46.489   6.637  11.442  0.00  0.00    +0.000 A 
ATOM     17  C   UNL     1      45.676   5.892  10.589  0.00  0.00    +0.000 A 
ATOM     18  C   UNL     1      44.874   4.911  11.151  0.00  0.00    +0.000 A 
ATOM     19  N   UNL     1      44.815   4.648  12.486  0.00  0.00    +0.000 NA
ATOM     20  C   UNL     1      45.630   5.398  13.270  0.00  0.00    +0.000 A 
BRANCH  18  21
ATOM     21  C   UNL     1      44.048   4.035  10.266  0.00  0.00    +0.000 C 
ATOM     22  N   UNL     1      44.071   4.364   8.936  0.00  0.00    +0.000 N 
ATOM     23  O   UNL     1      43.387   3.097  10.690  0.00  0.00    +0.000 OA
ATOM     24  H   UNL     1      44.614   5.165   8.633  0.00  0.00    +0.000 HD
ATOM     25  H   UNL     1      43.515   3.837   8.282  0.00  0.00    +0.000 HD
ENDBRANCH  18  21
ENDBRANCH   4  15
TORSDOF 4
ENDMDL
MODEL 6
REMARK VINA RESULT:    -5.551      3.209      8.600
REMARK INTER + INTRA:          -7.312
REMARK INTER:                  -6.817
REMARK INTRA:                  -0.495
REMARK UNBOUND:                -0.463
REMARK  Name = 
REMARK  5 active torsions:
REMARK  status: ('A' for Active; 'I' for Inactive)
REMARK    1  A    between atoms: C_1  and  O_2
REMARK    2  A    between atoms: O_2  and  C_3
REMARK    3  A    between atoms: C_6  and  C_7
REMARK    4  A    between atoms: N_10  and  C_11
REMARK    5  A    between atoms: C_14  and  C_15
REMARK                            x       y       z     vdW  Elec       q    Type
REMARK                         _______ _______ _______ _____ _____    ______ ____
ROOT
ATOM      1  C   UNL     1      49.212   9.129  13.326  0.00  0.00    +0.000 C 
ATOM      2  C   UNL     1      47.730   9.383  12.963  0.00  0.00    +0.000 C 
ATOM      3  C   UNL     1      46.869   8.176  13.338  0.00  0.00    +0.000 C 
ATOM      4  N   UNL     1      47.350   7.023  12.567  0.00  0.00    +0.000 N 
ATOM      5  C   UNL     1      48.748   6.650  12.790  0.00  0.00    +0.000 C 
ATOM      6  C   UNL     1      49.661   7.864  12.561  0.00  0.00    +0.000 C 
ENDROOT
BRANCH   1  10
ATOM      7  C   UNL     1      49.296   8.872  17.653  0.00  0.00    +0.000 A 
ATOM      8  C   UNL     1      50.076   8.002  16.901  0.00  0.00    +0.000 A 
ATOM      9  C   UNL     1      50.146   8.138  15.511  0.00  0.00    +0.000 A 
ATOM     10  C   UNL     1      49.390   9.110  14.844  0.00  0.00    +0.000 A 
ATOM     11  C   UNL     1      48.699  10.048  15.625  0.00  0.00    +0.000 A 
ATOM     12  C   UNL     1      48.631   9.913  17.012  0.00  0.00    +0.000 A 
BRANCH   7  14
ATOM     13  C   UNL     1      48.398   7.627  19.450  0.00  0.00    +0.000 C 
ATOM     14  O   UNL     1      49.080   8.790  19.000  0.00  0.00    +0.000 OA
ENDBRANCH   7  14
ENDBRANCH   1  10
BRANCH   4  15
ATOM     15  C   UNL     1      46.430   6.052  12.195  0.00  0.00    +0.000 A 
ATOM     16  C   UNL     1      45.944   6.009  10.880  0.00  0.00    +0.000 A 
ATOM     17  C   UNL     1      45.120   4.971  10.447  0.00  0.00    +0.000 A 
ATOM     18  C   UNL     1      44.787   3.984  11.361  0.00  0.00    +0.000 A 
ATOM     19  N   UNL     1      45.196   3.979  12.659  0.00  0.00    +0.000 NA
ATOM     20  C   UNL     1      46.001   5.008  13.027  0.00  0.00    +0.000 A 
BRANCH  18  21
ATOM     21  C   UNL     1      43.973   2.811  10.919  0.00  0.00    +0.000 C 
ATOM     22  N   UNL     1      44.434   2.173   9.798  0.00  0.00    +0.000 N 
ATOM     23  O   UNL     1      42.961   2.446  11.502  0.00  0.00    +0.000 OA
ATOM     24  H   UNL     1      45.263   2.524   9.332  0.00  0.00    +0.000 HD
ATOM     25  H   UNL     1      43.921   1.391   9.422  0.00  0.00    +0.000 HD
ENDBRANCH  18  21
ENDBRANCH   4  15
TORSDOF 4
ENDMDL
MODEL 7
REMARK VINA RESULT:    -5.374      4.382      7.149
REMARK INTER + INTRA:          -7.094
REMARK INTER:                  -6.661
REMARK INTRA:                  -0.432
REMARK UNBOUND:                -0.463
REMARK  Name = 
REMARK  5 active torsions:
REMARK  status: ('A' for Active; 'I' for Inactive)
REMARK    1  A    between atoms: C_1  and  O_2
REMARK    2  A    between atoms: O_2  and  C_3
REMARK    3  A    between atoms: C_6  and  C_7
REMARK    4  A    between atoms: N_10  and  C_11
REMARK    5  A    between atoms: C_14  and  C_15
REMARK                            x       y       z     vdW  Elec       q    Type
REMARK                         _______ _______ _______ _____ _____    ______ ____
ROOT
ATOM      1  C   UNL     1      47.596   4.592  16.895  0.00  0.00    +0.000 C 
ATOM      2  C   UNL     1      48.780   5.256  17.634  0.00  0.00    +0.000 C 
ATOM      3  C   UNL     1      50.111   4.689  17.137  0.00  0.00    +0.000 C 
ATOM      4  N   UNL     1      50.123   3.249  17.428  0.00  0.00    +0.000 N 
ATOM      5  C   UNL     1      49.054   2.468  16.804  0.00  0.00    +0.000 C 
ATOM      6  C   UNL     1      47.686   3.072  17.155  0.00  0.00    +0.000 C 
ENDROOT
BRANCH   1  10
ATOM      7  C   UNL     1      47.091   6.022  12.832  0.00  0.00    +0.000 A 
ATOM      8  C   UNL     1      47.939   6.704  13.698  0.00  0.00    +0.000 A 
ATOM      9  C   UNL     1      48.198   6.200  14.976  0.00  0.00    +0.000 A 
ATOM     10  C   UNL     1      47.568   5.035  15.432  0.00  0.00    +0.000 A 
ATOM     11  C   UNL     1      46.808   4.301  14.509  0.00  0.00    +0.000 A 
ATOM     12  C   UNL     1      46.551   4.803  13.234  0.00  0.00    +0.000 A 
BRANCH   7  14
ATOM     13  C   UNL     1      45.628   5.727  11.001  0.00  0.00    +0.000 C 
ATOM     14  O   UNL     1      46.694   6.453  11.598  0.00  0.00    +0.000 OA
ENDBRANCH   7  14
ENDBRANCH   1  10
BRANCH   4  15
ATOM     15  C   UNL     1      51.342   2.646  17.707  0.00  0.00    +0.000 A 
ATOM     16  C   UNL     1      52.389   3.397  18.262  0.00  0.00    +0.000 A 
ATOM     17  C   UNL     1      53.577   2.792  18.669  0.00  0.00    +0.000 A 
ATOM     18  C   UNL     1      53.697   1.421  18.501  0.00  0.00    +0.000 A 
ATOM     19  N   UNL     1      52.735   0.636  17.941  0.00  0.00    +0.000 NA
ATOM     20  C   UNL     1      51.597   1.275  17.568  0.00  0.00    +0.000 A 
BRANCH  18  21
ATOM     21  C   UNL     1      54.919   0.719  18.996  0.00  0.00    +0.000 C 
ATOM     22  N   UNL     1      55.087   0.733  20.356  0.00  0.00    +0.000 N 
ATOM     23  O   UNL     1      55.722   0.176  18.250  0.00  0.00    +0.000 OA
ATOM     24  H   UNL     1      54.408   1.216  20.935  0.00  0.00    +0.000 HD
ATOM     25  H   UNL     1      55.903   0.306  20.763  0.00  0.00    +0.000 HD
ENDBRANCH  18  21
ENDBRANCH   4  15
TORSDOF 4
ENDMDL
