MODEL 1
REMARK VINA RESULT:    -8.196      0.000      0.000
REMARK INTER + INTRA:         -11.958
REMARK INTER:                 -11.071
REMARK INTRA:                  -0.887
REMARK UNBOUND:                -0.887
REMARK  Name = 
REMARK  7 active torsions:
REMARK  status: ('A' for Active; 'I' for Inactive)
REMARK    1  A    between atoms: C_1  and  C_2
REMARK    2  A    between atoms: C_2  and  C_3
REMARK    3  A    between atoms: C_2  and  C_15
REMARK    4  A    between atoms: C_3  and  N_4
REMARK    5  A    between atoms: N_4  and  C_5
REMARK    6  A    between atoms: C_8  and  C_9
REMARK    7  A    between atoms: C_19  and  C_20
REMARK                            x       y       z     vdW  Elec       q    Type
REMARK                         _______ _______ _______ _____ _____    ______ ____
ROOT
ATOM      1  N   UNL     1      43.714   3.406  10.328  0.00  0.00    +0.000 N 
ATOM      2  H   UNL     1      42.834   2.949  10.099  0.00  0.00    +0.000 HD
ENDROOT
BRANCH   1   3
ATOM      3  C   UNL     1      44.698   3.127   9.370  0.00  0.00    +0.000 A 
ATOM      4  C   UNL     1      45.215   4.167   8.586  0.00  0.00    +0.000 A 
ATOM      5  C   UNL     1      46.175   3.919   7.593  0.00  0.00    +0.000 A 
ATOM      6  C   UNL     1      46.610   2.612   7.344  0.00  0.00    +0.000 A 
ATOM      7  C   UNL     1      46.052   1.573   8.086  0.00  0.00    +0.000 A 
ATOM      8  F   UNL     1      46.408   0.296   7.880  0.00  0.00    +0.000 F 
ATOM      9  C   UNL     1      45.099   1.823   9.069  0.00  0.00    +0.000 A 
BRANCH   6  10
ATOM     10  C   UNL     1      47.639   2.376   6.303  0.00  0.00    +0.000 C 
ATOM     11  N   UNL     1      47.462   2.959   5.080  0.00  0.00    +0.000 N 
ATOM     12  O   UNL     1      48.618   1.674   6.525  0.00  0.00    +0.000 OA
ATOM     13  H   UNL     1      46.669   3.551   4.863  0.00  0.00    +0.000 HD
ATOM     14  H   UNL     1      48.162   2.804   4.369  0.00  0.00    +0.000 HD
ENDBRANCH   6  10
ENDBRANCH   1   3
BRANCH   1  15
ATOM     15  C   UNL     1      43.514   4.809  10.684  0.00  0.00    +0.000 C 
BRANCH  15  17
ATOM     16  C   UNL     1      42.899   5.145  13.153  0.00  0.00    +0.000 C 
ATOM     17  C   UNL     1      43.954   4.982  12.104  0.00  0.00    +0.000 C 
BRANCH  17  18
ATOM     18  C   UNL     1      45.326   5.433  12.358  0.00  0.00    +0.000 A 
ATOM     19  C   UNL     1      45.994   6.255  11.442  0.00  0.00    +0.000 A 
ATOM     20  C   UNL     1      47.272   6.744  11.726  0.00  0.00    +0.000 A 
ATOM     21  C   UNL     1      47.886   6.421  12.935  0.00  0.00    +0.000 A 
ATOM     22  C   UNL     1      47.233   5.593  13.851  0.00  0.00    +0.000 A 
ATOM     23  C   UNL     1      45.962   5.095  13.555  0.00  0.00    +0.000 A 
BRANCH  22  24
ATOM     24  C   UNL     1      47.844   5.272  15.105  0.00  0.00    +0.000 C 
ATOM     25  N   UNL     1      48.318   5.002  16.130  0.00  0.00    +0.000 NA
ENDBRANCH  22  24
ENDBRANCH  17  18
ENDBRANCH  15  17
ENDBRANCH   1  15
TORSDOF 6
ENDMDL
MODEL 2
REMARK VINA RESULT:    -7.855      1.904      2.287
REMARK INTER + INTRA:         -11.498
REMARK INTER:                 -10.676
REMARK INTRA:                  -0.822
REMARK UNBOUND:                -0.887
REMARK  Name = 
REMARK  7 active torsions:
REMARK  status: ('A' for Active; 'I' for Inactive)
REMARK    1  A    between atoms: C_1  and  C_2
REMARK    2  A    between atoms: C_2  and  C_3
REMARK    3  A    between atoms: C_2  and  C_15
REMARK    4  A    between atoms: C_3  and  N_4
REMARK    5  A    between atoms: N_4  and  C_5
REMARK    6  A    between atoms: C_8  and  C_9
REMARK    7  A    between atoms: C_19  and  C_20
REMARK                            x       y       z     vdW  Elec       q    Type
REMARK                         _______ _______ _______ _____ _____    ______ ____
ROOT
ATOM      1  N   UNL     1      43.787   3.195  10.607  0.00  0.00    +0.000 N 
ATOM      2  H   UNL     1      43.147   3.967  10.433  0.00  0.00    +0.000 HD
ENDROOT
BRANCH   1   3
ATOM      3  C   UNL     1      44.703   3.045   9.557  0.00  0.00    +0.000 A 
ATOM      4  C   UNL     1      45.056   4.160   8.784  0.00  0.00    +0.000 A 
ATOM      5  C   UNL     1      45.942   4.041   7.703  0.00  0.00    +0.000 A 
ATOM      6  C   UNL     1      46.465   2.790   7.354  0.00  0.00    +0.000 A 
ATOM      7  C   UNL     1      46.067   1.675   8.088  0.00  0.00    +0.000 A 
ATOM      8  F   UNL     1      46.513   0.445   7.790  0.00  0.00    +0.000 F 
ATOM      9  C   UNL     1      45.187   1.796   9.160  0.00  0.00    +0.000 A 
BRANCH   6  10
ATOM     10  C   UNL     1      47.414   2.692   6.218  0.00  0.00    +0.000 C 
ATOM     11  N   UNL     1      48.708   2.353   6.489  0.00  0.00    +0.000 N 
ATOM     12  O   UNL     1      47.052   2.915   5.069  0.00  0.00    +0.000 OA
ATOM     13  H   UNL     1      49.040   2.155   7.425  0.00  0.00    +0.000 HD
ATOM     14  H   UNL     1      49.357   2.282   5.718  0.00  0.00    +0.000 HD
ENDBRANCH   6  10
ENDBRANCH   1   3
BRANCH   1  15
ATOM     15  C   UNL     1      44.332   3.243  11.962  0.00  0.00    +0.000 C 
BRANCH  15  17
ATOM     16  C   UNL     1      42.648   5.139  12.357  0.00  0.00    +0.000 C 
ATOM     17  C   UNL     1      44.034   4.598  12.522  0.00  0.00    +0.000 C 
BRANCH  17  18
ATOM     18  C   UNL     1      45.156   5.506  12.784  0.00  0.00    +0.000 A 
ATOM     19  C   UNL     1      46.377   5.019  13.268  0.00  0.00    +0.000 A 
ATOM     20  C   UNL     1      47.465   5.878  13.442  0.00  0.00    +0.000 A 
ATOM     21  C   UNL     1      47.341   7.230  13.123  0.00  0.00    +0.000 A 
ATOM     22  C   UNL     1      46.125   7.726  12.650  0.00  0.00    +0.000 A 
ATOM     23  C   UNL     1      45.036   6.866  12.493  0.00  0.00    +0.000 A 
BRANCH  22  24
ATOM     24  C   UNL     1      45.992   9.108  12.299  0.00  0.00    +0.000 C 
ATOM     25  N   UNL     1      45.875  10.222  11.992  0.00  0.00    +0.000 NA
ENDBRANCH  22  24
ENDBRANCH  17  18
ENDBRANCH  15  17
ENDBRANCH   1  15
TORSDOF 6
ENDMDL
MODEL 3
REMARK VINA RESULT:    -7.647      3.243      6.326
REMARK INTER + INTRA:         -11.217
REMARK INTER:                 -10.111
REMARK INTRA:                  -1.107
REMARK UNBOUND:                -0.887
REMARK  Name = 
REMARK  7 active torsions:
REMARK  status: ('A' for Active; 'I' for Inactive)
REMARK    1  A    between atoms: C_1  and  C_2
REMARK    2  A    between atoms: C_2  and  C_3
REMARK    3  A    between atoms: C_2  and  C_15
REMARK    4  A    between atoms: C_3  and  N_4
REMARK    5  A    between atoms: N_4  and  C_5
REMARK    6  A    between atoms: C_8  and  C_9
REMARK    7  A    between atoms: C_19  and  C_20
REMARK                            x       y       z     vdW  Elec       q    Type
REMARK                         _______ _______ _______ _____ _____    ______ ____
ROOT
ATOM      1  N   UNL     1      43.765   5.148  12.457  0.00  0.00    +0.000 N 
ATOM      2  H   UNL     1      43.566   4.299  12.982  0.00  0.00    +0.000 HD
ENDROOT
BRANCH   1   3
ATOM      3  C   UNL     1      45.059   5.617  12.718  0.00  0.00    +0.000 A 
ATOM      4  C   UNL     1      45.626   6.585  11.877  0.00  0.00    +0.000 A 
ATOM      5  C   UNL     1      46.933   7.052  12.086  0.00  0.00    +0.000 A 
ATOM      6  C   UNL     1      47.711   6.528  13.126  0.00  0.00    +0.000 A 
ATOM      7  C   UNL     1      47.165   5.525  13.924  0.00  0.00    +0.000 A 
ATOM      8  F   UNL     1      47.866   4.965  14.921  0.00  0.00    +0.000 F 
ATOM      9  C   UNL     1      45.869   5.064  13.713  0.00  0.00    +0.000 A 
BRANCH   6  10
ATOM     10  C   UNL     1      49.082   7.050  13.339  0.00  0.00    +0.000 C 
ATOM     11  N   UNL     1      49.949   7.029  12.284  0.00  0.00    +0.000 N 
ATOM     12  O   UNL     1      49.435   7.482  14.430  0.00  0.00    +0.000 OA
ATOM     13  H   UNL     1      49.691   6.686  11.367  0.00  0.00    +0.000 HD
ATOM     14  H   UNL     1      50.884   7.386  12.423  0.00  0.00    +0.000 HD
ENDBRANCH   6  10
ENDBRANCH   1   3
BRANCH   1  15
ATOM     15  C   UNL     1      43.376   5.018  11.055  0.00  0.00    +0.000 C 
BRANCH  15  17
ATOM     16  C   UNL     1      43.448   2.507  11.582  0.00  0.00    +0.000 C 
ATOM     17  C   UNL     1      43.708   3.625  10.621  0.00  0.00    +0.000 C 
BRANCH  17  18
ATOM     18  C   UNL     1      44.657   3.447   9.517  0.00  0.00    +0.000 A 
ATOM     19  C   UNL     1      45.204   4.551   8.853  0.00  0.00    +0.000 A 
ATOM     20  C   UNL     1      46.166   4.376   7.855  0.00  0.00    +0.000 A 
ATOM     21  C   UNL     1      46.595   3.092   7.522  0.00  0.00    +0.000 A 
ATOM     22  C   UNL     1      46.048   1.983   8.171  0.00  0.00    +0.000 A 
ATOM     23  C   UNL     1      45.076   2.164   9.157  0.00  0.00    +0.000 A 
BRANCH  22  24
ATOM     24  C   UNL     1      46.496   0.661   7.852  0.00  0.00    +0.000 C 
ATOM     25  N   UNL     1      46.847  -0.420   7.614  0.00  0.00    +0.000 NA
ENDBRANCH  22  24
ENDBRANCH  17  18
ENDBRANCH  15  17
ENDBRANCH   1  15
TORSDOF 6
ENDMDL
MODEL 4
REMARK VINA RESULT:    -7.518      1.855      2.478
REMARK INTER + INTRA:         -11.042
REMARK INTER:                 -10.461
REMARK INTRA:                  -0.581
REMARK UNBOUND:                -0.887
REMARK  Name = 
REMARK  7 active torsions:
REMARK  status: ('A' for Active; 'I' for Inactive)
REMARK    1  A    between atoms: C_1  and  C_2
REMARK    2  A    between atoms: C_2  and  C_3
REMARK    3  A    between atoms: C_2  and  C_15
REMARK    4  A    between atoms: C_3  and  N_4
REMARK    5  A    between atoms: N_4  and  C_5
REMARK    6  A    between atoms: C_8  and  C_9
REMARK    7  A    between atoms: C_19  and  C_20
REMARK                            x       y       z     vdW  Elec       q    Type
REMARK                         _______ _______ _______ _____ _____    ______ ____
ROOT
ATOM      1  N   UNL     1      43.525   4.607  10.069  0.00  0.00    +0.000 N 
ATOM      2  H   UNL     1      42.788   4.996   9.485  0.00  0.00    +0.000 HD
ENDROOT
BRANCH   1   3
ATOM      3  C   UNL     1      44.432   3.855   9.309  0.00  0.00    +0.000 A 
ATOM      4  C   UNL     1      44.459   2.460   9.445  0.00  0.00    +0.000 A 
ATOM      5  C   UNL     1      45.377   1.679   8.728  0.00  0.00    +0.000 A 
ATOM      6  C   UNL     1      46.314   2.287   7.884  0.00  0.00    +0.000 A 
ATOM      7  C   UNL     1      46.323   3.678   7.796  0.00  0.00    +0.000 A 
ATOM      8  F   UNL     1      47.210   4.324   7.023  0.00  0.00    +0.000 F 
ATOM      9  C   UNL     1      45.411   4.450   8.509  0.00  0.00    +0.000 A 
BRANCH   6  10
ATOM     10  C   UNL     1      47.262   1.440   7.123  0.00  0.00    +0.000 C 
ATOM     11  N   UNL     1      48.401   2.021   6.642  0.00  0.00    +0.000 N 
ATOM     12  O   UNL     1      47.032   0.253   6.922  0.00  0.00    +0.000 OA
ATOM     13  H   UNL     1      48.627   2.996   6.796  0.00  0.00    +0.000 HD
ATOM     14  H   UNL     1      49.052   1.446   6.126  0.00  0.00    +0.000 HD
ENDBRANCH   6  10
ENDBRANCH   1   3
BRANCH   1  15
ATOM     15  C   UNL     1      44.086   5.611  10.970  0.00  0.00    +0.000 C 
BRANCH  15  17
ATOM     16  C   UNL     1      43.605   4.061  12.958  0.00  0.00    +0.000 C 
ATOM     17  C   UNL     1      44.579   4.898  12.190  0.00  0.00    +0.000 C 
BRANCH  17  18
ATOM     18  C   UNL     1      45.806   5.382  12.831  0.00  0.00    +0.000 A 
ATOM     19  C   UNL     1      46.246   4.841  14.046  0.00  0.00    +0.000 A 
ATOM     20  C   UNL     1      47.455   5.253  14.611  0.00  0.00    +0.000 A 
ATOM     21  C   UNL     1      48.239   6.203  13.959  0.00  0.00    +0.000 A 
ATOM     22  C   UNL     1      47.805   6.757  12.752  0.00  0.00    +0.000 A 
ATOM     23  C   UNL     1      46.588   6.353  12.200  0.00  0.00    +0.000 A 
BRANCH  22  24
ATOM     24  C   UNL     1      48.611   7.717  12.062  0.00  0.00    +0.000 C 
ATOM     25  N   UNL     1      49.270   8.508  11.525  0.00  0.00    +0.000 NA
ENDBRANCH  22  24
ENDBRANCH  17  18
ENDBRANCH  15  17
ENDBRANCH   1  15
TORSDOF 6
ENDMDL
MODEL 5
REMARK VINA RESULT:    -6.708      3.652      7.015
REMARK INTER + INTRA:          -9.949
REMARK INTER:                  -9.217
REMARK INTRA:                  -0.731
REMARK UNBOUND:                -0.887
REMARK  Name = 
REMARK  7 active torsions:
REMARK  status: ('A' for Active; 'I' for Inactive)
REMARK    1  A    between atoms: C_1  and  C_2
REMARK    2  A    between atoms: C_2  and  C_3
REMARK    3  A    between atoms: C_2  and  C_15
REMARK    4  A    between atoms: C_3  and  N_4
REMARK    5  A    between atoms: N_4  and  C_5
REMARK    6  A    between atoms: C_8  and  C_9
REMARK    7  A    between atoms: C_19  and  C_20
REMARK                            x       y       z     vdW  Elec       q    Type
REMARK                         _______ _______ _______ _____ _____    ______ ____
ROOT
ATOM      1  N   UNL     1      44.775   5.501  11.970  0.00  0.00    +0.000 N 
ATOM      2  H   UNL     1      45.212   4.647  12.311  0.00  0.00    +0.000 HD
ENDROOT
BRANCH   1   3
ATOM      3  C   UNL     1      45.605   6.613  12.171  0.00  0.00    +0.000 A 
ATOM      4  C   UNL     1      45.072   7.780  12.736  0.00  0.00    +0.000 A 
ATOM      5  C   UNL     1      45.864   8.924  12.919  0.00  0.00    +0.000 A 
ATOM      6  C   UNL     1      47.201   8.930  12.504  0.00  0.00    +0.000 A 
ATOM      7  C   UNL     1      47.711   7.788  11.890  0.00  0.00    +0.000 A 
ATOM      8  F   UNL     1      48.977   7.738  11.448  0.00  0.00    +0.000 F 
ATOM      9  C   UNL     1      46.923   6.655  11.709  0.00  0.00    +0.000 A 
BRANCH   6  10
ATOM     10  C   UNL     1      48.023  10.144  12.724  0.00  0.00    +0.000 C 
ATOM     11  N   UNL     1      48.253  10.541  14.010  0.00  0.00    +0.000 N 
ATOM     12  O   UNL     1      48.478  10.781  11.782  0.00  0.00    +0.000 OA
ATOM     13  H   UNL     1      47.899  10.035  14.813  0.00  0.00    +0.000 HD
ATOM     14  H   UNL     1      48.815  11.366  14.165  0.00  0.00    +0.000 HD
ENDBRANCH   6  10
ENDBRANCH   1   3
BRANCH   1  15
ATOM     15  C   UNL     1      44.217   5.323  10.632  0.00  0.00    +0.000 C 
BRANCH  15  17
ATOM     16  C   UNL     1      43.931   2.876  11.351  0.00  0.00    +0.000 C 
ATOM     17  C   UNL     1      44.305   3.868  10.294  0.00  0.00    +0.000 C 
BRANCH  17  18
ATOM     18  C   UNL     1      45.152   3.464   9.167  0.00  0.00    +0.000 A 
ATOM     19  C   UNL     1      45.759   4.421   8.344  0.00  0.00    +0.000 A 
ATOM     20  C   UNL     1      46.626   4.031   7.321  0.00  0.00    +0.000 A 
ATOM     21  C   UNL     1      46.901   2.679   7.121  0.00  0.00    +0.000 A 
ATOM     22  C   UNL     1      46.293   1.716   7.930  0.00  0.00    +0.000 A 
ATOM     23  C   UNL     1      45.415   2.111   8.941  0.00  0.00    +0.000 A 
BRANCH  22  24
ATOM     24  C   UNL     1      46.584   0.326   7.748  0.00  0.00    +0.000 C 
ATOM     25  N   UNL     1      46.801  -0.802   7.583  0.00  0.00    +0.000 NA
ENDBRANCH  22  24
ENDBRANCH  17  18
ENDBRANCH  15  17
ENDBRANCH   1  15
TORSDOF 6
ENDMDL
MODEL 6
REMARK VINA RESULT:    -6.284      3.448      7.215
REMARK INTER + INTRA:          -9.376
REMARK INTER:                  -8.888
REMARK INTRA:                  -0.487
REMARK UNBOUND:                -0.887
REMARK  Name = 
REMARK  7 active torsions:
REMARK  status: ('A' for Active; 'I' for Inactive)
REMARK    1  A    between atoms: C_1  and  C_2
REMARK    2  A    between atoms: C_2  and  C_3
REMARK    3  A    between atoms: C_2  and  C_15
REMARK    4  A    between atoms: C_3  and  N_4
REMARK    5  A    between atoms: N_4  and  C_5
REMARK    6  A    between atoms: C_8  and  C_9
REMARK    7  A    between atoms: C_19  and  C_20
REMARK                            x       y       z     vdW  Elec       q    Type
REMARK                         _______ _______ _______ _____ _____    ______ ____
ROOT
ATOM      1  N   UNL     1      46.229   5.959  11.387  0.00  0.00    +0.000 N 
ATOM      2  H   UNL     1      46.916   6.388  10.770  0.00  0.00    +0.000 HD
ENDROOT
BRANCH   1   3
ATOM      3  C   UNL     1      46.761   5.729  12.662  0.00  0.00    +0.000 A 
ATOM      4  C   UNL     1      46.274   4.665  13.433  0.00  0.00    +0.000 A 
ATOM      5  C   UNL     1      46.758   4.425  14.728  0.00  0.00    +0.000 A 
ATOM      6  C   UNL     1      47.717   5.275  15.290  0.00  0.00    +0.000 A 
ATOM      7  C   UNL     1      48.157   6.367  14.544  0.00  0.00    +0.000 A 
ATOM      8  F   UNL     1      49.058   7.233  15.034  0.00  0.00    +0.000 F 
ATOM      9  C   UNL     1      47.675   6.601  13.260  0.00  0.00    +0.000 A 
BRANCH   6  10
ATOM     10  C   UNL     1      48.227   4.993  16.654  0.00  0.00    +0.000 C 
ATOM     11  N   UNL     1      47.639   5.634  17.706  0.00  0.00    +0.000 N 
ATOM     12  O   UNL     1      49.153   4.211  16.836  0.00  0.00    +0.000 OA
ATOM     13  H   UNL     1      46.866   6.280  17.594  0.00  0.00    +0.000 HD
ATOM     14  H   UNL     1      47.980   5.442  18.637  0.00  0.00    +0.000 HD
ENDBRANCH   6  10
ENDBRANCH   1   3
BRANCH   1  15
ATOM     15  C   UNL     1      44.942   6.648  11.318  0.00  0.00    +0.000 C 
BRANCH  15  17
ATOM     16  C   UNL     1      42.596   5.651  11.620  0.00  0.00    +0.000 C 
ATOM     17  C   UNL     1      43.912   5.643  10.907  0.00  0.00    +0.000 C 
BRANCH  17  18
ATOM     18  C   UNL     1      44.357   4.444  10.188  0.00  0.00    +0.000 A 
ATOM     19  C   UNL     1      43.985   3.165  10.621  0.00  0.00    +0.000 A 
ATOM     20  C   UNL     1      44.348   2.034   9.887  0.00  0.00    +0.000 A 
ATOM     21  C   UNL     1      45.078   2.175   8.707  0.00  0.00    +0.000 A 
ATOM     22  C   UNL     1      45.462   3.445   8.273  0.00  0.00    +0.000 A 
ATOM     23  C   UNL     1      45.110   4.572   9.018  0.00  0.00    +0.000 A 
BRANCH  22  24
ATOM     24  C   UNL     1      46.193   3.604   7.052  0.00  0.00    +0.000 C 
ATOM     25  N   UNL     1      46.781   3.758   6.062  0.00  0.00    +0.000 NA
ENDBRANCH  22  24
ENDBRANCH  17  18
ENDBRANCH  15  17
ENDBRANCH   1  15
TORSDOF 6
ENDMDL
MODEL 7
REMARK VINA RESULT:    -6.083      4.118      7.809
REMARK INTER + INTRA:          -9.104
REMARK INTER:                  -8.179
REMARK INTRA:                  -0.925
REMARK UNBOUND:                -0.887
REMARK  Name = 
REMARK  7 active torsions:
REMARK  status: ('A' for Active; 'I' for Inactive)
REMARK    1  A    between atoms: C_1  and  C_2
REMARK    2  A    between atoms: C_2  and  C_3
REMARK    3  A    between atoms: C_2  and  C_15
REMARK    4  A    between atoms: C_3  and  N_4
REMARK    5  A    between atoms: N_4  and  C_5
REMARK    6  A    between atoms: C_8  and  C_9
REMARK    7  A    between atoms: C_19  and  C_20
REMARK                            x       y       z     vdW  Elec       q    Type
REMARK                         _______ _______ _______ _____ _____    ______ ____
ROOT
ATOM      1  N   UNL     1      47.291   6.935  13.954  0.00  0.00    +0.000 N 
ATOM      2  H   UNL     1      46.365   7.283  14.191  0.00  0.00    +0.000 HD
ENDROOT
BRANCH   1   3
ATOM      3  C   UNL     1      47.751   6.020  14.911  0.00  0.00    +0.000 A 
ATOM      4  C   UNL     1      47.156   4.753  14.998  0.00  0.00    +0.000 A 
ATOM      5  C   UNL     1      47.566   3.824  15.967  0.00  0.00    +0.000 A 
ATOM      6  C   UNL     1      48.559   4.164  16.893  0.00  0.00    +0.000 A 
ATOM      7  C   UNL     1      49.107   5.443  16.841  0.00  0.00    +0.000 A 
ATOM      8  F   UNL     1      50.046   5.839  17.715  0.00  0.00    +0.000 F 
ATOM      9  C   UNL     1      48.699   6.362  15.879  0.00  0.00    +0.000 A 
BRANCH   6  10
ATOM     10  C   UNL     1      48.988   3.160  17.896  0.00  0.00    +0.000 C 
ATOM     11  N   UNL     1      48.358   3.150  19.107  0.00  0.00    +0.000 N 
ATOM     12  O   UNL     1      49.887   2.363  17.653  0.00  0.00    +0.000 OA
ATOM     13  H   UNL     1      47.606   3.788  19.340  0.00  0.00    +0.000 HD
ATOM     14  H   UNL     1      48.644   2.466  19.793  0.00  0.00    +0.000 HD
ENDBRANCH   6  10
ENDBRANCH   1   3
BRANCH   1  15
ATOM     15  C   UNL     1      47.372   6.527  12.553  0.00  0.00    +0.000 C 
BRANCH  15  17
ATOM     16  C   UNL     1      45.372   7.977  11.856  0.00  0.00    +0.000 C 
ATOM     17  C   UNL     1      45.995   6.621  11.975  0.00  0.00    +0.000 C 
BRANCH  17  18
ATOM     18  C   UNL     1      45.155   5.418  11.977  0.00  0.00    +0.000 A 
ATOM     19  C   UNL     1      44.171   5.229  12.955  0.00  0.00    +0.000 A 
ATOM     20  C   UNL     1      43.325   4.119  12.906  0.00  0.00    +0.000 A 
ATOM     21  C   UNL     1      43.450   3.195  11.869  0.00  0.00    +0.000 A 
ATOM     22  C   UNL     1      44.434   3.370  10.894  0.00  0.00    +0.000 A 
ATOM     23  C   UNL     1      45.288   4.473  10.957  0.00  0.00    +0.000 A 
BRANCH  22  24
ATOM     24  C   UNL     1      44.558   2.440   9.813  0.00  0.00    +0.000 C 
ATOM     25  N   UNL     1      44.639   1.697   8.924  0.00  0.00    +0.000 NA
ENDBRANCH  22  24
ENDBRANCH  17  18
ENDBRANCH  15  17
ENDBRANCH   1  15
TORSDOF 6
ENDMDL
MODEL 8
REMARK VINA RESULT:    -6.073      3.321      5.634
REMARK INTER + INTRA:          -9.091
REMARK INTER:                  -8.303
REMARK INTRA:                  -0.788
REMARK UNBOUND:                -0.887
REMARK  Name = 
REMARK  7 active torsions:
REMARK  status: ('A' for Active; 'I' for Inactive)
REMARK    1  A    between atoms: C_1  and  C_2
REMARK    2  A    between atoms: C_2  and  C_3
REMARK    3  A    between atoms: C_2  and  C_15
REMARK    4  A    between atoms: C_3  and  N_4
REMARK    5  A    between atoms: N_4  and  C_5
REMARK    6  A    between atoms: C_8  and  C_9
REMARK    7  A    between atoms: C_19  and  C_20
REMARK                            x       y       z     vdW  Elec       q    Type
REMARK                         _______ _______ _______ _____ _____    ______ ____
ROOT
ATOM      1  N   UNL     1      47.187   7.407  13.608  0.00  0.00    +0.000 N 
ATOM      2  H   UNL     1      46.981   8.337  13.249  0.00  0.00    +0.000 HD
ENDROOT
BRANCH   1   3
ATOM      3  C   UNL     1      46.457   6.425  12.924  0.00  0.00    +0.000 A 
ATOM      4  C   UNL     1      45.912   5.348  13.636  0.00  0.00    +0.000 A 
ATOM      5  C   UNL     1      45.206   4.328  12.980  0.00  0.00    +0.000 A 
ATOM      6  C   UNL     1      45.065   4.351  11.587  0.00  0.00    +0.000 A 
ATOM      7  C   UNL     1      45.659   5.392  10.877  0.00  0.00    +0.000 A 
ATOM      8  F   UNL     1      45.581   5.459   9.539  0.00  0.00    +0.000 F 
ATOM      9  C   UNL     1      46.358   6.402  11.531  0.00  0.00    +0.000 A 
BRANCH   6  10
ATOM     10  C   UNL     1      44.300   3.271  10.918  0.00  0.00    +0.000 C 
ATOM     11  N   UNL     1      44.979   2.414  10.101  0.00  0.00    +0.000 N 
ATOM     12  O   UNL     1      43.092   3.152  11.085  0.00  0.00    +0.000 OA
ATOM     13  H   UNL     1      45.978   2.477   9.945  0.00  0.00    +0.000 HD
ATOM     14  H   UNL     1      44.462   1.674   9.645  0.00  0.00    +0.000 HD
ENDBRANCH   6  10
ENDBRANCH   1   3
BRANCH   1  15
ATOM     15  C   UNL     1      48.624   7.189  13.748  0.00  0.00    +0.000 C 
BRANCH  15  17
ATOM     16  C   UNL     1      49.469   8.832  15.530  0.00  0.00    +0.000 C 
ATOM     17  C   UNL     1      48.986   7.460  15.175  0.00  0.00    +0.000 C 
BRANCH  17  18
ATOM     18  C   UNL     1      49.292   6.320  16.045  0.00  0.00    +0.000 A 
ATOM     19  C   UNL     1      50.534   6.214  16.683  0.00  0.00    +0.000 A 
ATOM     20  C   UNL     1      50.789   5.166  17.570  0.00  0.00    +0.000 A 
ATOM     21  C   UNL     1      49.798   4.221  17.834  0.00  0.00    +0.000 A 
ATOM     22  C   UNL     1      48.560   4.313  17.195  0.00  0.00    +0.000 A 
ATOM     23  C   UNL     1      48.315   5.354  16.297  0.00  0.00    +0.000 A 
BRANCH  22  24
ATOM     24  C   UNL     1      47.527   3.361  17.475  0.00  0.00    +0.000 C 
ATOM     25  N   UNL     1      46.701   2.584  17.723  0.00  0.00    +0.000 NA
ENDBRANCH  22  24
ENDBRANCH  17  18
ENDBRANCH  15  17
ENDBRANCH   1  15
TORSDOF 6
ENDMDL
MODEL 9
REMARK VINA RESULT:    -5.972      3.376      5.777
REMARK INTER + INTRA:          -8.955
REMARK INTER:                  -8.218
REMARK INTRA:                  -0.736
REMARK UNBOUND:                -0.887
REMARK  Name = 
REMARK  7 active torsions:
REMARK  status: ('A' for Active; 'I' for Inactive)
REMARK    1  A    between atoms: C_1  and  C_2
REMARK    2  A    between atoms: C_2  and  C_3
REMARK    3  A    between atoms: C_2  and  C_15
REMARK    4  A    between atoms: C_3  and  N_4
REMARK    5  A    between atoms: N_4  and  C_5
REMARK    6  A    between atoms: C_8  and  C_9
REMARK    7  A    between atoms: C_19  and  C_20
REMARK                            x       y       z     vdW  Elec       q    Type
REMARK                         _______ _______ _______ _____ _____    ______ ____
ROOT
ATOM      1  N   UNL     1      47.209   7.219  14.018  0.00  0.00    +0.000 N 
ATOM      2  H   UNL     1      47.260   8.183  13.694  0.00  0.00    +0.000 HD
ENDROOT
BRANCH   1   3
ATOM      3  C   UNL     1      46.428   6.434  13.159  0.00  0.00    +0.000 A 
ATOM      4  C   UNL     1      45.505   7.052  12.304  0.00  0.00    +0.000 A 
ATOM      5  C   UNL     1      44.681   6.296  11.457  0.00  0.00    +0.000 A 
ATOM      6  C   UNL     1      44.744   4.897  11.476  0.00  0.00    +0.000 A 
ATOM      7  C   UNL     1      45.621   4.284  12.369  0.00  0.00    +0.000 A 
ATOM      8  F   UNL     1      45.712   2.948  12.454  0.00  0.00    +0.000 F 
ATOM      9  C   UNL     1      46.436   5.038  13.208  0.00  0.00    +0.000 A 
BRANCH   6  10
ATOM     10  C   UNL     1      43.877   4.120  10.559  0.00  0.00    +0.000 C 
ATOM     11  N   UNL     1      43.941   4.397   9.224  0.00  0.00    +0.000 N 
ATOM     12  O   UNL     1      43.117   3.257  10.983  0.00  0.00    +0.000 OA
ATOM     13  H   UNL     1      44.561   5.098   8.837  0.00  0.00    +0.000 HD
ATOM     14  H   UNL     1      43.354   3.868   8.595  0.00  0.00    +0.000 HD
ENDBRANCH   6  10
ENDBRANCH   1   3
BRANCH   1  15
ATOM     15  C   UNL     1      48.527   6.702  14.376  0.00  0.00    +0.000 C 
BRANCH  15  17
ATOM     16  C   UNL     1      48.973   7.983  16.555  0.00  0.00    +0.000 C 
ATOM     17  C   UNL     1      48.622   6.699  15.870  0.00  0.00    +0.000 C 
BRANCH  17  18
ATOM     18  C   UNL     1      48.820   5.417  16.553  0.00  0.00    +0.000 A 
ATOM     19  C   UNL     1      47.790   4.471  16.622  0.00  0.00    +0.000 A 
ATOM     20  C   UNL     1      48.010   3.221  17.206  0.00  0.00    +0.000 A 
ATOM     21  C   UNL     1      49.269   2.905  17.717  0.00  0.00    +0.000 A 
ATOM     22  C   UNL     1      50.300   3.845  17.662  0.00  0.00    +0.000 A 
ATOM     23  C   UNL     1      50.069   5.099  17.091  0.00  0.00    +0.000 A 
BRANCH  22  24
ATOM     24  C   UNL     1      51.602   3.524  18.164  0.00  0.00    +0.000 C 
ATOM     25  N   UNL     1      52.652   3.277  18.592  0.00  0.00    +0.000 NA
ENDBRANCH  22  24
ENDBRANCH  17  18
ENDBRANCH  15  17
ENDBRANCH   1  15
TORSDOF 6
ENDMDL
