MODEL 1
REMARK VINA RESULT:    -8.625      0.000      0.000
REMARK INTER + INTRA:         -13.126
REMARK INTER:                 -12.154
REMARK INTRA:                  -0.972
REMARK UNBOUND:                -0.972
REMARK  Name = 
REMARK  7 active torsions:
REMARK  status: ('A' for Active; 'I' for Inactive)
REMARK    1  A    between atoms: C_2  and  C_4
REMARK    2  A    between atoms: C_7  and  N_8
REMARK    3  A    between atoms: N_8  and  C_9
REMARK    4  A    between atoms: C_9  and  C_10
REMARK    5  A    between atoms: C_10  and  C_11
REMARK    6  A    between atoms: C_15  and  O_16
REMARK    7  A    between atoms: O_16  and  C_17
REMARK                            x       y       z     vdW  Elec       q    Type
REMARK                         _______ _______ _______ _____ _____    ______ ____
ROOT
ATOM      1  N   UNL     1      43.718   4.802  10.045  0.00  0.00    +0.000 N 
ATOM      2  H   UNL     1      43.033   5.218   9.418  0.00  0.00    +0.000 HD
ENDROOT
BRANCH   1   6
ATOM      3  C   UNL     1      46.354   2.302   7.873  0.00  0.00    +0.000 A 
ATOM      4  C   UNL     1      46.397   3.682   7.680  0.00  0.00    +0.000 A 
ATOM      5  C   UNL     1      45.540   4.515   8.403  0.00  0.00    +0.000 A 
ATOM      6  C   UNL     1      44.641   4.004   9.351  0.00  0.00    +0.000 A 
ATOM      7  C   UNL     1      44.591   2.611   9.510  0.00  0.00    +0.000 A 
ATOM      8  C   UNL     1      45.434   1.765   8.777  0.00  0.00    +0.000 A 
BRANCH   3  10
ATOM      9  N   UNL     1      48.294   1.964   6.446  0.00  0.00    +0.000 N 
ATOM     10  C   UNL     1      47.243   1.391   7.108  0.00  0.00    +0.000 C 
ATOM     11  O   UNL     1      47.067   0.182   7.089  0.00  0.00    +0.000 OA
ATOM     12  H   UNL     1      48.949   1.332   6.003  0.00  0.00    +0.000 HD
ATOM     13  H   UNL     1      48.605   2.909   6.633  0.00  0.00    +0.000 HD
ENDBRANCH   3  10
ENDBRANCH   1   6
BRANCH   1  14
ATOM     14  C   UNL     1      43.170   4.290  11.301  0.00  0.00    +0.000 C 
BRANCH  14  15
ATOM     15  C   UNL     1      43.240   5.317  12.430  0.00  0.00    +0.000 C 
BRANCH  15  16
ATOM     16  C   UNL     1      44.669   5.488  12.898  0.00  0.00    +0.000 A 
ATOM     17  C   UNL     1      45.375   6.663  12.611  0.00  0.00    +0.000 A 
ATOM     18  C   UNL     1      46.702   6.809  13.020  0.00  0.00    +0.000 A 
ATOM     19  C   UNL     1      47.346   5.778  13.709  0.00  0.00    +0.000 A 
ATOM     20  C   UNL     1      46.664   4.594  13.977  0.00  0.00    +0.000 A 
ATOM     21  C   UNL     1      45.330   4.454  13.577  0.00  0.00    +0.000 A 
BRANCH  20  22
ATOM     22  O   UNL     1      47.191   3.520  14.651  0.00  0.00    +0.000 OA
BRANCH  22  23
ATOM     23  C   UNL     1      47.925   3.748  15.874  0.00  0.00    +0.000 C 
ATOM     24  C   UNL     1      48.535   2.507  16.570  0.00  0.00    +0.000 C 
ATOM     25  C   UNL     1      48.011   3.042  17.913  0.00  0.00    +0.000 C 
ATOM     26  C   UNL     1      47.027   3.920  17.127  0.00  0.00    +0.000 C 
ENDBRANCH  22  23
ENDBRANCH  20  22
ENDBRANCH  15  16
ENDBRANCH  14  15
ENDBRANCH   1  14
TORSDOF 7
ENDMDL
MODEL 2
REMARK VINA RESULT:    -7.756      2.206      3.761
REMARK INTER + INTRA:         -11.902
REMARK INTER:                 -10.814
REMARK INTRA:                  -1.088
REMARK UNBOUND:                -0.972
REMARK  Name = 
REMARK  7 active torsions:
REMARK  status: ('A' for Active; 'I' for Inactive)
REMARK    1  A    between atoms: C_2  and  C_4
REMARK    2  A    between atoms: C_7  and  N_8
REMARK    3  A    between atoms: N_8  and  C_9
REMARK    4  A    between atoms: C_9  and  C_10
REMARK    5  A    between atoms: C_10  and  C_11
REMARK    6  A    between atoms: C_15  and  O_16
REMARK    7  A    between atoms: O_16  and  C_17
REMARK                            x       y       z     vdW  Elec       q    Type
REMARK                         _______ _______ _______ _____ _____    ______ ____
ROOT
ATOM      1  N   UNL     1      43.707   3.658  10.538  0.00  0.00    +0.000 N 
ATOM      2  H   UNL     1      43.857   3.129  11.395  0.00  0.00    +0.000 HD
ENDROOT
BRANCH   1   6
ATOM      3  C   UNL     1      46.531   2.686   7.539  0.00  0.00    +0.000 A 
ATOM      4  C   UNL     1      46.154   4.015   7.727  0.00  0.00    +0.000 A 
ATOM      5  C   UNL     1      45.233   4.345   8.724  0.00  0.00    +0.000 A 
ATOM      6  C   UNL     1      44.686   3.373   9.573  0.00  0.00    +0.000 A 
ATOM      7  C   UNL     1      45.054   2.038   9.350  0.00  0.00    +0.000 A 
ATOM      8  C   UNL     1      45.964   1.693   8.342  0.00  0.00    +0.000 A 
BRANCH   3  10
ATOM      9  N   UNL     1      47.466   3.031   5.321  0.00  0.00    +0.000 N 
ATOM     10  C   UNL     1      47.497   2.302   6.478  0.00  0.00    +0.000 C 
ATOM     11  O   UNL     1      48.304   1.399   6.635  0.00  0.00    +0.000 OA
ATOM     12  H   UNL     1      48.185   2.828   4.638  0.00  0.00    +0.000 HD
ATOM     13  H   UNL     1      46.989   3.921   5.251  0.00  0.00    +0.000 HD
ENDBRANCH   3  10
ENDBRANCH   1   6
BRANCH   1  14
ATOM     14  C   UNL     1      43.321   5.055  10.739  0.00  0.00    +0.000 C 
BRANCH  14  15
ATOM     15  C   UNL     1      43.499   5.507  12.187  0.00  0.00    +0.000 C 
BRANCH  15  16
ATOM     16  C   UNL     1      44.970   5.644  12.520  0.00  0.00    +0.000 A 
ATOM     17  C   UNL     1      45.550   4.844  13.512  0.00  0.00    +0.000 A 
ATOM     18  C   UNL     1      46.901   4.989  13.836  0.00  0.00    +0.000 A 
ATOM     19  C   UNL     1      47.685   5.945  13.184  0.00  0.00    +0.000 A 
ATOM     20  C   UNL     1      47.112   6.765  12.216  0.00  0.00    +0.000 A 
ATOM     21  C   UNL     1      45.762   6.610  11.883  0.00  0.00    +0.000 A 
BRANCH  20  22
ATOM     22  O   UNL     1      47.785   7.730  11.507  0.00  0.00    +0.000 OA
BRANCH  22  23
ATOM     23  C   UNL     1      49.059   8.203  11.998  0.00  0.00    +0.000 C 
ATOM     24  C   UNL     1      49.516   9.607  11.529  0.00  0.00    +0.000 C 
ATOM     25  C   UNL     1      50.915   9.028  11.267  0.00  0.00    +0.000 C 
ATOM     26  C   UNL     1      50.282   7.630  11.237  0.00  0.00    +0.000 C 
ENDBRANCH  22  23
ENDBRANCH  20  22
ENDBRANCH  15  16
ENDBRANCH  14  15
ENDBRANCH   1  14
TORSDOF 7
ENDMDL
MODEL 3
REMARK VINA RESULT:    -7.580      2.736      5.003
REMARK INTER + INTRA:         -11.654
REMARK INTER:                 -10.817
REMARK INTRA:                  -0.837
REMARK UNBOUND:                -0.972
REMARK  Name = 
REMARK  7 active torsions:
REMARK  status: ('A' for Active; 'I' for Inactive)
REMARK    1  A    between atoms: C_2  and  C_4
REMARK    2  A    between atoms: C_7  and  N_8
REMARK    3  A    between atoms: N_8  and  C_9
REMARK    4  A    between atoms: C_9  and  C_10
REMARK    5  A    between atoms: C_10  and  C_11
REMARK    6  A    between atoms: C_15  and  O_16
REMARK    7  A    between atoms: O_16  and  C_17
REMARK                            x       y       z     vdW  Elec       q    Type
REMARK                         _______ _______ _______ _____ _____    ______ ____
ROOT
ATOM      1  N   UNL     1      43.773   4.762  10.078  0.00  0.00    +0.000 N 
ATOM      2  H   UNL     1      42.825   4.568   9.761  0.00  0.00    +0.000 HD
ENDROOT
BRANCH   1   6
ATOM      3  C   UNL     1      46.507   2.535   7.737  0.00  0.00    +0.000 A 
ATOM      4  C   UNL     1      46.503   3.927   7.656  0.00  0.00    +0.000 A 
ATOM      5  C   UNL     1      45.613   4.669   8.435  0.00  0.00    +0.000 A 
ATOM      6  C   UNL     1      44.727   4.054   9.331  0.00  0.00    +0.000 A 
ATOM      7  C   UNL     1      44.725   2.651   9.378  0.00  0.00    +0.000 A 
ATOM      8  C   UNL     1      45.601   1.896   8.588  0.00  0.00    +0.000 A 
BRANCH   3  10
ATOM      9  N   UNL     1      48.561   2.339   6.450  0.00  0.00    +0.000 N 
ATOM     10  C   UNL     1      47.432   1.718   6.911  0.00  0.00    +0.000 C 
ATOM     11  O   UNL     1      47.216   0.540   6.672  0.00  0.00    +0.000 OA
ATOM     12  H   UNL     1      49.232   1.757   5.967  0.00  0.00    +0.000 HD
ATOM     13  H   UNL     1      48.886   3.222   6.821  0.00  0.00    +0.000 HD
ENDBRANCH   3  10
ENDBRANCH   1   6
BRANCH   1  14
ATOM     14  C   UNL     1      43.934   4.815  11.532  0.00  0.00    +0.000 C 
BRANCH  14  15
ATOM     15  C   UNL     1      45.402   4.810  11.956  0.00  0.00    +0.000 C 
BRANCH  15  16
ATOM     16  C   UNL     1      45.852   6.211  12.312  0.00  0.00    +0.000 A 
ATOM     17  C   UNL     1      47.068   6.419  12.973  0.00  0.00    +0.000 A 
ATOM     18  C   UNL     1      47.470   7.710  13.324  0.00  0.00    +0.000 A 
ATOM     19  C   UNL     1      46.655   8.807  13.032  0.00  0.00    +0.000 A 
ATOM     20  C   UNL     1      45.430   8.610  12.399  0.00  0.00    +0.000 A 
ATOM     21  C   UNL     1      45.036   7.318  12.037  0.00  0.00    +0.000 A 
BRANCH  20  22
ATOM     22  O   UNL     1      44.554   9.610  12.058  0.00  0.00    +0.000 OA
BRANCH  22  23
ATOM     23  C   UNL     1      44.044   9.668  10.707  0.00  0.00    +0.000 C 
ATOM     24  C   UNL     1      44.172  11.021   9.965  0.00  0.00    +0.000 C 
ATOM     25  C   UNL     1      42.722  10.856   9.483  0.00  0.00    +0.000 C 
ATOM     26  C   UNL     1      42.507   9.846  10.619  0.00  0.00    +0.000 C 
ENDBRANCH  22  23
ENDBRANCH  20  22
ENDBRANCH  15  16
ENDBRANCH  14  15
ENDBRANCH   1  14
TORSDOF 7
ENDMDL
MODEL 4
REMARK VINA RESULT:    -7.532      2.031      2.319
REMARK INTER + INTRA:         -11.585
REMARK INTER:                 -10.523
REMARK INTRA:                  -1.062
REMARK UNBOUND:                -0.972
REMARK  Name = 
REMARK  7 active torsions:
REMARK  status: ('A' for Active; 'I' for Inactive)
REMARK    1  A    between atoms: C_2  and  C_4
REMARK    2  A    between atoms: C_7  and  N_8
REMARK    3  A    between atoms: N_8  and  C_9
REMARK    4  A    between atoms: C_9  and  C_10
REMARK    5  A    between atoms: C_10  and  C_11
REMARK    6  A    between atoms: C_15  and  O_16
REMARK    7  A    between atoms: O_16  and  C_17
REMARK                            x       y       z     vdW  Elec       q    Type
REMARK                         _______ _______ _______ _____ _____    ______ ____
ROOT
ATOM      1  N   UNL     1      43.612   3.597  10.523  0.00  0.00    +0.000 N 
ATOM      2  H   UNL     1      43.290   2.744  10.975  0.00  0.00    +0.000 HD
ENDROOT
BRANCH   1   6
ATOM      3  C   UNL     1      46.483   2.697   7.546  0.00  0.00    +0.000 A 
ATOM      4  C   UNL     1      46.092   4.020   7.749  0.00  0.00    +0.000 A 
ATOM      5  C   UNL     1      45.155   4.326   8.739  0.00  0.00    +0.000 A 
ATOM      6  C   UNL     1      44.605   3.336   9.566  0.00  0.00    +0.000 A 
ATOM      7  C   UNL     1      44.989   2.008   9.327  0.00  0.00    +0.000 A 
ATOM      8  C   UNL     1      45.915   1.687   8.326  0.00  0.00    +0.000 A 
BRANCH   3  10
ATOM      9  N   UNL     1      47.356   2.994   5.296  0.00  0.00    +0.000 N 
ATOM     10  C   UNL     1      47.467   2.339   6.492  0.00  0.00    +0.000 C 
ATOM     11  O   UNL     1      48.352   1.521   6.686  0.00  0.00    +0.000 OA
ATOM     12  H   UNL     1      48.082   2.815   4.614  0.00  0.00    +0.000 HD
ATOM     13  H   UNL     1      46.802   3.832   5.183  0.00  0.00    +0.000 HD
ENDBRANCH   3  10
ENDBRANCH   1   6
BRANCH   1  14
ATOM     14  C   UNL     1      43.802   4.735  11.423  0.00  0.00    +0.000 C 
BRANCH  14  15
ATOM     15  C   UNL     1      44.660   4.381  12.637  0.00  0.00    +0.000 C 
BRANCH  15  16
ATOM     16  C   UNL     1      45.880   5.276  12.699  0.00  0.00    +0.000 A 
ATOM     17  C   UNL     1      46.188   6.131  11.633  0.00  0.00    +0.000 A 
ATOM     18  C   UNL     1      47.328   6.937  11.681  0.00  0.00    +0.000 A 
ATOM     19  C   UNL     1      48.181   6.888  12.786  0.00  0.00    +0.000 A 
ATOM     20  C   UNL     1      47.901   6.022  13.839  0.00  0.00    +0.000 A 
ATOM     21  C   UNL     1      46.752   5.225  13.795  0.00  0.00    +0.000 A 
BRANCH  20  22
ATOM     22  O   UNL     1      48.662   5.895  14.975  0.00  0.00    +0.000 OA
BRANCH  22  23
ATOM     23  C   UNL     1      49.527   6.984  15.367  0.00  0.00    +0.000 C 
ATOM     24  C   UNL     1      50.590   6.681  16.452  0.00  0.00    +0.000 C 
ATOM     25  C   UNL     1      50.212   8.001  17.144  0.00  0.00    +0.000 C 
ATOM     26  C   UNL     1      48.884   7.971  16.375  0.00  0.00    +0.000 C 
ENDBRANCH  22  23
ENDBRANCH  20  22
ENDBRANCH  15  16
ENDBRANCH  14  15
ENDBRANCH   1  14
TORSDOF 7
ENDMDL
MODEL 5
REMARK VINA RESULT:    -7.023      2.834      3.662
REMARK INTER + INTRA:         -10.868
REMARK INTER:                 -10.189
REMARK INTRA:                  -0.679
REMARK UNBOUND:                -0.972
REMARK  Name = 
REMARK  7 active torsions:
REMARK  status: ('A' for Active; 'I' for Inactive)
REMARK    1  A    between atoms: C_2  and  C_4
REMARK    2  A    between atoms: C_7  and  N_8
REMARK    3  A    between atoms: N_8  and  C_9
REMARK    4  A    between atoms: C_9  and  C_10
REMARK    5  A    between atoms: C_10  and  C_11
REMARK    6  A    between atoms: C_15  and  O_16
REMARK    7  A    between atoms: O_16  and  C_17
REMARK                            x       y       z     vdW  Elec       q    Type
REMARK                         _______ _______ _______ _____ _____    ______ ____
ROOT
ATOM      1  N   UNL     1      43.724   4.511  10.305  0.00  0.00    +0.000 N 
ATOM      2  H   UNL     1      42.927   3.957  10.609  0.00  0.00    +0.000 HD
ENDROOT
BRANCH   1   6
ATOM      3  C   UNL     1      46.384   2.430   7.754  0.00  0.00    +0.000 A 
ATOM      4  C   UNL     1      45.573   1.716   8.634  0.00  0.00    +0.000 A 
ATOM      5  C   UNL     1      44.683   2.395   9.470  0.00  0.00    +0.000 A 
ATOM      6  C   UNL     1      44.556   3.791   9.434  0.00  0.00    +0.000 A 
ATOM      7  C   UNL     1      45.402   4.495   8.562  0.00  0.00    +0.000 A 
ATOM      8  C   UNL     1      46.310   3.825   7.733  0.00  0.00    +0.000 A 
BRANCH   3  10
ATOM      9  N   UNL     1      48.432   2.462   6.442  0.00  0.00    +0.000 N 
ATOM     10  C   UNL     1      47.350   1.737   6.863  0.00  0.00    +0.000 C 
ATOM     11  O   UNL     1      47.208   0.568   6.540  0.00  0.00    +0.000 OA
ATOM     12  H   UNL     1      49.134   1.961   5.912  0.00  0.00    +0.000 HD
ATOM     13  H   UNL     1      48.704   3.335   6.875  0.00  0.00    +0.000 HD
ENDBRANCH   3  10
ENDBRANCH   1   6
BRANCH   1  14
ATOM     14  C   UNL     1      44.353   5.311  11.357  0.00  0.00    +0.000 C 
BRANCH  14  15
ATOM     15  C   UNL     1      43.810   6.738  11.407  0.00  0.00    +0.000 C 
BRANCH  15  16
ATOM     16  C   UNL     1      44.880   7.692  11.895  0.00  0.00    +0.000 A 
ATOM     17  C   UNL     1      44.795   9.060  11.609  0.00  0.00    +0.000 A 
ATOM     18  C   UNL     1      45.796   9.935  12.037  0.00  0.00    +0.000 A 
ATOM     19  C   UNL     1      46.902   9.452  12.742  0.00  0.00    +0.000 A 
ATOM     20  C   UNL     1      47.012   8.090  13.008  0.00  0.00    +0.000 A 
ATOM     21  C   UNL     1      46.001   7.217  12.589  0.00  0.00    +0.000 A 
BRANCH  20  22
ATOM     22  O   UNL     1      48.046   7.506  13.696  0.00  0.00    +0.000 OA
BRANCH  22  23
ATOM     23  C   UNL     1      49.326   7.350  13.044  0.00  0.00    +0.000 C 
ATOM     24  C   UNL     1      50.269   8.578  13.044  0.00  0.00    +0.000 C 
ATOM     25  C   UNL     1      50.559   8.314  11.557  0.00  0.00    +0.000 C 
ATOM     26  C   UNL     1      49.270   7.482  11.500  0.00  0.00    +0.000 C 
ENDBRANCH  22  23
ENDBRANCH  20  22
ENDBRANCH  15  16
ENDBRANCH  14  15
ENDBRANCH   1  14
TORSDOF 7
ENDMDL
MODEL 6
REMARK VINA RESULT:    -6.852      2.590      7.390
REMARK INTER + INTRA:         -10.628
REMARK INTER:                  -9.521
REMARK INTRA:                  -1.107
REMARK UNBOUND:                -0.972
REMARK  Name = 
REMARK  7 active torsions:
REMARK  status: ('A' for Active; 'I' for Inactive)
REMARK    1  A    between atoms: C_2  and  C_4
REMARK    2  A    between atoms: C_7  and  N_8
REMARK    3  A    between atoms: N_8  and  C_9
REMARK    4  A    between atoms: C_9  and  C_10
REMARK    5  A    between atoms: C_10  and  C_11
REMARK    6  A    between atoms: C_15  and  O_16
REMARK    7  A    between atoms: O_16  and  C_17
REMARK                            x       y       z     vdW  Elec       q    Type
REMARK                         _______ _______ _______ _____ _____    ______ ____
ROOT
ATOM      1  N   UNL     1      47.365   6.738  12.828  0.00  0.00    +0.000 N 
ATOM      2  H   UNL     1      47.823   6.387  11.991  0.00  0.00    +0.000 HD
ENDROOT
BRANCH   1   6
ATOM      3  C   UNL     1      47.793   4.248  16.224  0.00  0.00    +0.000 A 
ATOM      4  C   UNL     1      47.087   3.785  15.114  0.00  0.00    +0.000 A 
ATOM      5  C   UNL     1      46.953   4.596  13.984  0.00  0.00    +0.000 A 
ATOM      6  C   UNL     1      47.536   5.870  13.918  0.00  0.00    +0.000 A 
ATOM      7  C   UNL     1      48.218   6.330  15.055  0.00  0.00    +0.000 A 
ATOM      8  C   UNL     1      48.343   5.531  16.199  0.00  0.00    +0.000 A 
BRANCH   3  10
ATOM      9  N   UNL     1      46.872   2.635  17.793  0.00  0.00    +0.000 N 
ATOM     10  C   UNL     1      47.941   3.414  17.444  0.00  0.00    +0.000 C 
ATOM     11  O   UNL     1      48.974   3.398  18.095  0.00  0.00    +0.000 OA
ATOM     12  H   UNL     1      47.008   2.001  18.570  0.00  0.00    +0.000 HD
ATOM     13  H   UNL     1      46.108   2.442  17.158  0.00  0.00    +0.000 HD
ENDBRANCH   3  10
ENDBRANCH   1   6
BRANCH   1  14
ATOM     14  C   UNL     1      46.038   7.314  12.607  0.00  0.00    +0.000 C 
BRANCH  14  15
ATOM     15  C   UNL     1      45.475   6.970  11.229  0.00  0.00    +0.000 C 
BRANCH  15  16
ATOM     16  C   UNL     1      44.754   5.640  11.271  0.00  0.00    +0.000 A 
ATOM     17  C   UNL     1      43.869   5.344  12.314  0.00  0.00    +0.000 A 
ATOM     18  C   UNL     1      43.224   4.106  12.366  0.00  0.00    +0.000 A 
ATOM     19  C   UNL     1      43.468   3.143  11.384  0.00  0.00    +0.000 A 
ATOM     20  C   UNL     1      44.367   3.414  10.356  0.00  0.00    +0.000 A 
ATOM     21  C   UNL     1      45.001   4.659  10.299  0.00  0.00    +0.000 A 
BRANCH  20  22
ATOM     22  O   UNL     1      44.676   2.548   9.336  0.00  0.00    +0.000 OA
BRANCH  22  23
ATOM     23  C   UNL     1      45.916   2.726   8.614  0.00  0.00    +0.000 C 
ATOM     24  C   UNL     1      45.822   3.346   7.199  0.00  0.00    +0.000 C 
ATOM     25  C   UNL     1      46.799   2.271   6.698  0.00  0.00    +0.000 C 
ATOM     26  C   UNL     1      46.443   1.435   7.936  0.00  0.00    +0.000 C 
ENDBRANCH  22  23
ENDBRANCH  20  22
ENDBRANCH  15  16
ENDBRANCH  14  15
ENDBRANCH   1  14
TORSDOF 7
ENDMDL
MODEL 7
REMARK VINA RESULT:    -6.630      3.798      8.274
REMARK INTER + INTRA:         -10.315
REMARK INTER:                  -9.768
REMARK INTRA:                  -0.548
REMARK UNBOUND:                -0.972
REMARK  Name = 
REMARK  7 active torsions:
REMARK  status: ('A' for Active; 'I' for Inactive)
REMARK    1  A    between atoms: C_2  and  C_4
REMARK    2  A    between atoms: C_7  and  N_8
REMARK    3  A    between atoms: N_8  and  C_9
REMARK    4  A    between atoms: C_9  and  C_10
REMARK    5  A    between atoms: C_10  and  C_11
REMARK    6  A    between atoms: C_15  and  O_16
REMARK    7  A    between atoms: O_16  and  C_17
REMARK                            x       y       z     vdW  Elec       q    Type
REMARK                         _______ _______ _______ _____ _____    ______ ____
ROOT
ATOM      1  N   UNL     1      47.047   4.464  16.185  0.00  0.00    +0.000 N 
ATOM      2  H   UNL     1      46.531   4.981  16.894  0.00  0.00    +0.000 HD
ENDROOT
BRANCH   1   6
ATOM      3  C   UNL     1      50.878   3.483  17.694  0.00  0.00    +0.000 A 
ATOM      4  C   UNL     1      49.986   2.464  17.362  0.00  0.00    +0.000 A 
ATOM      5  C   UNL     1      48.724   2.780  16.850  0.00  0.00    +0.000 A 
ATOM      6  C   UNL     1      48.329   4.107  16.632  0.00  0.00    +0.000 A 
ATOM      7  C   UNL     1      49.228   5.119  16.999  0.00  0.00    +0.000 A 
ATOM      8  C   UNL     1      50.489   4.814  17.529  0.00  0.00    +0.000 A 
BRANCH   3  10
ATOM      9  N   UNL     1      52.535   1.857  18.418  0.00  0.00    +0.000 N 
ATOM     10  C   UNL     1      52.220   3.178  18.252  0.00  0.00    +0.000 C 
ATOM     11  O   UNL     1      53.020   4.059  18.527  0.00  0.00    +0.000 OA
ATOM     12  H   UNL     1      53.481   1.651  18.712  0.00  0.00    +0.000 HD
ATOM     13  H   UNL     1      52.004   1.113  17.986  0.00  0.00    +0.000 HD
ENDBRANCH   3  10
ENDBRANCH   1   6
BRANCH   1  14
ATOM     14  C   UNL     1      46.910   4.985  14.824  0.00  0.00    +0.000 C 
BRANCH  14  15
ATOM     15  C   UNL     1      46.789   3.873  13.784  0.00  0.00    +0.000 C 
BRANCH  15  16
ATOM     16  C   UNL     1      45.601   4.124  12.880  0.00  0.00    +0.000 A 
ATOM     17  C   UNL     1      44.787   5.247  13.072  0.00  0.00    +0.000 A 
ATOM     18  C   UNL     1      43.676   5.463  12.253  0.00  0.00    +0.000 A 
ATOM     19  C   UNL     1      43.355   4.552  11.244  0.00  0.00    +0.000 A 
ATOM     20  C   UNL     1      44.140   3.417  11.061  0.00  0.00    +0.000 A 
ATOM     21  C   UNL     1      45.260   3.209  11.873  0.00  0.00    +0.000 A 
BRANCH  20  22
ATOM     22  O   UNL     1      43.925   2.461  10.099  0.00  0.00    +0.000 OA
BRANCH  22  23
ATOM     23  C   UNL     1      44.442   2.675   8.767  0.00  0.00    +0.000 C 
ATOM     24  C   UNL     1      45.852   2.113   8.461  0.00  0.00    +0.000 C 
ATOM     25  C   UNL     1      46.196   3.443   7.771  0.00  0.00    +0.000 C 
ATOM     26  C   UNL     1      45.033   4.089   8.537  0.00  0.00    +0.000 C 
ENDBRANCH  22  23
ENDBRANCH  20  22
ENDBRANCH  15  16
ENDBRANCH  14  15
ENDBRANCH   1  14
TORSDOF 7
ENDMDL
MODEL 8
REMARK VINA RESULT:    -6.314      2.900      4.274
REMARK INTER + INTRA:          -9.870
REMARK INTER:                  -8.695
REMARK INTRA:                  -1.175
REMARK UNBOUND:                -0.972
REMARK  Name = 
REMARK  7 active torsions:
REMARK  status: ('A' for Active; 'I' for Inactive)
REMARK    1  A    between atoms: C_2  and  C_4
REMARK    2  A    between atoms: C_7  and  N_8
REMARK    3  A    between atoms: N_8  and  C_9
REMARK    4  A    between atoms: C_9  and  C_10
REMARK    5  A    between atoms: C_10  and  C_11
REMARK    6  A    between atoms: C_15  and  O_16
REMARK    7  A    between atoms: O_16  and  C_17
REMARK                            x       y       z     vdW  Elec       q    Type
REMARK                         _______ _______ _______ _____ _____    ______ ____
ROOT
ATOM      1  N   UNL     1      45.273   8.029  13.071  0.00  0.00    +0.000 N 
ATOM      2  H   UNL     1      45.325   7.998  14.087  0.00  0.00    +0.000 HD
ENDROOT
BRANCH   1   6
ATOM      3  C   UNL     1      44.238   4.201  11.590  0.00  0.00    +0.000 A 
ATOM      4  C   UNL     1      43.874   5.340  10.873  0.00  0.00    +0.000 A 
ATOM      5  C   UNL     1      44.224   6.606  11.349  0.00  0.00    +0.000 A 
ATOM      6  C   UNL     1      44.964   6.772  12.528  0.00  0.00    +0.000 A 
ATOM      7  C   UNL     1      45.296   5.617  13.251  0.00  0.00    +0.000 A 
ATOM      8  C   UNL     1      44.935   4.343  12.793  0.00  0.00    +0.000 A 
BRANCH   3  10
ATOM      9  N   UNL     1      44.563   2.351  10.046  0.00  0.00    +0.000 N 
ATOM     10  C   UNL     1      43.868   2.843  11.118  0.00  0.00    +0.000 C 
ATOM     11  O   UNL     1      43.006   2.178  11.671  0.00  0.00    +0.000 OA
ATOM     12  H   UNL     1      44.372   1.392   9.785  0.00  0.00    +0.000 HD
ATOM     13  H   UNL     1      45.428   2.763   9.722  0.00  0.00    +0.000 HD
ENDBRANCH   3  10
ENDBRANCH   1   6
BRANCH   1  14
ATOM     14  C   UNL     1      46.322   8.820  12.427  0.00  0.00    +0.000 C 
BRANCH  14  15
ATOM     15  C   UNL     1      47.692   8.149  12.508  0.00  0.00    +0.000 C 
BRANCH  15  16
ATOM     16  C   UNL     1      48.123   8.004  13.952  0.00  0.00    +0.000 A 
ATOM     17  C   UNL     1      48.278   9.134  14.764  0.00  0.00    +0.000 A 
ATOM     18  C   UNL     1      48.701   9.001  16.088  0.00  0.00    +0.000 A 
ATOM     19  C   UNL     1      48.988   7.738  16.614  0.00  0.00    +0.000 A 
ATOM     20  C   UNL     1      48.865   6.609  15.809  0.00  0.00    +0.000 A 
ATOM     21  C   UNL     1      48.429   6.744  14.486  0.00  0.00    +0.000 A 
BRANCH  20  22
ATOM     22  O   UNL     1      49.112   5.323  16.219  0.00  0.00    +0.000 OA
BRANCH  22  23
ATOM     23  C   UNL     1      48.010   4.394  16.324  0.00  0.00    +0.000 C 
ATOM     24  C   UNL     1      47.212   4.397  17.652  0.00  0.00    +0.000 C 
ATOM     25  C   UNL     1      47.253   2.861  17.642  0.00  0.00    +0.000 C 
ATOM     26  C   UNL     1      48.436   2.943  16.666  0.00  0.00    +0.000 C 
ENDBRANCH  22  23
ENDBRANCH  20  22
ENDBRANCH  15  16
ENDBRANCH  14  15
ENDBRANCH   1  14
TORSDOF 7
ENDMDL
MODEL 9
REMARK VINA RESULT:    -6.313      3.689      7.660
REMARK INTER + INTRA:          -9.868
REMARK INTER:                  -9.306
REMARK INTRA:                  -0.562
REMARK UNBOUND:                -0.972
REMARK  Name = 
REMARK  7 active torsions:
REMARK  status: ('A' for Active; 'I' for Inactive)
REMARK    1  A    between atoms: C_2  and  C_4
REMARK    2  A    between atoms: C_7  and  N_8
REMARK    3  A    between atoms: N_8  and  C_9
REMARK    4  A    between atoms: C_9  and  C_10
REMARK    5  A    between atoms: C_10  and  C_11
REMARK    6  A    between atoms: C_15  and  O_16
REMARK    7  A    between atoms: O_16  and  C_17
REMARK                            x       y       z     vdW  Elec       q    Type
REMARK                         _______ _______ _______ _____ _____    ______ ____
ROOT
ATOM      1  N   UNL     1      46.509   7.049  13.475  0.00  0.00    +0.000 N 
ATOM      2  H   UNL     1      45.857   7.829  13.521  0.00  0.00    +0.000 HD
ENDROOT
BRANCH   1   6
ATOM      3  C   UNL     1      50.497   8.164  12.598  0.00  0.00    +0.000 A 
ATOM      4  C   UNL     1      49.534   8.199  11.591  0.00  0.00    +0.000 A 
ATOM      5  C   UNL     1      48.212   7.846  11.876  0.00  0.00    +0.000 A 
ATOM      6  C   UNL     1      47.810   7.476  13.167  0.00  0.00    +0.000 A 
ATOM      7  C   UNL     1      48.799   7.419  14.161  0.00  0.00    +0.000 A 
ATOM      8  C   UNL     1      50.130   7.754  13.882  0.00  0.00    +0.000 A 
BRANCH   3  10
ATOM      9  N   UNL     1      52.842   8.117  13.242  0.00  0.00    +0.000 N 
ATOM     10  C   UNL     1      51.912   8.520  12.322  0.00  0.00    +0.000 C 
ATOM     11  O   UNL     1      52.242   9.120  11.311  0.00  0.00    +0.000 OA
ATOM     12  H   UNL     1      53.812   8.280  13.006  0.00  0.00    +0.000 HD
ATOM     13  H   UNL     1      52.640   7.424  13.951  0.00  0.00    +0.000 HD
ENDBRANCH   3  10
ENDBRANCH   1   6
BRANCH   1  14
ATOM     14  C   UNL     1      45.994   5.859  12.798  0.00  0.00    +0.000 C 
BRANCH  14  15
ATOM     15  C   UNL     1      45.442   6.171  11.408  0.00  0.00    +0.000 C 
BRANCH  15  16
ATOM     16  C   UNL     1      45.040   4.894  10.701  0.00  0.00    +0.000 A 
ATOM     17  C   UNL     1      44.460   3.839  11.416  0.00  0.00    +0.000 A 
ATOM     18  C   UNL     1      44.114   2.652  10.767  0.00  0.00    +0.000 A 
ATOM     19  C   UNL     1      44.357   2.497   9.400  0.00  0.00    +0.000 A 
ATOM     20  C   UNL     1      44.959   3.528   8.684  0.00  0.00    +0.000 A 
ATOM     21  C   UNL     1      45.293   4.722   9.333  0.00  0.00    +0.000 A 
BRANCH  20  22
ATOM     22  O   UNL     1      45.237   3.491   7.340  0.00  0.00    +0.000 OA
BRANCH  22  23
ATOM     23  C   UNL     1      46.612   3.378   6.909  0.00  0.00    +0.000 C 
ATOM     24  C   UNL     1      46.855   2.960   5.438  0.00  0.00    +0.000 C 
ATOM     25  C   UNL     1      47.933   1.980   5.928  0.00  0.00    +0.000 C 
ATOM     26  C   UNL     1      47.297   2.050   7.324  0.00  0.00    +0.000 C 
ENDBRANCH  22  23
ENDBRANCH  20  22
ENDBRANCH  15  16
ENDBRANCH  14  15
ENDBRANCH   1  14
TORSDOF 7
ENDMDL
