MODEL 1
REMARK VINA RESULT:    -8.743      0.000      0.000
REMARK INTER + INTRA:         -12.118
REMARK INTER:                 -11.299
REMARK INTRA:                  -0.819
REMARK UNBOUND:                -0.819
REMARK  Name = 
REMARK  5 active torsions:
REMARK  status: ('A' for Active; 'I' for Inactive)
REMARK    1  A    between atoms: C_2  and  C_4
REMARK    2  A    between atoms: C_7  and  O_8
REMARK    3  A    between atoms: O_8  and  C_9
REMARK    4  A    between atoms: C_9  and  C_10
REMARK    5  A    between atoms: C_15  and  C_16
REMARK                            x       y       z     vdW  Elec       q    Type
REMARK                         _______ _______ _______ _____ _____    ______ ____
ROOT
ATOM      1  C   UNL     1      43.553   4.389  11.170  0.00  0.00    +0.000 C 
ENDROOT
BRANCH   1   2
ATOM      2  C   UNL     1      44.769   4.837  11.954  0.00  0.00    +0.000 A 
ATOM      3  C   UNL     1      45.363   3.952  12.862  0.00  0.00    +0.000 A 
ATOM      4  C   UNL     1      46.511   4.326  13.553  0.00  0.00    +0.000 A 
ATOM      5  C   UNL     1      47.073   5.583  13.339  0.00  0.00    +0.000 A 
ATOM      6  F   UNL     1      48.167   5.894  14.051  0.00  0.00    +0.000 F 
ATOM      7  C   UNL     1      46.528   6.501  12.426  0.00  0.00    +0.000 A 
ATOM      8  C   UNL     1      45.371   6.090  11.731  0.00  0.00    +0.000 A 
BRANCH   7   9
ATOM      9  C   UNL     1      47.127   7.834  12.187  0.00  0.00    +0.000 A 
ATOM     10  C   UNL     1      48.451   7.992  11.747  0.00  0.00    +0.000 A 
ATOM     11  C   UNL     1      48.991   9.259  11.535  0.00  0.00    +0.000 A 
ATOM     12  C   UNL     1      48.188  10.361  11.759  0.00  0.00    +0.000 A 
ATOM     13  N   UNL     1      46.913  10.275  12.183  0.00  0.00    +0.000 NA
ATOM     14  C   UNL     1      46.419   9.025  12.385  0.00  0.00    +0.000 A 
ENDBRANCH   7   9
ENDBRANCH   1   2
BRANCH   1  15
ATOM     15  O   UNL     1      43.664   4.751   9.790  0.00  0.00    +0.000 OA
BRANCH  15  19
ATOM     16  C   UNL     1      46.288   2.256   7.824  0.00  0.00    +0.000 A 
ATOM     17  C   UNL     1      45.401   1.726   8.765  0.00  0.00    +0.000 A 
ATOM     18  C   UNL     1      44.516   2.580   9.424  0.00  0.00    +0.000 A 
ATOM     19  C   UNL     1      44.547   3.931   9.115  0.00  0.00    +0.000 A 
ATOM     20  N   UNL     1      45.390   4.470   8.210  0.00  0.00    +0.000 NA
ATOM     21  C   UNL     1      46.250   3.626   7.593  0.00  0.00    +0.000 A 
BRANCH  16  23
ATOM     22  N   UNL     1      48.381   2.102   6.597  0.00  0.00    +0.000 N 
ATOM     23  C   UNL     1      47.285   1.452   7.090  0.00  0.00    +0.000 C 
ATOM     24  O   UNL     1      47.153   0.242   6.958  0.00  0.00    +0.000 OA
ATOM     25  H   UNL     1      49.100   1.513   6.191  0.00  0.00    +0.000 HD
ATOM     26  H   UNL     1      48.651   3.026   6.899  0.00  0.00    +0.000 HD
ENDBRANCH  16  23
ENDBRANCH  15  19
ENDBRANCH   1  15
TORSDOF 5
ENDMDL
MODEL 2
REMARK VINA RESULT:    -8.317      1.993      2.522
REMARK INTER + INTRA:         -11.568
REMARK INTER:                 -10.788
REMARK INTRA:                  -0.780
REMARK UNBOUND:                -0.819
REMARK  Name = 
REMARK  5 active torsions:
REMARK  status: ('A' for Active; 'I' for Inactive)
REMARK    1  A    between atoms: C_2  and  C_4
REMARK    2  A    between atoms: C_7  and  O_8
REMARK    3  A    between atoms: O_8  and  C_9
REMARK    4  A    between atoms: C_9  and  C_10
REMARK    5  A    between atoms: C_15  and  C_16
REMARK                            x       y       z     vdW  Elec       q    Type
REMARK                         _______ _______ _______ _____ _____    ______ ____
ROOT
ATOM      1  C   UNL     1      44.030   2.931  11.396  0.00  0.00    +0.000 C 
ENDROOT
BRANCH   1   2
ATOM      2  C   UNL     1      44.344   4.408  11.527  0.00  0.00    +0.000 A 
ATOM      3  C   UNL     1      43.330   5.346  11.299  0.00  0.00    +0.000 A 
ATOM      4  C   UNL     1      43.585   6.704  11.465  0.00  0.00    +0.000 A 
ATOM      5  C   UNL     1      44.851   7.131  11.860  0.00  0.00    +0.000 A 
ATOM      6  F   UNL     1      45.042   8.454  11.981  0.00  0.00    +0.000 F 
ATOM      7  C   UNL     1      45.898   6.230  12.119  0.00  0.00    +0.000 A 
ATOM      8  C   UNL     1      45.606   4.859  11.954  0.00  0.00    +0.000 A 
BRANCH   7   9
ATOM      9  C   UNL     1      47.242   6.676  12.548  0.00  0.00    +0.000 A 
ATOM     10  C   UNL     1      48.064   7.469  11.731  0.00  0.00    +0.000 A 
ATOM     11  C   UNL     1      49.328   7.872  12.158  0.00  0.00    +0.000 A 
ATOM     12  C   UNL     1      49.752   7.479  13.413  0.00  0.00    +0.000 A 
ATOM     13  N   UNL     1      49.013   6.718  14.241  0.00  0.00    +0.000 NA
ATOM     14  C   UNL     1      47.788   6.339  13.791  0.00  0.00    +0.000 A 
ENDBRANCH   7   9
ENDBRANCH   1   2
BRANCH   1  15
ATOM     15  O   UNL     1      43.543   2.620  10.086  0.00  0.00    +0.000 OA
BRANCH  15  19
ATOM     16  C   UNL     1      46.569   2.501   7.294  0.00  0.00    +0.000 A 
ATOM     17  C   UNL     1      45.832   3.675   7.466  0.00  0.00    +0.000 A 
ATOM     18  C   UNL     1      44.810   3.705   8.415  0.00  0.00    +0.000 A 
ATOM     19  C   UNL     1      44.566   2.562   9.160  0.00  0.00    +0.000 A 
ATOM     20  N   UNL     1      45.263   1.415   9.018  0.00  0.00    +0.000 NA
ATOM     21  C   UNL     1      46.241   1.404   8.081  0.00  0.00    +0.000 A 
BRANCH  16  23
ATOM     22  N   UNL     1      47.501   2.984   5.101  0.00  0.00    +0.000 N 
ATOM     23  C   UNL     1      47.652   2.348   6.301  0.00  0.00    +0.000 C 
ATOM     24  O   UNL     1      48.662   1.707   6.555  0.00  0.00    +0.000 OA
ATOM     25  H   UNL     1      48.301   2.952   4.479  0.00  0.00    +0.000 HD
ATOM     26  H   UNL     1      46.823   3.716   4.950  0.00  0.00    +0.000 HD
ENDBRANCH  16  23
ENDBRANCH  15  19
ENDBRANCH   1  15
TORSDOF 5
ENDMDL
MODEL 3
REMARK VINA RESULT:    -8.248      2.373      3.846
REMARK INTER + INTRA:         -11.479
REMARK INTER:                 -10.835
REMARK INTRA:                  -0.643
REMARK UNBOUND:                -0.819
REMARK  Name = 
REMARK  5 active torsions:
REMARK  status: ('A' for Active; 'I' for Inactive)
REMARK    1  A    between atoms: C_2  and  C_4
REMARK    2  A    between atoms: C_7  and  O_8
REMARK    3  A    between atoms: O_8  and  C_9
REMARK    4  A    between atoms: C_9  and  C_10
REMARK    5  A    between atoms: C_15  and  C_16
REMARK                            x       y       z     vdW  Elec       q    Type
REMARK                         _______ _______ _______ _____ _____    ______ ____
ROOT
ATOM      1  C   UNL     1      44.122   4.133  11.556  0.00  0.00    +0.000 C 
ENDROOT
BRANCH   1   2
ATOM      2  C   UNL     1      45.295   4.764  12.278  0.00  0.00    +0.000 A 
ATOM      3  C   UNL     1      45.860   5.940  11.769  0.00  0.00    +0.000 A 
ATOM      4  C   UNL     1      46.904   6.563  12.445  0.00  0.00    +0.000 A 
ATOM      5  C   UNL     1      47.388   6.016  13.632  0.00  0.00    +0.000 A 
ATOM      6  F   UNL     1      48.411   6.651  14.226  0.00  0.00    +0.000 F 
ATOM      7  C   UNL     1      46.845   4.849  14.195  0.00  0.00    +0.000 A 
ATOM      8  C   UNL     1      45.779   4.246  13.493  0.00  0.00    +0.000 A 
BRANCH   7   9
ATOM      9  C   UNL     1      47.349   4.270  15.461  0.00  0.00    +0.000 A 
ATOM     10  C   UNL     1      47.954   3.004  15.515  0.00  0.00    +0.000 A 
ATOM     11  C   UNL     1      48.415   2.480  16.722  0.00  0.00    +0.000 A 
ATOM     12  C   UNL     1      48.269   3.241  17.866  0.00  0.00    +0.000 A 
ATOM     13  N   UNL     1      47.697   4.459  17.879  0.00  0.00    +0.000 NA
ATOM     14  C   UNL     1      47.254   4.938  16.686  0.00  0.00    +0.000 A 
ENDBRANCH   7   9
ENDBRANCH   1   2
BRANCH   1  15
ATOM     15  O   UNL     1      44.020   4.616  10.212  0.00  0.00    +0.000 OA
BRANCH  15  19
ATOM     16  C   UNL     1      46.457   2.460   7.686  0.00  0.00    +0.000 A 
ATOM     17  C   UNL     1      45.694   1.793   8.649  0.00  0.00    +0.000 A 
ATOM     18  C   UNL     1      44.871   2.533   9.498  0.00  0.00    +0.000 A 
ATOM     19  C   UNL     1      44.838   3.911   9.351  0.00  0.00    +0.000 A 
ATOM     20  N   UNL     1      45.561   4.581   8.429  0.00  0.00    +0.000 NA
ATOM     21  C   UNL     1      46.363   3.844   7.625  0.00  0.00    +0.000 A 
BRANCH  16  23
ATOM     22  N   UNL     1      48.490   2.469   6.353  0.00  0.00    +0.000 N 
ATOM     23  C   UNL     1      47.380   1.781   6.755  0.00  0.00    +0.000 C 
ATOM     24  O   UNL     1      47.180   0.632   6.384  0.00  0.00    +0.000 OA
ATOM     25  H   UNL     1      49.161   1.946   5.801  0.00  0.00    +0.000 HD
ATOM     26  H   UNL     1      48.821   3.298   6.825  0.00  0.00    +0.000 HD
ENDBRANCH  16  23
ENDBRANCH  15  19
ENDBRANCH   1  15
TORSDOF 5
ENDMDL
MODEL 4
REMARK VINA RESULT:    -7.550      2.995      7.114
REMARK INTER + INTRA:         -10.577
REMARK INTER:                  -9.870
REMARK INTRA:                  -0.707
REMARK UNBOUND:                -0.819
REMARK  Name = 
REMARK  5 active torsions:
REMARK  status: ('A' for Active; 'I' for Inactive)
REMARK    1  A    between atoms: C_2  and  C_4
REMARK    2  A    between atoms: C_7  and  O_8
REMARK    3  A    between atoms: O_8  and  C_9
REMARK    4  A    between atoms: C_9  and  C_10
REMARK    5  A    between atoms: C_15  and  C_16
REMARK                            x       y       z     vdW  Elec       q    Type
REMARK                         _______ _______ _______ _____ _____    ______ ____
ROOT
ATOM      1  C   UNL     1      44.550   6.252  10.944  0.00  0.00    +0.000 C 
ENDROOT
BRANCH   1   2
ATOM      2  C   UNL     1      44.591   4.831  10.420  0.00  0.00    +0.000 A 
ATOM      3  C   UNL     1      43.761   3.863  10.999  0.00  0.00    +0.000 A 
ATOM      4  C   UNL     1      43.745   2.566  10.498  0.00  0.00    +0.000 A 
ATOM      5  C   UNL     1      44.558   2.228   9.417  0.00  0.00    +0.000 A 
ATOM      6  F   UNL     1      44.516   0.955   8.994  0.00  0.00    +0.000 F 
ATOM      7  C   UNL     1      45.396   3.164   8.789  0.00  0.00    +0.000 A 
ATOM      8  C   UNL     1      45.380   4.476   9.311  0.00  0.00    +0.000 A 
BRANCH   7   9
ATOM      9  C   UNL     1      46.253   2.814   7.634  0.00  0.00    +0.000 A 
ATOM     10  C   UNL     1      46.292   3.594   6.468  0.00  0.00    +0.000 A 
ATOM     11  C   UNL     1      47.104   3.238   5.392  0.00  0.00    +0.000 A 
ATOM     12  C   UNL     1      47.880   2.100   5.505  0.00  0.00    +0.000 A 
ATOM     13  N   UNL     1      47.886   1.311   6.595  0.00  0.00    +0.000 NA
ATOM     14  C   UNL     1      47.078   1.684   7.623  0.00  0.00    +0.000 A 
ENDBRANCH   7   9
ENDBRANCH   1   2
BRANCH   1  15
ATOM     15  O   UNL     1      44.464   6.274  12.373  0.00  0.00    +0.000 OA
BRANCH  15  19
ATOM     16  C   UNL     1      48.143   6.797  14.151  0.00  0.00    +0.000 A 
ATOM     17  C   UNL     1      47.527   5.544  14.192  0.00  0.00    +0.000 A 
ATOM     18  C   UNL     1      46.281   5.377  13.585  0.00  0.00    +0.000 A 
ATOM     19  C   UNL     1      45.701   6.469  12.957  0.00  0.00    +0.000 A 
ATOM     20  N   UNL     1      46.274   7.689  12.900  0.00  0.00    +0.000 NA
ATOM     21  C   UNL     1      47.476   7.831  13.508  0.00  0.00    +0.000 A 
BRANCH  16  23
ATOM     22  N   UNL     1      50.077   8.248  14.416  0.00  0.00    +0.000 N 
ATOM     23  C   UNL     1      49.445   7.093  14.783  0.00  0.00    +0.000 C 
ATOM     24  O   UNL     1      49.925   6.350  15.629  0.00  0.00    +0.000 OA
ATOM     25  H   UNL     1      50.914   8.481  14.938  0.00  0.00    +0.000 HD
ATOM     26  H   UNL     1      49.608   8.997  13.929  0.00  0.00    +0.000 HD
ENDBRANCH  16  23
ENDBRANCH  15  19
ENDBRANCH   1  15
TORSDOF 5
ENDMDL
MODEL 5
REMARK VINA RESULT:    -7.036      1.839      2.004
REMARK INTER + INTRA:          -9.912
REMARK INTER:                  -9.316
REMARK INTRA:                  -0.596
REMARK UNBOUND:                -0.819
REMARK  Name = 
REMARK  5 active torsions:
REMARK  status: ('A' for Active; 'I' for Inactive)
REMARK    1  A    between atoms: C_2  and  C_4
REMARK    2  A    between atoms: C_7  and  O_8
REMARK    3  A    between atoms: O_8  and  C_9
REMARK    4  A    between atoms: C_9  and  C_10
REMARK    5  A    between atoms: C_15  and  C_16
REMARK                            x       y       z     vdW  Elec       q    Type
REMARK                         _______ _______ _______ _____ _____    ______ ____
ROOT
ATOM      1  C   UNL     1      45.323   6.142  10.309  0.00  0.00    +0.000 C 
ENDROOT
BRANCH   1   2
ATOM      2  C   UNL     1      45.951   5.933  11.672  0.00  0.00    +0.000 A 
ATOM      3  C   UNL     1      45.593   4.809  12.426  0.00  0.00    +0.000 A 
ATOM      4  C   UNL     1      46.198   4.572  13.656  0.00  0.00    +0.000 A 
ATOM      5  C   UNL     1      47.163   5.455  14.138  0.00  0.00    +0.000 A 
ATOM      6  F   UNL     1      47.693   5.185  15.341  0.00  0.00    +0.000 F 
ATOM      7  C   UNL     1      47.571   6.587  13.414  0.00  0.00    +0.000 A 
ATOM      8  C   UNL     1      46.950   6.794  12.164  0.00  0.00    +0.000 A 
BRANCH   7   9
ATOM      9  C   UNL     1      48.603   7.522  13.916  0.00  0.00    +0.000 A 
ATOM     10  C   UNL     1      49.904   7.554  13.389  0.00  0.00    +0.000 A 
ATOM     11  C   UNL     1      50.858   8.441  13.884  0.00  0.00    +0.000 A 
ATOM     12  C   UNL     1      50.490   9.298  14.904  0.00  0.00    +0.000 A 
ATOM     13  N   UNL     1      49.261   9.314  15.452  0.00  0.00    +0.000 NA
ATOM     14  C   UNL     1      48.357   8.433  14.949  0.00  0.00    +0.000 A 
ENDBRANCH   7   9
ENDBRANCH   1   2
BRANCH   1  15
ATOM     15  O   UNL     1      44.424   5.075   9.985  0.00  0.00    +0.000 OA
BRANCH  15  19
ATOM     16  C   UNL     1      46.300   2.019   7.957  0.00  0.00    +0.000 A 
ATOM     17  C   UNL     1      45.385   1.719   8.970  0.00  0.00    +0.000 A 
ATOM     18  C   UNL     1      44.755   2.762   9.649  0.00  0.00    +0.000 A 
ATOM     19  C   UNL     1      45.058   4.066   9.289  0.00  0.00    +0.000 A 
ATOM     20  N   UNL     1      45.935   4.385   8.313  0.00  0.00    +0.000 NA
ATOM     21  C   UNL     1      46.546   3.358   7.677  0.00  0.00    +0.000 A 
BRANCH  16  23
ATOM     22  N   UNL     1      46.789  -0.314   7.479  0.00  0.00    +0.000 N 
ATOM     23  C   UNL     1      47.044   0.998   7.193  0.00  0.00    +0.000 C 
ATOM     24  O   UNL     1      47.834   1.312   6.313  0.00  0.00    +0.000 OA
ATOM     25  H   UNL     1      47.231  -0.994   6.871  0.00  0.00    +0.000 HD
ATOM     26  H   UNL     1      45.978  -0.612   8.000  0.00  0.00    +0.000 HD
ENDBRANCH  16  23
ENDBRANCH  15  19
ENDBRANCH   1  15
TORSDOF 5
ENDMDL
MODEL 6
REMARK VINA RESULT:    -6.815      5.462      7.990
REMARK INTER + INTRA:          -9.627
REMARK INTER:                  -8.758
REMARK INTRA:                  -0.869
REMARK UNBOUND:                -0.819
REMARK  Name = 
REMARK  5 active torsions:
REMARK  status: ('A' for Active; 'I' for Inactive)
REMARK    1  A    between atoms: C_2  and  C_4
REMARK    2  A    between atoms: C_7  and  O_8
REMARK    3  A    between atoms: O_8  and  C_9
REMARK    4  A    between atoms: C_9  and  C_10
REMARK    5  A    between atoms: C_15  and  C_16
REMARK                            x       y       z     vdW  Elec       q    Type
REMARK                         _______ _______ _______ _____ _____    ______ ____
ROOT
ATOM      1  C   UNL     1      49.290   6.774  15.872  0.00  0.00    +0.000 C 
ENDROOT
BRANCH   1   2
ATOM      2  C   UNL     1      48.562   6.753  14.543  0.00  0.00    +0.000 A 
ATOM      3  C   UNL     1      49.082   7.482  13.466  0.00  0.00    +0.000 A 
ATOM      4  C   UNL     1      48.458   7.433  12.224  0.00  0.00    +0.000 A 
ATOM      5  C   UNL     1      47.314   6.657  12.050  0.00  0.00    +0.000 A 
ATOM      6  F   UNL     1      46.744   6.670  10.835  0.00  0.00    +0.000 F 
ATOM      7  C   UNL     1      46.761   5.894  13.093  0.00  0.00    +0.000 A 
ATOM      8  C   UNL     1      47.423   5.953  14.338  0.00  0.00    +0.000 A 
BRANCH   7   9
ATOM      9  C   UNL     1      45.552   5.060  12.911  0.00  0.00    +0.000 A 
ATOM     10  C   UNL     1      44.256   5.596  12.988  0.00  0.00    +0.000 A 
ATOM     11  C   UNL     1      43.133   4.786  12.819  0.00  0.00    +0.000 A 
ATOM     12  C   UNL     1      43.326   3.442  12.564  0.00  0.00    +0.000 A 
ATOM     13  N   UNL     1      44.541   2.870  12.481  0.00  0.00    +0.000 NA
ATOM     14  C   UNL     1      45.614   3.686  12.656  0.00  0.00    +0.000 A 
ENDBRANCH   7   9
ENDBRANCH   1   2
BRANCH   1  15
ATOM     15  O   UNL     1      48.709   5.846  16.794  0.00  0.00    +0.000 OA
BRANCH  15  19
ATOM     16  C   UNL     1      51.120   2.576  17.477  0.00  0.00    +0.000 A 
ATOM     17  C   UNL     1      49.750   2.395  17.270  0.00  0.00    +0.000 A 
ATOM     18  C   UNL     1      48.943   3.509  17.038  0.00  0.00    +0.000 A 
ATOM     19  C   UNL     1      49.536   4.762  17.018  0.00  0.00    +0.000 A 
ATOM     20  N   UNL     1      50.856   4.966  17.212  0.00  0.00    +0.000 NA
ATOM     21  C   UNL     1      51.617   3.872  17.449  0.00  0.00    +0.000 A 
BRANCH  16  23
ATOM     22  N   UNL     1      51.530   0.265  18.111  0.00  0.00    +0.000 N 
ATOM     23  C   UNL     1      52.061   1.473  17.758  0.00  0.00    +0.000 C 
ATOM     24  O   UNL     1      53.270   1.624  17.645  0.00  0.00    +0.000 OA
ATOM     25  H   UNL     1      52.188  -0.502  18.196  0.00  0.00    +0.000 HD
ATOM     26  H   UNL     1      50.559   0.031  17.968  0.00  0.00    +0.000 HD
ENDBRANCH  16  23
ENDBRANCH  15  19
ENDBRANCH   1  15
TORSDOF 5
ENDMDL
MODEL 7
REMARK VINA RESULT:    -6.668      4.767      8.214
REMARK INTER + INTRA:          -9.436
REMARK INTER:                  -8.606
REMARK INTRA:                  -0.829
REMARK UNBOUND:                -0.819
REMARK  Name = 
REMARK  5 active torsions:
REMARK  status: ('A' for Active; 'I' for Inactive)
REMARK    1  A    between atoms: C_2  and  C_4
REMARK    2  A    between atoms: C_7  and  O_8
REMARK    3  A    between atoms: O_8  and  C_9
REMARK    4  A    between atoms: C_9  and  C_10
REMARK    5  A    between atoms: C_15  and  C_16
REMARK                            x       y       z     vdW  Elec       q    Type
REMARK                         _______ _______ _______ _____ _____    ______ ____
ROOT
ATOM      1  C   UNL     1      48.461   7.333  14.085  0.00  0.00    +0.000 C 
ENDROOT
BRANCH   1   2
ATOM      2  C   UNL     1      47.192   7.384  13.258  0.00  0.00    +0.000 A 
ATOM      3  C   UNL     1      46.413   8.548  13.270  0.00  0.00    +0.000 A 
ATOM      4  C   UNL     1      45.273   8.634  12.478  0.00  0.00    +0.000 A 
ATOM      5  C   UNL     1      44.906   7.560  11.669  0.00  0.00    +0.000 A 
ATOM      6  F   UNL     1      43.783   7.694  10.945  0.00  0.00    +0.000 F 
ATOM      7  C   UNL     1      45.661   6.377  11.606  0.00  0.00    +0.000 A 
ATOM      8  C   UNL     1      46.819   6.324  12.411  0.00  0.00    +0.000 A 
BRANCH   7   9
ATOM      9  C   UNL     1      45.282   5.237  10.742  0.00  0.00    +0.000 A 
ATOM     10  C   UNL     1      45.650   5.169   9.389  0.00  0.00    +0.000 A 
ATOM     11  C   UNL     1      45.275   4.086   8.595  0.00  0.00    +0.000 A 
ATOM     12  C   UNL     1      44.536   3.073   9.176  0.00  0.00    +0.000 A 
ATOM     13  N   UNL     1      44.151   3.081  10.465  0.00  0.00    +0.000 NA
ATOM     14  C   UNL     1      44.529   4.154  11.208  0.00  0.00    +0.000 A 
ENDBRANCH   7   9
ENDBRANCH   1   2
BRANCH   1  15
ATOM     15  O   UNL     1      48.772   5.990  14.472  0.00  0.00    +0.000 OA
BRANCH  15  19
ATOM     16  C   UNL     1      48.242   5.451  18.522  0.00  0.00    +0.000 A 
ATOM     17  C   UNL     1      48.683   6.686  18.039  0.00  0.00    +0.000 A 
ATOM     18  C   UNL     1      48.857   6.859  16.666  0.00  0.00    +0.000 A 
ATOM     19  C   UNL     1      48.581   5.791  15.825  0.00  0.00    +0.000 A 
ATOM     20  N   UNL     1      48.153   4.588  16.263  0.00  0.00    +0.000 NA
ATOM     21  C   UNL     1      48.004   4.439  17.600  0.00  0.00    +0.000 A 
BRANCH  16  23
ATOM     22  N   UNL     1      48.614   4.003  20.439  0.00  0.00    +0.000 N 
ATOM     23  C   UNL     1      48.050   5.149  19.954  0.00  0.00    +0.000 C 
ATOM     24  O   UNL     1      47.439   5.914  20.689  0.00  0.00    +0.000 OA
ATOM     25  H   UNL     1      48.559   3.872  21.443  0.00  0.00    +0.000 HD
ATOM     26  H   UNL     1      49.326   3.490  19.941  0.00  0.00    +0.000 HD
ENDBRANCH  16  23
ENDBRANCH  15  19
ENDBRANCH   1  15
TORSDOF 5
ENDMDL
MODEL 8
REMARK VINA RESULT:    -6.474      5.434      7.672
REMARK INTER + INTRA:          -9.185
REMARK INTER:                  -8.323
REMARK INTRA:                  -0.862
REMARK UNBOUND:                -0.819
REMARK  Name = 
REMARK  5 active torsions:
REMARK  status: ('A' for Active; 'I' for Inactive)
REMARK    1  A    between atoms: C_2  and  C_4
REMARK    2  A    between atoms: C_7  and  O_8
REMARK    3  A    between atoms: O_8  and  C_9
REMARK    4  A    between atoms: C_9  and  C_10
REMARK    5  A    between atoms: C_15  and  C_16
REMARK                            x       y       z     vdW  Elec       q    Type
REMARK                         _______ _______ _______ _____ _____    ______ ____
ROOT
ATOM      1  C   UNL     1      48.906   7.416  15.252  0.00  0.00    +0.000 C 
ENDROOT
BRANCH   1   2
ATOM      2  C   UNL     1      49.098   6.600  16.514  0.00  0.00    +0.000 A 
ATOM      3  C   UNL     1      48.399   6.959  17.673  0.00  0.00    +0.000 A 
ATOM      4  C   UNL     1      48.521   6.192  18.828  0.00  0.00    +0.000 A 
ATOM      5  C   UNL     1      49.339   5.064  18.830  0.00  0.00    +0.000 A 
ATOM      6  F   UNL     1      49.434   4.379  19.980  0.00  0.00    +0.000 F 
ATOM      7  C   UNL     1      50.048   4.651  17.689  0.00  0.00    +0.000 A 
ATOM      8  C   UNL     1      49.895   5.441  16.530  0.00  0.00    +0.000 A 
BRANCH   7   9
ATOM      9  C   UNL     1      50.911   3.448  17.683  0.00  0.00    +0.000 A 
ATOM     10  C   UNL     1      52.261   3.494  18.067  0.00  0.00    +0.000 A 
ATOM     11  C   UNL     1      53.053   2.347  18.047  0.00  0.00    +0.000 A 
ATOM     12  C   UNL     1      52.475   1.158  17.647  0.00  0.00    +0.000 A 
ATOM     13  N   UNL     1      51.189   1.050  17.266  0.00  0.00    +0.000 NA
ATOM     14  C   UNL     1      50.446   2.188  17.293  0.00  0.00    +0.000 A 
ENDBRANCH   7   9
ENDBRANCH   1   2
BRANCH   1  15
ATOM     15  O   UNL     1      48.916   6.580  14.090  0.00  0.00    +0.000 OA
BRANCH  15  19
ATOM     16  C   UNL     1      45.116   5.302  13.138  0.00  0.00    +0.000 A 
ATOM     17  C   UNL     1      45.493   6.620  12.865  0.00  0.00    +0.000 A 
ATOM     18  C   UNL     1      46.782   7.042  13.189  0.00  0.00    +0.000 A 
ATOM     19  C   UNL     1      47.649   6.130  13.772  0.00  0.00    +0.000 A 
ATOM     20  N   UNL     1      47.314   4.851  14.046  0.00  0.00    +0.000 NA
ATOM     21  C   UNL     1      46.053   4.468  13.735  0.00  0.00    +0.000 A 
BRANCH  16  23
ATOM     22  N   UNL     1      42.704   5.589  13.053  0.00  0.00    +0.000 N 
ATOM     23  C   UNL     1      43.772   4.758  12.863  0.00  0.00    +0.000 C 
ATOM     24  O   UNL     1      43.620   3.618  12.447  0.00  0.00    +0.000 OA
ATOM     25  H   UNL     1      41.803   5.229  12.757  0.00  0.00    +0.000 HD
ATOM     26  H   UNL     1      42.798   6.590  13.142  0.00  0.00    +0.000 HD
ENDBRANCH  16  23
ENDBRANCH  15  19
ENDBRANCH   1  15
TORSDOF 5
ENDMDL
MODEL 9
REMARK VINA RESULT:    -6.302      5.695      7.581
REMARK INTER + INTRA:          -8.963
REMARK INTER:                  -8.454
REMARK INTRA:                  -0.509
REMARK UNBOUND:                -0.819
REMARK  Name = 
REMARK  5 active torsions:
REMARK  status: ('A' for Active; 'I' for Inactive)
REMARK    1  A    between atoms: C_2  and  C_4
REMARK    2  A    between atoms: C_7  and  O_8
REMARK    3  A    between atoms: O_8  and  C_9
REMARK    4  A    between atoms: C_9  and  C_10
REMARK    5  A    between atoms: C_15  and  C_16
REMARK                            x       y       z     vdW  Elec       q    Type
REMARK                         _______ _______ _______ _____ _____    ______ ____
ROOT
ATOM      1  C   UNL     1      47.109   3.675  16.086  0.00  0.00    +0.000 C 
ENDROOT
BRANCH   1   2
ATOM      2  C   UNL     1      48.263   3.978  17.020  0.00  0.00    +0.000 A 
ATOM      3  C   UNL     1      48.102   4.951  18.013  0.00  0.00    +0.000 A 
ATOM      4  C   UNL     1      49.130   5.207  18.914  0.00  0.00    +0.000 A 
ATOM      5  C   UNL     1      50.323   4.492  18.829  0.00  0.00    +0.000 A 
ATOM      6  F   UNL     1      51.287   4.800  19.711  0.00  0.00    +0.000 F 
ATOM      7  C   UNL     1      50.530   3.493  17.863  0.00  0.00    +0.000 A 
ATOM      8  C   UNL     1      49.464   3.246  16.971  0.00  0.00    +0.000 A 
BRANCH   7   9
ATOM      9  C   UNL     1      51.791   2.723  17.774  0.00  0.00    +0.000 A 
ATOM     10  C   UNL     1      53.050   3.334  17.884  0.00  0.00    +0.000 A 
ATOM     11  C   UNL     1      54.222   2.586  17.792  0.00  0.00    +0.000 A 
ATOM     12  C   UNL     1      54.117   1.222  17.596  0.00  0.00    +0.000 A 
ATOM     13  N   UNL     1      52.941   0.579  17.481  0.00  0.00    +0.000 NA
ATOM     14  C   UNL     1      51.817   1.339  17.571  0.00  0.00    +0.000 A 
ENDBRANCH   7   9
ENDBRANCH   1   2
BRANCH   1  15
ATOM     15  O   UNL     1      47.577   3.375  14.766  0.00  0.00    +0.000 OA
BRANCH  15  19
ATOM     16  C   UNL     1      44.995   4.830  11.906  0.00  0.00    +0.000 A 
ATOM     17  C   UNL     1      45.737   5.721  12.686  0.00  0.00    +0.000 A 
ATOM     18  C   UNL     1      46.610   5.217  13.650  0.00  0.00    +0.000 A 
ATOM     19  C   UNL     1      46.711   3.842  13.797  0.00  0.00    +0.000 A 
ATOM     20  N   UNL     1      46.009   2.959  13.057  0.00  0.00    +0.000 NA
ATOM     21  C   UNL     1      45.158   3.470  12.136  0.00  0.00    +0.000 A 
BRANCH  16  23
ATOM     22  N   UNL     1      43.470   6.496  11.004  0.00  0.00    +0.000 N 
ATOM     23  C   UNL     1      44.024   5.253  10.877  0.00  0.00    +0.000 C 
ATOM     24  O   UNL     1      43.749   4.532   9.927  0.00  0.00    +0.000 OA
ATOM     25  H   UNL     1      42.889   6.804  10.232  0.00  0.00    +0.000 HD
ATOM     26  H   UNL     1      43.852   7.205  11.611  0.00  0.00    +0.000 HD
ENDBRANCH  16  23
ENDBRANCH  15  19
ENDBRANCH   1  15
TORSDOF 5
ENDMDL
