MODEL 1
REMARK VINA RESULT:    -8.685      0.000      0.000
REMARK INTER + INTRA:         -10.699
REMARK INTER:                 -10.970
REMARK INTRA:                   0.271
REMARK UNBOUND:                 0.271
REMARK  Name = 
REMARK  5 active torsions:
REMARK  status: ('A' for Active; 'I' for Inactive)
REMARK    1  A    between atoms: C_2  and  C_3
REMARK    2  A    between atoms: C_6  and  C_7
REMARK    3  A    between atoms: C_7  and  N_8
REMARK    4  A    between atoms: C_12  and  C_13
REMARK    5  A    between atoms: C_21  and  O_22
REMARK                            x       y       z     vdW  Elec       q    Type
REMARK                         _______ _______ _______ _____ _____    ______ ____
ROOT
ATOM      1  C   UNL     1      44.036   5.044  11.173  0.00  0.00    +0.000 C 
ATOM      2  C   UNL     1      42.621   5.371  11.606  0.00  0.00    +0.000 C 
ATOM      3  C   UNL     1      43.022   3.940  11.472  0.00  0.00    +0.000 C 
ENDROOT
BRANCH   1   4
ATOM      4  N   UNL     1      44.456   5.141   9.778  0.00  0.00    +0.000 N 
ATOM      5  C   UNL     1      45.171   4.172   9.084  0.00  0.00    +0.000 A 
ATOM      6  N   UNL     1      45.242   2.894   9.491  0.00  0.00    +0.000 NA
ATOM      7  C   UNL     1      45.937   2.038   8.698  0.00  0.00    +0.000 A 
ATOM      8  C   UNL     1      46.554   2.410   7.524  0.00  0.00    +0.000 A 
ATOM      9  C   UNL     1      46.448   3.742   7.215  0.00  0.00    +0.000 A 
ATOM     10  N   UNL     1      45.766   4.630   7.968  0.00  0.00    +0.000 NA
ATOM     11  H   UNL     1      44.706   6.042   9.386  0.00  0.00    +0.000 HD
BRANCH   8  12
ATOM     12  C   UNL     1      47.299   1.440   6.707  0.00  0.00    +0.000 C 
ATOM     13  N   UNL     1      48.266   1.918   5.865  0.00  0.00    +0.000 N 
ATOM     14  O   UNL     1      47.045   0.244   6.764  0.00  0.00    +0.000 OA
ATOM     15  H   UNL     1      48.377   2.892   5.617  0.00  0.00    +0.000 HD
ATOM     16  H   UNL     1      48.711   1.239   5.257  0.00  0.00    +0.000 HD
ENDBRANCH   8  12
ENDBRANCH   1   4
BRANCH   1  20
ATOM     17  C   UNL     1      47.260   5.603  14.066  0.00  0.00    +0.000 A 
ATOM     18  C   UNL     1      46.678   6.703  13.431  0.00  0.00    +0.000 A 
ATOM     19  C   UNL     1      45.645   6.517  12.505  0.00  0.00    +0.000 A 
ATOM     20  C   UNL     1      45.173   5.234  12.174  0.00  0.00    +0.000 A 
ATOM     21  C   UNL     1      45.774   4.140  12.821  0.00  0.00    +0.000 A 
ATOM     22  C   UNL     1      46.796   4.322  13.758  0.00  0.00    +0.000 A 
BRANCH  17  24
ATOM     23  N   UNL     1      49.157   5.933  15.807  0.00  0.00    +0.000 NA
ATOM     24  C   UNL     1      48.305   5.815  15.028  0.00  0.00    +0.000 C 
ENDBRANCH  17  24
BRANCH  22  25
ATOM     25  O   UNL     1      47.342   3.238  14.386  0.00  0.00    +0.000 OA
ATOM     26  H   UNL     1      47.600   2.579  13.719  0.00  0.00    +0.000 HD
ENDBRANCH  22  25
ENDBRANCH   1  20
TORSDOF 5
ENDMDL
MODEL 2
REMARK VINA RESULT:    -8.187      2.302      6.914
REMARK INTER + INTRA:         -10.070
REMARK INTER:                  -9.904
REMARK INTRA:                  -0.166
REMARK UNBOUND:                 0.271
REMARK  Name = 
REMARK  5 active torsions:
REMARK  status: ('A' for Active; 'I' for Inactive)
REMARK    1  A    between atoms: C_2  and  C_3
REMARK    2  A    between atoms: C_6  and  C_7
REMARK    3  A    between atoms: C_7  and  N_8
REMARK    4  A    between atoms: C_12  and  C_13
REMARK    5  A    between atoms: C_21  and  O_22
REMARK                            x       y       z     vdW  Elec       q    Type
REMARK                         _______ _______ _______ _____ _____    ______ ____
ROOT
ATOM      1  C   UNL     1      44.466   4.138  10.655  0.00  0.00    +0.000 C 
ATOM      2  C   UNL     1      44.350   3.269  11.892  0.00  0.00    +0.000 C 
ATOM      3  C   UNL     1      43.162   3.421  11.002  0.00  0.00    +0.000 C 
ENDROOT
BRANCH   1   4
ATOM      4  N   UNL     1      44.414   5.595  10.730  0.00  0.00    +0.000 N 
ATOM      5  C   UNL     1      45.237   6.389  11.520  0.00  0.00    +0.000 A 
ATOM      6  N   UNL     1      46.404   5.950  12.021  0.00  0.00    +0.000 NA
ATOM      7  C   UNL     1      47.134   6.841  12.741  0.00  0.00    +0.000 A 
ATOM      8  C   UNL     1      46.744   8.142  12.973  0.00  0.00    +0.000 A 
ATOM      9  C   UNL     1      45.524   8.480  12.445  0.00  0.00    +0.000 A 
ATOM     10  N   UNL     1      44.765   7.632  11.721  0.00  0.00    +0.000 NA
ATOM     11  H   UNL     1      43.527   6.076  10.637  0.00  0.00    +0.000 HD
BRANCH   8  12
ATOM     12  C   UNL     1      47.574   9.062  13.765  0.00  0.00    +0.000 C 
ATOM     13  N   UNL     1      47.450   9.027  15.128  0.00  0.00    +0.000 N 
ATOM     14  O   UNL     1      48.335   9.850  13.220  0.00  0.00    +0.000 OA
ATOM     15  H   UNL     1      46.701   8.560  15.621  0.00  0.00    +0.000 HD
ATOM     16  H   UNL     1      47.974   9.723  15.647  0.00  0.00    +0.000 HD
ENDBRANCH   8  12
ENDBRANCH   1   4
BRANCH   1  20
ATOM     17  C   UNL     1      46.758   2.640   7.252  0.00  0.00    +0.000 A 
ATOM     18  C   UNL     1      46.553   4.012   7.421  0.00  0.00    +0.000 A 
ATOM     19  C   UNL     1      45.818   4.486   8.513  0.00  0.00    +0.000 A 
ATOM     20  C   UNL     1      45.254   3.610   9.459  0.00  0.00    +0.000 A 
ATOM     21  C   UNL     1      45.469   2.233   9.269  0.00  0.00    +0.000 A 
ATOM     22  C   UNL     1      46.215   1.757   8.187  0.00  0.00    +0.000 A 
BRANCH  17  24
ATOM     23  N   UNL     1      48.192   1.779   5.268  0.00  0.00    +0.000 NA
ATOM     24  C   UNL     1      47.531   2.175   6.135  0.00  0.00    +0.000 C 
ENDBRANCH  17  24
BRANCH  22  25
ATOM     25  O   UNL     1      46.424   0.414   8.046  0.00  0.00    +0.000 OA
ATOM     26  H   UNL     1      47.269   0.269   7.586  0.00  0.00    +0.000 HD
ENDBRANCH  22  25
ENDBRANCH   1  20
TORSDOF 5
ENDMDL
MODEL 3
REMARK VINA RESULT:    -7.595      2.153      6.806
REMARK INTER + INTRA:          -9.321
REMARK INTER:                  -8.857
REMARK INTRA:                  -0.465
REMARK UNBOUND:                 0.271
REMARK  Name = 
REMARK  5 active torsions:
REMARK  status: ('A' for Active; 'I' for Inactive)
REMARK    1  A    between atoms: C_2  and  C_3
REMARK    2  A    between atoms: C_6  and  C_7
REMARK    3  A    between atoms: C_7  and  N_8
REMARK    4  A    between atoms: C_12  and  C_13
REMARK    5  A    between atoms: C_21  and  O_22
REMARK                            x       y       z     vdW  Elec       q    Type
REMARK                         _______ _______ _______ _____ _____    ______ ____
ROOT
ATOM      1  C   UNL     1      44.234   5.137  11.099  0.00  0.00    +0.000 C 
ATOM      2  C   UNL     1      43.357   4.500  12.159  0.00  0.00    +0.000 C 
ATOM      3  C   UNL     1      42.712   5.258  11.048  0.00  0.00    +0.000 C 
ENDROOT
BRANCH   1   4
ATOM      4  N   UNL     1      44.951   6.386  11.341  0.00  0.00    +0.000 N 
ATOM      5  C   UNL     1      45.992   6.552  12.245  0.00  0.00    +0.000 A 
ATOM      6  N   UNL     1      46.703   5.521  12.731  0.00  0.00    +0.000 NA
ATOM      7  C   UNL     1      47.723   5.825  13.574  0.00  0.00    +0.000 A 
ATOM      8  C   UNL     1      48.057   7.110  13.941  0.00  0.00    +0.000 A 
ATOM      9  C   UNL     1      47.252   8.087  13.415  0.00  0.00    +0.000 A 
ATOM     10  N   UNL     1      46.229   7.836  12.572  0.00  0.00    +0.000 NA
ATOM     11  H   UNL     1      44.462   7.271  11.274  0.00  0.00    +0.000 HD
BRANCH   8  12
ATOM     12  C   UNL     1      49.171   7.380  14.863  0.00  0.00    +0.000 C 
ATOM     13  N   UNL     1      49.550   8.682  15.049  0.00  0.00    +0.000 N 
ATOM     14  O   UNL     1      49.754   6.465  15.429  0.00  0.00    +0.000 OA
ATOM     15  H   UNL     1      49.256   9.451  14.463  0.00  0.00    +0.000 HD
ATOM     16  H   UNL     1      50.368   8.836  15.629  0.00  0.00    +0.000 HD
ENDBRANCH   8  12
ENDBRANCH   1   4
BRANCH   1  20
ATOM     17  C   UNL     1      46.089   2.559   8.100  0.00  0.00    +0.000 A 
ATOM     18  C   UNL     1      45.372   2.007   9.165  0.00  0.00    +0.000 A 
ATOM     19  C   UNL     1      44.780   2.838  10.123  0.00  0.00    +0.000 A 
ATOM     20  C   UNL     1      44.896   4.238  10.057  0.00  0.00    +0.000 A 
ATOM     21  C   UNL     1      45.624   4.775   8.980  0.00  0.00    +0.000 A 
ATOM     22  C   UNL     1      46.205   3.948   8.013  0.00  0.00    +0.000 A 
BRANCH  17  24
ATOM     23  N   UNL     1      47.100   0.998   6.290  0.00  0.00    +0.000 NA
ATOM     24  C   UNL     1      46.672   1.690   7.117  0.00  0.00    +0.000 C 
ENDBRANCH  17  24
BRANCH  22  25
ATOM     25  O   UNL     1      46.885   4.503   6.965  0.00  0.00    +0.000 OA
ATOM     26  H   UNL     1      47.384   5.275   7.283  0.00  0.00    +0.000 HD
ENDBRANCH  22  25
ENDBRANCH   1  20
TORSDOF 5
ENDMDL
MODEL 4
REMARK VINA RESULT:    -7.587      1.653      2.062
REMARK INTER + INTRA:          -9.312
REMARK INTER:                  -8.872
REMARK INTRA:                  -0.440
REMARK UNBOUND:                 0.271
REMARK  Name = 
REMARK  5 active torsions:
REMARK  status: ('A' for Active; 'I' for Inactive)
REMARK    1  A    between atoms: C_2  and  C_3
REMARK    2  A    between atoms: C_6  and  C_7
REMARK    3  A    between atoms: C_7  and  N_8
REMARK    4  A    between atoms: C_12  and  C_13
REMARK    5  A    between atoms: C_21  and  O_22
REMARK                            x       y       z     vdW  Elec       q    Type
REMARK                         _______ _______ _______ _____ _____    ______ ____
ROOT
ATOM      1  C   UNL     1      44.038   5.008  11.732  0.00  0.00    +0.000 C 
ATOM      2  C   UNL     1      42.710   5.577  11.270  0.00  0.00    +0.000 C 
ATOM      3  C   UNL     1      42.779   4.884  12.590  0.00  0.00    +0.000 C 
ENDROOT
BRANCH   1   4
ATOM      4  N   UNL     1      44.560   3.750  11.208  0.00  0.00    +0.000 N 
ATOM      5  C   UNL     1      45.160   3.584   9.965  0.00  0.00    +0.000 A 
ATOM      6  N   UNL     1      45.659   4.612   9.258  0.00  0.00    +0.000 NA
ATOM      7  C   UNL     1      46.258   4.308   8.078  0.00  0.00    +0.000 A 
ATOM      8  C   UNL     1      46.379   3.026   7.587  0.00  0.00    +0.000 A 
ATOM      9  C   UNL     1      45.810   2.054   8.369  0.00  0.00    +0.000 A 
ATOM     10  N   UNL     1      45.207   2.306   9.550  0.00  0.00    +0.000 NA
ATOM     11  H   UNL     1      44.106   2.875  11.445  0.00  0.00    +0.000 HD
BRANCH   8  12
ATOM     12  C   UNL     1      47.034   2.756   6.298  0.00  0.00    +0.000 C 
ATOM     13  N   UNL     1      48.375   2.481   6.305  0.00  0.00    +0.000 N 
ATOM     14  O   UNL     1      46.403   2.799   5.251  0.00  0.00    +0.000 OA
ATOM     15  H   UNL     1      48.986   2.637   7.095  0.00  0.00    +0.000 HD
ATOM     16  H   UNL     1      48.818   2.375   5.399  0.00  0.00    +0.000 HD
ENDBRANCH   8  12
ENDBRANCH   1   4
BRANCH   1  20
ATOM     17  C   UNL     1      47.106   7.772  13.155  0.00  0.00    +0.000 A 
ATOM     18  C   UNL     1      46.002   8.244  12.440  0.00  0.00    +0.000 A 
ATOM     19  C   UNL     1      45.022   7.354  11.987  0.00  0.00    +0.000 A 
ATOM     20  C   UNL     1      45.120   5.970  12.218  0.00  0.00    +0.000 A 
ATOM     21  C   UNL     1      46.240   5.514  12.936  0.00  0.00    +0.000 A 
ATOM     22  C   UNL     1      47.213   6.403  13.403  0.00  0.00    +0.000 A 
BRANCH  17  24
ATOM     23  N   UNL     1      48.869   9.447  14.062  0.00  0.00    +0.000 NA
ATOM     24  C   UNL     1      48.090   8.705  13.628  0.00  0.00    +0.000 C 
ENDBRANCH  17  24
BRANCH  22  25
ATOM     25  O   UNL     1      48.277   5.929  14.119  0.00  0.00    +0.000 OA
ATOM     26  H   UNL     1      48.830   5.376  13.540  0.00  0.00    +0.000 HD
ENDBRANCH  22  25
ENDBRANCH   1  20
TORSDOF 5
ENDMDL
MODEL 5
REMARK VINA RESULT:    -6.765      1.878      6.931
REMARK INTER + INTRA:          -8.274
REMARK INTER:                  -7.828
REMARK INTRA:                  -0.446
REMARK UNBOUND:                 0.271
REMARK  Name = 
REMARK  5 active torsions:
REMARK  status: ('A' for Active; 'I' for Inactive)
REMARK    1  A    between atoms: C_2  and  C_3
REMARK    2  A    between atoms: C_6  and  C_7
REMARK    3  A    between atoms: C_7  and  N_8
REMARK    4  A    between atoms: C_12  and  C_13
REMARK    5  A    between atoms: C_21  and  O_22
REMARK                            x       y       z     vdW  Elec       q    Type
REMARK                         _______ _______ _______ _____ _____    ______ ____
ROOT
ATOM      1  C   UNL     1      44.433   4.215  10.986  0.00  0.00    +0.000 C 
ATOM      2  C   UNL     1      43.280   3.450  11.607  0.00  0.00    +0.000 C 
ATOM      3  C   UNL     1      42.984   4.655  10.778  0.00  0.00    +0.000 C 
ENDROOT
BRANCH   1   4
ATOM      4  N   UNL     1      45.256   5.133  11.767  0.00  0.00    +0.000 N 
ATOM      5  C   UNL     1      45.960   4.800  12.918  0.00  0.00    +0.000 A 
ATOM      6  N   UNL     1      46.265   3.532  13.240  0.00  0.00    +0.000 NA
ATOM      7  C   UNL     1      46.996   3.348  14.370  0.00  0.00    +0.000 A 
ATOM      8  C   UNL     1      47.431   4.375  15.178  0.00  0.00    +0.000 A 
ATOM      9  C   UNL     1      47.041   5.627  14.778  0.00  0.00    +0.000 A 
ATOM     10  N   UNL     1      46.318   5.862  13.663  0.00  0.00    +0.000 NA
ATOM     11  H   UNL     1      44.993   6.109  11.843  0.00  0.00    +0.000 HD
BRANCH   8  12
ATOM     12  C   UNL     1      48.216   4.115  16.395  0.00  0.00    +0.000 C 
ATOM     13  N   UNL     1      48.943   5.147  16.923  0.00  0.00    +0.000 N 
ATOM     14  O   UNL     1      48.235   3.003  16.905  0.00  0.00    +0.000 OA
ATOM     15  H   UNL     1      49.136   6.015  16.441  0.00  0.00    +0.000 HD
ATOM     16  H   UNL     1      49.535   4.924  17.716  0.00  0.00    +0.000 HD
ENDBRANCH   8  12
ENDBRANCH   1   4
BRANCH   1  20
ATOM     17  C   UNL     1      46.462   2.469   7.535  0.00  0.00    +0.000 A 
ATOM     18  C   UNL     1      45.857   1.650   8.492  0.00  0.00    +0.000 A 
ATOM     19  C   UNL     1      45.209   2.215   9.596  0.00  0.00    +0.000 A 
ATOM     20  C   UNL     1      45.156   3.607   9.786  0.00  0.00    +0.000 A 
ATOM     21  C   UNL     1      45.772   4.415   8.814  0.00  0.00    +0.000 A 
ATOM     22  C   UNL     1      46.409   3.854   7.702  0.00  0.00    +0.000 A 
BRANCH  17  24
ATOM     23  N   UNL     1      47.580   1.396   5.453  0.00  0.00    +0.000 NA
ATOM     24  C   UNL     1      47.105   1.870   6.399  0.00  0.00    +0.000 C 
ENDBRANCH  17  24
BRANCH  22  25
ATOM     25  O   UNL     1      46.977   4.669   6.763  0.00  0.00    +0.000 OA
ATOM     26  H   UNL     1      47.393   5.427   7.209  0.00  0.00    +0.000 HD
ENDBRANCH  22  25
ENDBRANCH   1  20
TORSDOF 5
ENDMDL
MODEL 6
REMARK VINA RESULT:    -6.499      4.003      6.528
REMARK INTER + INTRA:          -7.937
REMARK INTER:                  -7.869
REMARK INTRA:                  -0.069
REMARK UNBOUND:                 0.271
REMARK  Name = 
REMARK  5 active torsions:
REMARK  status: ('A' for Active; 'I' for Inactive)
REMARK    1  A    between atoms: C_2  and  C_3
REMARK    2  A    between atoms: C_6  and  C_7
REMARK    3  A    between atoms: C_7  and  N_8
REMARK    4  A    between atoms: C_12  and  C_13
REMARK    5  A    between atoms: C_21  and  O_22
REMARK                            x       y       z     vdW  Elec       q    Type
REMARK                         _______ _______ _______ _____ _____    ______ ____
ROOT
ATOM      1  C   UNL     1      47.885   3.578  16.688  0.00  0.00    +0.000 C 
ATOM      2  C   UNL     1      47.144   4.699  17.392  0.00  0.00    +0.000 C 
ATOM      3  C   UNL     1      46.864   3.288  17.788  0.00  0.00    +0.000 C 
ENDROOT
BRANCH   1   4
ATOM      4  N   UNL     1      47.507   3.126  15.353  0.00  0.00    +0.000 N 
ATOM      5  C   UNL     1      46.985   3.932  14.349  0.00  0.00    +0.000 A 
ATOM      6  N   UNL     1      47.108   5.270  14.357  0.00  0.00    +0.000 NA
ATOM      7  C   UNL     1      46.590   5.937  13.292  0.00  0.00    +0.000 A 
ATOM      8  C   UNL     1      45.965   5.321  12.231  0.00  0.00    +0.000 A 
ATOM      9  C   UNL     1      45.864   3.957  12.335  0.00  0.00    +0.000 A 
ATOM     10  N   UNL     1      46.365   3.250  13.369  0.00  0.00    +0.000 NA
ATOM     11  H   UNL     1      47.128   2.194  15.222  0.00  0.00    +0.000 HD
BRANCH   8  12
ATOM     12  C   UNL     1      45.418   6.096  11.107  0.00  0.00    +0.000 C 
ATOM     13  N   UNL     1      45.267   5.462   9.903  0.00  0.00    +0.000 N 
ATOM     14  O   UNL     1      45.128   7.277  11.240  0.00  0.00    +0.000 OA
ATOM     15  H   UNL     1      45.677   4.566   9.674  0.00  0.00    +0.000 HD
ATOM     16  H   UNL     1      44.961   6.037   9.125  0.00  0.00    +0.000 HD
ENDBRANCH   8  12
ENDBRANCH   1   4
BRANCH   1  20
ATOM     17  C   UNL     1      52.084   2.917  17.693  0.00  0.00    +0.000 A 
ATOM     18  C   UNL     1      51.540   4.204  17.725  0.00  0.00    +0.000 A 
ATOM     19  C   UNL     1      50.194   4.410  17.403  0.00  0.00    +0.000 A 
ATOM     20  C   UNL     1      49.356   3.346  17.024  0.00  0.00    +0.000 A 
ATOM     21  C   UNL     1      49.922   2.058  16.994  0.00  0.00    +0.000 A 
ATOM     22  C   UNL     1      51.263   1.847  17.330  0.00  0.00    +0.000 A 
BRANCH  17  24
ATOM     23  N   UNL     1      54.586   2.556  18.279  0.00  0.00    +0.000 NA
ATOM     24  C   UNL     1      53.462   2.725  18.046  0.00  0.00    +0.000 C 
ENDBRANCH  17  24
BRANCH  22  25
ATOM     25  O   UNL     1      51.775   0.580  17.313  0.00  0.00    +0.000 OA
ATOM     26  H   UNL     1      51.990   0.336  16.397  0.00  0.00    +0.000 HD
ENDBRANCH  22  25
ENDBRANCH   1  20
TORSDOF 5
ENDMDL
MODEL 7
REMARK VINA RESULT:    -6.159      4.328      8.575
REMARK INTER + INTRA:          -7.508
REMARK INTER:                  -7.193
REMARK INTRA:                  -0.314
REMARK UNBOUND:                 0.271
REMARK  Name = 
REMARK  5 active torsions:
REMARK  status: ('A' for Active; 'I' for Inactive)
REMARK    1  A    between atoms: C_2  and  C_3
REMARK    2  A    between atoms: C_6  and  C_7
REMARK    3  A    between atoms: C_7  and  N_8
REMARK    4  A    between atoms: C_12  and  C_13
REMARK    5  A    between atoms: C_21  and  O_22
REMARK                            x       y       z     vdW  Elec       q    Type
REMARK                         _______ _______ _______ _____ _____    ______ ____
ROOT
ATOM      1  C   UNL     1      48.552   4.841  17.331  0.00  0.00    +0.000 C 
ATOM      2  C   UNL     1      47.686   4.059  18.299  0.00  0.00    +0.000 C 
ATOM      3  C   UNL     1      47.861   5.526  18.510  0.00  0.00    +0.000 C 
ENDROOT
BRANCH   1   4
ATOM      4  N   UNL     1      50.010   4.804  17.401  0.00  0.00    +0.000 N 
ATOM      5  C   UNL     1      50.781   3.652  17.495  0.00  0.00    +0.000 A 
ATOM      6  N   UNL     1      50.311   2.437  17.165  0.00  0.00    +0.000 NA
ATOM      7  C   UNL     1      51.182   1.399  17.261  0.00  0.00    +0.000 A 
ATOM      8  C   UNL     1      52.493   1.532  17.666  0.00  0.00    +0.000 A 
ATOM      9  C   UNL     1      52.863   2.807  18.008  0.00  0.00    +0.000 A 
ATOM     10  N   UNL     1      52.036   3.870  17.927  0.00  0.00    +0.000 NA
ATOM     11  H   UNL     1      50.513   5.546  17.874  0.00  0.00    +0.000 HD
BRANCH   8  12
ATOM     12  C   UNL     1      53.390   0.370  17.756  0.00  0.00    +0.000 C 
ATOM     13  N   UNL     1      53.844  -0.182  16.589  0.00  0.00    +0.000 N 
ATOM     14  O   UNL     1      53.702  -0.100  18.842  0.00  0.00    +0.000 OA
ATOM     15  H   UNL     1      53.463   0.021  15.675  0.00  0.00    +0.000 HD
ATOM     16  H   UNL     1      54.399  -1.027  16.676  0.00  0.00    +0.000 HD
ENDBRANCH   8  12
ENDBRANCH   1   4
BRANCH   1  20
ATOM     17  C   UNL     1      47.037   5.685  13.322  0.00  0.00    +0.000 A 
ATOM     18  C   UNL     1      47.920   6.569  13.949  0.00  0.00    +0.000 A 
ATOM     19  C   UNL     1      48.402   6.293  15.233  0.00  0.00    +0.000 A 
ATOM     20  C   UNL     1      48.009   5.140  15.936  0.00  0.00    +0.000 A 
ATOM     21  C   UNL     1      47.118   4.264  15.291  0.00  0.00    +0.000 A 
ATOM     22  C   UNL     1      46.645   4.529  14.001  0.00  0.00    +0.000 A 
BRANCH  17  24
ATOM     23  N   UNL     1      46.158   6.249  10.947  0.00  0.00    +0.000 NA
ATOM     24  C   UNL     1      46.569   5.976  11.996  0.00  0.00    +0.000 C 
ENDBRANCH  17  24
BRANCH  22  25
ATOM     25  O   UNL     1      45.799   3.645  13.394  0.00  0.00    +0.000 OA
ATOM     26  H   UNL     1      46.320   3.016  12.865  0.00  0.00    +0.000 HD
ENDBRANCH  22  25
ENDBRANCH   1  20
TORSDOF 5
ENDMDL
MODEL 8
REMARK VINA RESULT:    -6.075      3.705      5.248
REMARK INTER + INTRA:          -7.402
REMARK INTER:                  -6.952
REMARK INTRA:                  -0.450
REMARK UNBOUND:                 0.271
REMARK  Name = 
REMARK  5 active torsions:
REMARK  status: ('A' for Active; 'I' for Inactive)
REMARK    1  A    between atoms: C_2  and  C_3
REMARK    2  A    between atoms: C_6  and  C_7
REMARK    3  A    between atoms: C_7  and  N_8
REMARK    4  A    between atoms: C_12  and  C_13
REMARK    5  A    between atoms: C_21  and  O_22
REMARK                            x       y       z     vdW  Elec       q    Type
REMARK                         _______ _______ _______ _____ _____    ______ ____
ROOT
ATOM      1  C   UNL     1      48.289   8.198  12.552  0.00  0.00    +0.000 C 
ATOM      2  C   UNL     1      49.380   7.850  11.559  0.00  0.00    +0.000 C 
ATOM      3  C   UNL     1      49.023   9.284  11.767  0.00  0.00    +0.000 C 
ENDROOT
BRANCH   1   4
ATOM      4  N   UNL     1      46.874   8.044  12.226  0.00  0.00    +0.000 N 
ATOM      5  C   UNL     1      46.209   6.831  12.092  0.00  0.00    +0.000 A 
ATOM      6  N   UNL     1      46.686   5.682  12.599  0.00  0.00    +0.000 NA
ATOM      7  C   UNL     1      45.915   4.576  12.434  0.00  0.00    +0.000 A 
ATOM      8  C   UNL     1      44.696   4.578  11.792  0.00  0.00    +0.000 A 
ATOM      9  C   UNL     1      44.315   5.794  11.286  0.00  0.00    +0.000 A 
ATOM     10  N   UNL     1      45.043   6.921  11.426  0.00  0.00    +0.000 NA
ATOM     11  H   UNL     1      46.420   8.710  11.612  0.00  0.00    +0.000 HD
BRANCH   8  12
ATOM     12  C   UNL     1      43.906   3.347  11.640  0.00  0.00    +0.000 C 
ATOM     13  N   UNL     1      43.799   2.514  12.720  0.00  0.00    +0.000 N 
ATOM     14  O   UNL     1      43.380   3.066  10.571  0.00  0.00    +0.000 OA
ATOM     15  H   UNL     1      44.373   2.579  13.550  0.00  0.00    +0.000 HD
ATOM     16  H   UNL     1      43.315   1.636  12.568  0.00  0.00    +0.000 HD
ENDBRANCH   8  12
ENDBRANCH   1   4
BRANCH   1  20
ATOM     17  C   UNL     1      49.118   7.881  16.829  0.00  0.00    +0.000 A 
ATOM     18  C   UNL     1      48.348   8.935  16.331  0.00  0.00    +0.000 A 
ATOM     19  C   UNL     1      48.086   9.032  14.960  0.00  0.00    +0.000 A 
ATOM     20  C   UNL     1      48.593   8.092  14.045  0.00  0.00    +0.000 A 
ATOM     21  C   UNL     1      49.368   7.040  14.564  0.00  0.00    +0.000 A 
ATOM     22  C   UNL     1      49.620   6.933  15.935  0.00  0.00    +0.000 A 
BRANCH  17  24
ATOM     23  N   UNL     1      49.554   7.769  19.385  0.00  0.00    +0.000 NA
ATOM     24  C   UNL     1      49.359   7.789  18.241  0.00  0.00    +0.000 C 
ENDBRANCH  17  24
BRANCH  22  25
ATOM     25  O   UNL     1      50.358   5.884  16.409  0.00  0.00    +0.000 OA
ATOM     26  H   UNL     1      51.200   5.842  15.925  0.00  0.00    +0.000 HD
ENDBRANCH  22  25
ENDBRANCH   1  20
TORSDOF 5
ENDMDL
MODEL 9
REMARK VINA RESULT:    -6.019      4.434      7.192
REMARK INTER + INTRA:          -7.331
REMARK INTER:                  -7.716
REMARK INTRA:                   0.385
REMARK UNBOUND:                 0.271
REMARK  Name = 
REMARK  5 active torsions:
REMARK  status: ('A' for Active; 'I' for Inactive)
REMARK    1  A    between atoms: C_2  and  C_3
REMARK    2  A    between atoms: C_6  and  C_7
REMARK    3  A    between atoms: C_7  and  N_8
REMARK    4  A    between atoms: C_12  and  C_13
REMARK    5  A    between atoms: C_21  and  O_22
REMARK                            x       y       z     vdW  Elec       q    Type
REMARK                         _______ _______ _______ _____ _____    ______ ____
ROOT
ATOM      1  C   UNL     1      45.925   4.162  12.927  0.00  0.00    +0.000 C 
ATOM      2  C   UNL     1      45.080   3.675  11.766  0.00  0.00    +0.000 C 
ATOM      3  C   UNL     1      44.420   3.941  13.078  0.00  0.00    +0.000 C 
ENDROOT
BRANCH   1   4
ATOM      4  N   UNL     1      46.768   3.254  13.699  0.00  0.00    +0.000 N 
ATOM      5  C   UNL     1      47.208   3.476  14.998  0.00  0.00    +0.000 A 
ATOM      6  N   UNL     1      46.621   4.360  15.822  0.00  0.00    +0.000 NA
ATOM      7  C   UNL     1      47.122   4.448  17.081  0.00  0.00    +0.000 A 
ATOM      8  C   UNL     1      48.175   3.689  17.542  0.00  0.00    +0.000 A 
ATOM      9  C   UNL     1      48.723   2.840  16.615  0.00  0.00    +0.000 A 
ATOM     10  N   UNL     1      48.259   2.714  15.354  0.00  0.00    +0.000 NA
ATOM     11  H   UNL     1      47.472   2.695  13.231  0.00  0.00    +0.000 HD
BRANCH   8  12
ATOM     12  C   UNL     1      48.680   3.831  18.917  0.00  0.00    +0.000 C 
ATOM     13  N   UNL     1      48.279   2.911  19.846  0.00  0.00    +0.000 N 
ATOM     14  O   UNL     1      49.419   4.758  19.222  0.00  0.00    +0.000 OA
ATOM     15  H   UNL     1      47.518   2.259  19.713  0.00  0.00    +0.000 HD
ATOM     16  H   UNL     1      48.579   3.074  20.802  0.00  0.00    +0.000 HD
ENDBRANCH   8  12
ENDBRANCH   1   4
BRANCH   1  20
ATOM     17  C   UNL     1      47.346   8.292  12.865  0.00  0.00    +0.000 A 
ATOM     18  C   UNL     1      48.251   7.228  12.797  0.00  0.00    +0.000 A 
ATOM     19  C   UNL     1      47.789   5.908  12.818  0.00  0.00    +0.000 A 
ATOM     20  C   UNL     1      46.419   5.606  12.920  0.00  0.00    +0.000 A 
ATOM     21  C   UNL     1      45.525   6.690  12.990  0.00  0.00    +0.000 A 
ATOM     22  C   UNL     1      45.982   8.011  12.956  0.00  0.00    +0.000 A 
BRANCH  17  24
ATOM     23  N   UNL     1      48.244  10.727  12.843  0.00  0.00    +0.000 NA
ATOM     24  C   UNL     1      47.839   9.640  12.823  0.00  0.00    +0.000 C 
ENDBRANCH  17  24
BRANCH  22  25
ATOM     25  O   UNL     1      45.083   9.041  13.001  0.00  0.00    +0.000 OA
ATOM     26  H   UNL     1      44.706   9.094  13.896  0.00  0.00    +0.000 HD
ENDBRANCH  22  25
ENDBRANCH   1  20
TORSDOF 5
ENDMDL
