MODEL 1
REMARK VINA RESULT:    -7.720      0.000      0.000
REMARK INTER + INTRA:         -12.233
REMARK INTER:                 -10.880
REMARK INTRA:                  -1.353
REMARK UNBOUND:                -1.353
REMARK  Name = 
REMARK  8 active torsions:
REMARK  status: ('A' for Active; 'I' for Inactive)
REMARK    1  A    between atoms: C_1  and  C_2
REMARK    2  A    between atoms: C_2  and  C_3
REMARK    3  A    between atoms: C_3  and  N_4
REMARK    4  A    between atoms: C_3  and  C_17
REMARK    5  A    between atoms: C_5  and  C_7
REMARK    6  A    between atoms: C_20  and  C_21
REMARK    7  A    between atoms: C_21  and  N_22
REMARK    8  A    between atoms: C_23  and  C_25
REMARK                            x       y       z     vdW  Elec       q    Type
REMARK                         _______ _______ _______ _____ _____    ______ ____
ROOT
ATOM      1  C   UNL     1      47.865   7.388  13.875  0.00  0.00    +0.000 C 
ENDROOT
BRANCH   1   2
ATOM      2  C   UNL     1      46.894   6.546  13.046  0.00  0.00    +0.000 A 
ATOM      3  C   UNL     1      46.410   5.320  13.531  0.00  0.00    +0.000 A 
ATOM      4  C   UNL     1      45.521   4.544  12.773  0.00  0.00    +0.000 A 
ATOM      5  C   UNL     1      45.095   4.971  11.507  0.00  0.00    +0.000 A 
ATOM      6  C   UNL     1      45.545   6.210  11.036  0.00  0.00    +0.000 A 
ATOM      7  C   UNL     1      46.435   6.984  11.792  0.00  0.00    +0.000 A 
BRANCH   5   8
ATOM      8  C   UNL     1      44.199   4.109  10.656  0.00  0.00    +0.000 C 
BRANCH   8   9
ATOM      9  N   UNL     1      44.907   3.111   9.898  0.00  0.00    +0.000 N 
ATOM     10  C   UNL     1      45.387   3.392   8.636  0.00  0.00    +0.000 C 
ATOM     11  O   UNL     1      45.215   4.474   8.079  0.00  0.00    +0.000 OA
ATOM     12  H   UNL     1      45.163   2.214  10.299  0.00  0.00    +0.000 HD
BRANCH  10  13
ATOM     13  C   UNL     1      46.126   2.287   8.003  0.00  0.00    +0.000 A 
ATOM     14  C   UNL     1      47.060   2.398   6.936  0.00  0.00    +0.000 A 
ATOM     15  C   UNL     1      47.481   1.116   6.680  0.00  0.00    +0.000 A 
ATOM     16  N   UNL     1      46.807   0.323   7.560  0.00  0.00    +0.000 N 
ATOM     17  N   UNL     1      45.990   0.998   8.386  0.00  0.00    +0.000 NA
ATOM     18  H   UNL     1      46.861  -0.686   7.651  0.00  0.00    +0.000 HD
ENDBRANCH  10  13
ENDBRANCH   8   9
ENDBRANCH   5   8
ENDBRANCH   1   2
BRANCH   1  19
ATOM     19  N   UNL     1      47.916   6.837  15.224  0.00  0.00    +0.000 N 
ATOM     20  C   UNL     1      49.076   6.477  15.863  0.00  0.00    +0.000 C 
ATOM     21  O   UNL     1      50.191   6.669  15.391  0.00  0.00    +0.000 OA
ATOM     22  H   UNL     1      47.049   6.426  15.553  0.00  0.00    +0.000 HD
BRANCH  20  23
ATOM     23  C   UNL     1      48.911   5.884  17.193  0.00  0.00    +0.000 A 
ATOM     24  C   UNL     1      49.196   4.542  17.405  0.00  0.00    +0.000 A 
ATOM     25  S   UNL     1      48.926   4.036  19.013  0.00  0.00    +0.000 S 
ATOM     26  C   UNL     1      48.377   5.583  19.465  0.00  0.00    +0.000 A 
ATOM     27  N   UNL     1      47.930   5.830  20.726  0.00  0.00    +0.000 NA
ATOM     28  C   UNL     1      47.514   7.038  20.916  0.00  0.00    +0.000 A 
ATOM     29  N   UNL     1      47.517   8.026  19.965  0.00  0.00    +0.000 N 
ATOM     30  C   UNL     1      48.003   7.835  18.696  0.00  0.00    +0.000 A 
ATOM     31  O   UNL     1      48.073   8.761  17.895  0.00  0.00    +0.000 OA
ATOM     32  C   UNL     1      48.443   6.483  18.418  0.00  0.00    +0.000 A 
ATOM     33  H   UNL     1      47.207   8.961  20.184  0.00  0.00    +0.000 HD
ENDBRANCH  20  23
ENDBRANCH   1  19
BRANCH   1  35
ATOM     34  C   UNL     1      48.667   9.820  14.121  0.00  0.00    +0.000 C 
ATOM     35  C   UNL     1      47.487   8.885  13.901  0.00  0.00    +0.000 C 
ENDBRANCH   1  35
TORSDOF 7
ENDMDL
MODEL 2
REMARK VINA RESULT:    -7.691      1.389      1.955
REMARK INTER + INTRA:         -12.192
REMARK INTER:                 -11.031
REMARK INTRA:                  -1.161
REMARK UNBOUND:                -1.353
REMARK  Name = 
REMARK  8 active torsions:
REMARK  status: ('A' for Active; 'I' for Inactive)
REMARK    1  A    between atoms: C_1  and  C_2
REMARK    2  A    between atoms: C_2  and  C_3
REMARK    3  A    between atoms: C_3  and  N_4
REMARK    4  A    between atoms: C_3  and  C_17
REMARK    5  A    between atoms: C_5  and  C_7
REMARK    6  A    between atoms: C_20  and  C_21
REMARK    7  A    between atoms: C_21  and  N_22
REMARK    8  A    between atoms: C_23  and  C_25
REMARK                            x       y       z     vdW  Elec       q    Type
REMARK                         _______ _______ _______ _____ _____    ______ ____
ROOT
ATOM      1  C   UNL     1      47.783   7.753  13.483  0.00  0.00    +0.000 C 
ENDROOT
BRANCH   1   2
ATOM      2  C   UNL     1      46.875   6.656  12.924  0.00  0.00    +0.000 A 
ATOM      3  C   UNL     1      46.843   5.381  13.512  0.00  0.00    +0.000 A 
ATOM      4  C   UNL     1      46.014   4.372  13.000  0.00  0.00    +0.000 A 
ATOM      5  C   UNL     1      45.197   4.610  11.886  0.00  0.00    +0.000 A 
ATOM      6  C   UNL     1      45.198   5.891  11.321  0.00  0.00    +0.000 A 
ATOM      7  C   UNL     1      46.028   6.898  11.830  0.00  0.00    +0.000 A 
BRANCH   5   8
ATOM      8  C   UNL     1      44.359   3.510  11.286  0.00  0.00    +0.000 C 
BRANCH   8   9
ATOM      9  N   UNL     1      45.079   2.674  10.362  0.00  0.00    +0.000 N 
ATOM     10  C   UNL     1      45.128   2.988   9.019  0.00  0.00    +0.000 C 
ATOM     11  O   UNL     1      44.548   3.956   8.535  0.00  0.00    +0.000 OA
ATOM     12  H   UNL     1      45.650   1.895  10.674  0.00  0.00    +0.000 HD
BRANCH  10  13
ATOM     13  C   UNL     1      45.936   2.064   8.206  0.00  0.00    +0.000 A 
ATOM     14  C   UNL     1      46.800   2.419   7.133  0.00  0.00    +0.000 A 
ATOM     15  C   UNL     1      47.328   1.235   6.678  0.00  0.00    +0.000 A 
ATOM     16  N   UNL     1      46.778   0.262   7.457  0.00  0.00    +0.000 N 
ATOM     17  N   UNL     1      45.943   0.726   8.401  0.00  0.00    +0.000 NA
ATOM     18  H   UNL     1      46.932  -0.740   7.398  0.00  0.00    +0.000 HD
ENDBRANCH  10  13
ENDBRANCH   8   9
ENDBRANCH   5   8
ENDBRANCH   1   2
BRANCH   1  19
ATOM     19  N   UNL     1      47.882   7.576  14.927  0.00  0.00    +0.000 N 
ATOM     20  C   UNL     1      48.997   7.095  15.567  0.00  0.00    +0.000 C 
ATOM     21  O   UNL     1      50.051   6.851  14.989  0.00  0.00    +0.000 OA
ATOM     22  H   UNL     1      46.995   7.513  15.415  0.00  0.00    +0.000 HD
BRANCH  20  23
ATOM     23  C   UNL     1      48.877   6.933  17.019  0.00  0.00    +0.000 A 
ATOM     24  C   UNL     1      48.923   8.039  17.856  0.00  0.00    +0.000 A 
ATOM     25  S   UNL     1      48.784   7.643  19.511  0.00  0.00    +0.000 S 
ATOM     26  C   UNL     1      48.704   5.979  19.162  0.00  0.00    +0.000 A 
ATOM     27  N   UNL     1      48.629   5.055  20.158  0.00  0.00    +0.000 NA
ATOM     28  C   UNL     1      48.609   3.830  19.747  0.00  0.00    +0.000 A 
ATOM     29  N   UNL     1      48.641   3.445  18.431  0.00  0.00    +0.000 N 
ATOM     30  C   UNL     1      48.669   4.343  17.394  0.00  0.00    +0.000 A 
ATOM     31  O   UNL     1      48.609   3.971  16.227  0.00  0.00    +0.000 OA
ATOM     32  C   UNL     1      48.736   5.732  17.803  0.00  0.00    +0.000 A 
ATOM     33  H   UNL     1      48.591   2.472  18.171  0.00  0.00    +0.000 HD
ENDBRANCH  20  23
ENDBRANCH   1  19
BRANCH   1  35
ATOM     34  C   UNL     1      48.128   9.877  12.073  0.00  0.00    +0.000 C 
ATOM     35  C   UNL     1      47.290   9.174  13.131  0.00  0.00    +0.000 C 
ENDBRANCH   1  35
TORSDOF 7
ENDMDL
MODEL 3
REMARK VINA RESULT:    -7.288      3.807      8.352
REMARK INTER + INTRA:         -11.624
REMARK INTER:                 -10.337
REMARK INTRA:                  -1.287
REMARK UNBOUND:                -1.353
REMARK  Name = 
REMARK  8 active torsions:
REMARK  status: ('A' for Active; 'I' for Inactive)
REMARK    1  A    between atoms: C_1  and  C_2
REMARK    2  A    between atoms: C_2  and  C_3
REMARK    3  A    between atoms: C_3  and  N_4
REMARK    4  A    between atoms: C_3  and  C_17
REMARK    5  A    between atoms: C_5  and  C_7
REMARK    6  A    between atoms: C_20  and  C_21
REMARK    7  A    between atoms: C_21  and  N_22
REMARK    8  A    between atoms: C_23  and  C_25
REMARK                            x       y       z     vdW  Elec       q    Type
REMARK                         _______ _______ _______ _____ _____    ______ ____
ROOT
ATOM      1  C   UNL     1      48.191   7.783  12.616  0.00  0.00    +0.000 C 
ENDROOT
BRANCH   1   2
ATOM      2  C   UNL     1      48.650   7.203  13.954  0.00  0.00    +0.000 A 
ATOM      3  C   UNL     1      47.903   6.204  14.599  0.00  0.00    +0.000 A 
ATOM      4  C   UNL     1      48.320   5.672  15.828  0.00  0.00    +0.000 A 
ATOM      5  C   UNL     1      49.493   6.126  16.447  0.00  0.00    +0.000 A 
ATOM      6  C   UNL     1      50.260   7.095  15.789  0.00  0.00    +0.000 A 
ATOM      7  C   UNL     1      49.843   7.629  14.563  0.00  0.00    +0.000 A 
BRANCH   5   8
ATOM      8  C   UNL     1      49.908   5.613  17.802  0.00  0.00    +0.000 C 
BRANCH   8   9
ATOM      9  N   UNL     1      50.846   4.523  17.745  0.00  0.00    +0.000 N 
ATOM     10  C   UNL     1      50.407   3.216  17.716  0.00  0.00    +0.000 C 
ATOM     11  O   UNL     1      49.220   2.906  17.769  0.00  0.00    +0.000 OA
ATOM     12  H   UNL     1      51.842   4.678  17.622  0.00  0.00    +0.000 HD
BRANCH  10  13
ATOM     13  C   UNL     1      51.481   2.213  17.614  0.00  0.00    +0.000 A 
ATOM     14  C   UNL     1      52.846   2.401  17.968  0.00  0.00    +0.000 A 
ATOM     15  C   UNL     1      53.465   1.205  17.696  0.00  0.00    +0.000 A 
ATOM     16  N   UNL     1      52.490   0.388  17.206  0.00  0.00    +0.000 N 
ATOM     17  N   UNL     1      51.275   0.959  17.156  0.00  0.00    +0.000 NA
ATOM     18  H   UNL     1      52.587  -0.571  16.890  0.00  0.00    +0.000 HD
ENDBRANCH  10  13
ENDBRANCH   8   9
ENDBRANCH   5   8
ENDBRANCH   1   2
BRANCH   1  19
ATOM     19  N   UNL     1      47.483   6.741  11.882  0.00  0.00    +0.000 N 
ATOM     20  C   UNL     1      46.178   6.844  11.470  0.00  0.00    +0.000 C 
ATOM     21  O   UNL     1      45.509   7.863  11.603  0.00  0.00    +0.000 OA
ATOM     22  H   UNL     1      47.878   5.811  11.966  0.00  0.00    +0.000 HD
BRANCH  20  23
ATOM     23  C   UNL     1      45.627   5.663  10.800  0.00  0.00    +0.000 A 
ATOM     24  C   UNL     1      45.769   5.502   9.428  0.00  0.00    +0.000 A 
ATOM     25  S   UNL     1      45.045   4.075   8.834  0.00  0.00    +0.000 S 
ATOM     26  C   UNL     1      44.482   3.651  10.383  0.00  0.00    +0.000 A 
ATOM     27  N   UNL     1      43.724   2.537  10.575  0.00  0.00    +0.000 NA
ATOM     28  C   UNL     1      43.340   2.358  11.795  0.00  0.00    +0.000 A 
ATOM     29  N   UNL     1      43.655   3.183  12.844  0.00  0.00    +0.000 N 
ATOM     30  C   UNL     1      44.455   4.290  12.706  0.00  0.00    +0.000 A 
ATOM     31  O   UNL     1      44.791   4.959  13.676  0.00  0.00    +0.000 OA
ATOM     32  C   UNL     1      44.878   4.559  11.346  0.00  0.00    +0.000 A 
ATOM     33  H   UNL     1      43.350   2.974  13.782  0.00  0.00    +0.000 HD
ENDBRANCH  20  23
ENDBRANCH   1  19
BRANCH   1  35
ATOM     34  C   UNL     1      49.183   9.814  11.386  0.00  0.00    +0.000 C 
ATOM     35  C   UNL     1      49.358   8.355  11.780  0.00  0.00    +0.000 C 
ENDBRANCH   1  35
TORSDOF 7
ENDMDL
MODEL 4
REMARK VINA RESULT:    -7.197      2.827      4.639
REMARK INTER + INTRA:         -11.496
REMARK INTER:                 -10.128
REMARK INTRA:                  -1.368
REMARK UNBOUND:                -1.353
REMARK  Name = 
REMARK  8 active torsions:
REMARK  status: ('A' for Active; 'I' for Inactive)
REMARK    1  A    between atoms: C_1  and  C_2
REMARK    2  A    between atoms: C_2  and  C_3
REMARK    3  A    between atoms: C_3  and  N_4
REMARK    4  A    between atoms: C_3  and  C_17
REMARK    5  A    between atoms: C_5  and  C_7
REMARK    6  A    between atoms: C_20  and  C_21
REMARK    7  A    between atoms: C_21  and  N_22
REMARK    8  A    between atoms: C_23  and  C_25
REMARK                            x       y       z     vdW  Elec       q    Type
REMARK                         _______ _______ _______ _____ _____    ______ ____
ROOT
ATOM      1  C   UNL     1      47.158   5.310  14.973  0.00  0.00    +0.000 C 
ENDROOT
BRANCH   1   2
ATOM      2  C   UNL     1      46.375   5.037  13.688  0.00  0.00    +0.000 A 
ATOM      3  C   UNL     1      46.062   3.723  13.303  0.00  0.00    +0.000 A 
ATOM      4  C   UNL     1      45.346   3.468  12.124  0.00  0.00    +0.000 A 
ATOM      5  C   UNL     1      44.926   4.520  11.297  0.00  0.00    +0.000 A 
ATOM      6  C   UNL     1      45.203   5.832  11.698  0.00  0.00    +0.000 A 
ATOM      7  C   UNL     1      45.920   6.087  12.874  0.00  0.00    +0.000 A 
BRANCH   5   8
ATOM      8  C   UNL     1      44.222   4.251   9.992  0.00  0.00    +0.000 C 
BRANCH   8   9
ATOM      9  N   UNL     1      45.115   4.061   8.881  0.00  0.00    +0.000 N 
ATOM     10  C   UNL     1      45.510   2.795   8.501  0.00  0.00    +0.000 C 
ATOM     11  O   UNL     1      45.159   1.778   9.094  0.00  0.00    +0.000 OA
ATOM     12  H   UNL     1      45.400   4.831   8.283  0.00  0.00    +0.000 HD
BRANCH  10  13
ATOM     13  C   UNL     1      46.391   2.758   7.321  0.00  0.00    +0.000 A 
ATOM     14  C   UNL     1      47.334   1.742   7.004  0.00  0.00    +0.000 A 
ATOM     15  C   UNL     1      47.920   2.139   5.826  0.00  0.00    +0.000 A 
ATOM     16  N   UNL     1      47.335   3.326   5.504  0.00  0.00    +0.000 N 
ATOM     17  N   UNL     1      46.395   3.725   6.377  0.00  0.00    +0.000 NA
ATOM     18  H   UNL     1      47.530   3.915   4.701  0.00  0.00    +0.000 HD
ENDBRANCH  10  13
ENDBRANCH   8   9
ENDBRANCH   5   8
ENDBRANCH   1   2
BRANCH   1  19
ATOM     19  N   UNL     1      48.417   5.953  14.617  0.00  0.00    +0.000 N 
ATOM     20  C   UNL     1      48.977   6.988  15.324  0.00  0.00    +0.000 C 
ATOM     21  O   UNL     1      48.513   7.412  16.376  0.00  0.00    +0.000 OA
ATOM     22  H   UNL     1      48.704   5.831  13.652  0.00  0.00    +0.000 HD
BRANCH  20  23
ATOM     23  C   UNL     1      50.216   7.540  14.768  0.00  0.00    +0.000 A 
ATOM     24  C   UNL     1      51.400   7.473  15.490  0.00  0.00    +0.000 A 
ATOM     25  S   UNL     1      52.726   8.185  14.684  0.00  0.00    +0.000 S 
ATOM     26  C   UNL     1      51.750   8.644  13.367  0.00  0.00    +0.000 A 
ATOM     27  N   UNL     1      52.262   9.354  12.325  0.00  0.00    +0.000 NA
ATOM     28  C   UNL     1      51.399   9.660  11.415  0.00  0.00    +0.000 A 
ATOM     29  N   UNL     1      50.073   9.310  11.443  0.00  0.00    +0.000 N 
ATOM     30  C   UNL     1      49.524   8.555  12.449  0.00  0.00    +0.000 A 
ATOM     31  O   UNL     1      48.357   8.184  12.403  0.00  0.00    +0.000 OA
ATOM     32  C   UNL     1      50.443   8.221  13.519  0.00  0.00    +0.000 A 
ATOM     33  H   UNL     1      49.454   9.553  10.685  0.00  0.00    +0.000 HD
ENDBRANCH  20  23
ENDBRANCH   1  19
BRANCH   1  35
ATOM     34  C   UNL     1      47.232   4.228  17.307  0.00  0.00    +0.000 C 
ATOM     35  C   UNL     1      47.404   4.033  15.807  0.00  0.00    +0.000 C 
ENDBRANCH   1  35
TORSDOF 7
ENDMDL
MODEL 5
REMARK VINA RESULT:    -7.169      3.006      4.334
REMARK INTER + INTRA:         -11.456
REMARK INTER:                 -10.253
REMARK INTRA:                  -1.204
REMARK UNBOUND:                -1.353
REMARK  Name = 
REMARK  8 active torsions:
REMARK  status: ('A' for Active; 'I' for Inactive)
REMARK    1  A    between atoms: C_1  and  C_2
REMARK    2  A    between atoms: C_2  and  C_3
REMARK    3  A    between atoms: C_3  and  N_4
REMARK    4  A    between atoms: C_3  and  C_17
REMARK    5  A    between atoms: C_5  and  C_7
REMARK    6  A    between atoms: C_20  and  C_21
REMARK    7  A    between atoms: C_21  and  N_22
REMARK    8  A    between atoms: C_23  and  C_25
REMARK                            x       y       z     vdW  Elec       q    Type
REMARK                         _______ _______ _______ _____ _____    ______ ____
ROOT
ATOM      1  C   UNL     1      46.957   5.553  14.397  0.00  0.00    +0.000 C 
ENDROOT
BRANCH   1   2
ATOM      2  C   UNL     1      46.263   5.196  13.082  0.00  0.00    +0.000 A 
ATOM      3  C   UNL     1      45.559   3.989  12.945  0.00  0.00    +0.000 A 
ATOM      4  C   UNL     1      44.922   3.657  11.740  0.00  0.00    +0.000 A 
ATOM      5  C   UNL     1      44.975   4.522  10.638  0.00  0.00    +0.000 A 
ATOM      6  C   UNL     1      45.644   5.744  10.783  0.00  0.00    +0.000 A 
ATOM      7  C   UNL     1      46.282   6.074  11.985  0.00  0.00    +0.000 A 
BRANCH   5   8
ATOM      8  C   UNL     1      44.357   4.140   9.318  0.00  0.00    +0.000 C 
BRANCH   8   9
ATOM      9  N   UNL     1      45.322   3.848   8.291  0.00  0.00    +0.000 N 
ATOM     10  C   UNL     1      45.855   2.582   8.164  0.00  0.00    +0.000 C 
ATOM     11  O   UNL     1      45.573   1.657   8.922  0.00  0.00    +0.000 OA
ATOM     12  H   UNL     1      45.563   4.523   7.572  0.00  0.00    +0.000 HD
BRANCH  10  13
ATOM     13  C   UNL     1      46.796   2.425   7.042  0.00  0.00    +0.000 A 
ATOM     14  C   UNL     1      46.658   2.984   5.741  0.00  0.00    +0.000 A 
ATOM     15  C   UNL     1      47.763   2.564   5.041  0.00  0.00    +0.000 A 
ATOM     16  N   UNL     1      48.481   1.799   5.910  0.00  0.00    +0.000 N 
ATOM     17  N   UNL     1      47.935   1.703   7.133  0.00  0.00    +0.000 NA
ATOM     18  H   UNL     1      49.355   1.314   5.731  0.00  0.00    +0.000 HD
ENDBRANCH  10  13
ENDBRANCH   8   9
ENDBRANCH   5   8
ENDBRANCH   1   2
BRANCH   1  19
ATOM     19  N   UNL     1      48.197   6.253  14.087  0.00  0.00    +0.000 N 
ATOM     20  C   UNL     1      48.332   7.619  14.102  0.00  0.00    +0.000 C 
ATOM     21  O   UNL     1      47.440   8.379  14.464  0.00  0.00    +0.000 OA
ATOM     22  H   UNL     1      48.870   5.720  13.547  0.00  0.00    +0.000 HD
BRANCH  20  23
ATOM     23  C   UNL     1      49.644   8.134  13.700  0.00  0.00    +0.000 A 
ATOM     24  C   UNL     1      49.779   8.888  12.542  0.00  0.00    +0.000 A 
ATOM     25  S   UNL     1      51.385   9.379  12.235  0.00  0.00    +0.000 S 
ATOM     26  C   UNL     1      51.956   8.563  13.615  0.00  0.00    +0.000 A 
ATOM     27  N   UNL     1      53.281   8.536  13.919  0.00  0.00    +0.000 NA
ATOM     28  C   UNL     1      53.573   7.852  14.975  0.00  0.00    +0.000 A 
ATOM     29  N   UNL     1      52.658   7.203  15.765  0.00  0.00    +0.000 N 
ATOM     30  C   UNL     1      51.307   7.243  15.524  0.00  0.00    +0.000 A 
ATOM     31  O   UNL     1      50.507   6.726  16.296  0.00  0.00    +0.000 OA
ATOM     32  C   UNL     1      50.932   7.963  14.324  0.00  0.00    +0.000 A 
ATOM     33  H   UNL     1      52.944   6.710  16.596  0.00  0.00    +0.000 HD
ENDBRANCH  20  23
ENDBRANCH   1  19
BRANCH   1  35
ATOM     34  C   UNL     1      47.513   4.653  16.743  0.00  0.00    +0.000 C 
ATOM     35  C   UNL     1      47.225   4.318  15.287  0.00  0.00    +0.000 C 
ENDBRANCH   1  35
TORSDOF 7
ENDMDL
MODEL 6
REMARK VINA RESULT:    -7.043      3.496      8.919
REMARK INTER + INTRA:         -11.279
REMARK INTER:                 -10.028
REMARK INTRA:                  -1.251
REMARK UNBOUND:                -1.353
REMARK  Name = 
REMARK  8 active torsions:
REMARK  status: ('A' for Active; 'I' for Inactive)
REMARK    1  A    between atoms: C_1  and  C_2
REMARK    2  A    between atoms: C_2  and  C_3
REMARK    3  A    between atoms: C_3  and  N_4
REMARK    4  A    between atoms: C_3  and  C_17
REMARK    5  A    between atoms: C_5  and  C_7
REMARK    6  A    between atoms: C_20  and  C_21
REMARK    7  A    between atoms: C_21  and  N_22
REMARK    8  A    between atoms: C_23  and  C_25
REMARK                            x       y       z     vdW  Elec       q    Type
REMARK                         _______ _______ _______ _____ _____    ______ ____
ROOT
ATOM      1  C   UNL     1      47.616   7.060  13.063  0.00  0.00    +0.000 C 
ENDROOT
BRANCH   1   2
ATOM      2  C   UNL     1      48.151   6.572  14.410  0.00  0.00    +0.000 A 
ATOM      3  C   UNL     1      49.212   7.237  15.045  0.00  0.00    +0.000 A 
ATOM      4  C   UNL     1      49.708   6.791  16.279  0.00  0.00    +0.000 A 
ATOM      5  C   UNL     1      49.157   5.668  16.911  0.00  0.00    +0.000 A 
ATOM      6  C   UNL     1      48.073   5.025  16.300  0.00  0.00    +0.000 A 
ATOM      7  C   UNL     1      47.580   5.468  15.066  0.00  0.00    +0.000 A 
BRANCH   5   8
ATOM      8  C   UNL     1      49.731   5.139  18.200  0.00  0.00    +0.000 C 
BRANCH   8   9
ATOM      9  N   UNL     1      50.348   3.845  18.071  0.00  0.00    +0.000 N 
ATOM     10  C   UNL     1      51.706   3.730  17.853  0.00  0.00    +0.000 C 
ATOM     11  O   UNL     1      52.449   4.700  17.725  0.00  0.00    +0.000 OA
ATOM     12  H   UNL     1      49.833   2.986  18.235  0.00  0.00    +0.000 HD
BRANCH  10  13
ATOM     13  C   UNL     1      52.198   2.344  17.786  0.00  0.00    +0.000 A 
ATOM     14  C   UNL     1      53.517   1.901  18.082  0.00  0.00    +0.000 A 
ATOM     15  C   UNL     1      53.505   0.544  17.873  0.00  0.00    +0.000 A 
ATOM     16  N   UNL     1      52.238   0.243  17.471  0.00  0.00    +0.000 N 
ATOM     17  N   UNL     1      51.416   1.304  17.420  0.00  0.00    +0.000 NA
ATOM     18  H   UNL     1      51.868  -0.668  17.218  0.00  0.00    +0.000 HD
ENDBRANCH  10  13
ENDBRANCH   8   9
ENDBRANCH   5   8
ENDBRANCH   1   2
BRANCH   1  19
ATOM     19  N   UNL     1      46.819   5.992  12.471  0.00  0.00    +0.000 N 
ATOM     20  C   UNL     1      45.462   6.065  12.275  0.00  0.00    +0.000 C 
ATOM     21  O   UNL     1      44.803   7.074  12.501  0.00  0.00    +0.000 OA
ATOM     22  H   UNL     1      47.241   5.071  12.504  0.00  0.00    +0.000 HD
BRANCH  20  23
ATOM     23  C   UNL     1      44.834   4.862  11.723  0.00  0.00    +0.000 A 
ATOM     24  C   UNL     1      44.045   4.049  12.526  0.00  0.00    +0.000 A 
ATOM     25  S   UNL     1      43.418   2.689  11.706  0.00  0.00    +0.000 S 
ATOM     26  C   UNL     1      44.216   3.120  10.266  0.00  0.00    +0.000 A 
ATOM     27  N   UNL     1      44.142   2.335   9.158  0.00  0.00    +0.000 NA
ATOM     28  C   UNL     1      44.825   2.769   8.150  0.00  0.00    +0.000 A 
ATOM     29  N   UNL     1      45.563   3.924   8.145  0.00  0.00    +0.000 N 
ATOM     30  C   UNL     1      45.628   4.771   9.223  0.00  0.00    +0.000 A 
ATOM     31  O   UNL     1      46.226   5.839   9.159  0.00  0.00    +0.000 OA
ATOM     32  C   UNL     1      44.913   4.307  10.395  0.00  0.00    +0.000 A 
ATOM     33  H   UNL     1      46.051   4.227   7.316  0.00  0.00    +0.000 HD
ENDBRANCH  20  23
ENDBRANCH   1  19
BRANCH   1  35
ATOM     34  C   UNL     1      48.719   9.002  11.786  0.00  0.00    +0.000 C 
ATOM     35  C   UNL     1      48.737   7.513  12.102  0.00  0.00    +0.000 C 
ENDBRANCH   1  35
TORSDOF 7
ENDMDL
MODEL 7
REMARK VINA RESULT:    -6.788      2.052      2.567
REMARK INTER + INTRA:         -10.920
REMARK INTER:                  -9.417
REMARK INTRA:                  -1.503
REMARK UNBOUND:                -1.353
REMARK  Name = 
REMARK  8 active torsions:
REMARK  status: ('A' for Active; 'I' for Inactive)
REMARK    1  A    between atoms: C_1  and  C_2
REMARK    2  A    between atoms: C_2  and  C_3
REMARK    3  A    between atoms: C_3  and  N_4
REMARK    4  A    between atoms: C_3  and  C_17
REMARK    5  A    between atoms: C_5  and  C_7
REMARK    6  A    between atoms: C_20  and  C_21
REMARK    7  A    between atoms: C_21  and  N_22
REMARK    8  A    between atoms: C_23  and  C_25
REMARK                            x       y       z     vdW  Elec       q    Type
REMARK                         _______ _______ _______ _____ _____    ______ ____
ROOT
ATOM      1  C   UNL     1      48.579   8.551  14.456  0.00  0.00    +0.000 C 
ENDROOT
BRANCH   1   2
ATOM      2  C   UNL     1      47.611   7.973  13.424  0.00  0.00    +0.000 A 
ATOM      3  C   UNL     1      46.326   8.514  13.262  0.00  0.00    +0.000 A 
ATOM      4  C   UNL     1      45.434   7.986  12.317  0.00  0.00    +0.000 A 
ATOM      5  C   UNL     1      45.802   6.900  11.511  0.00  0.00    +0.000 A 
ATOM      6  C   UNL     1      47.096   6.382  11.642  0.00  0.00    +0.000 A 
ATOM      7  C   UNL     1      47.986   6.908  12.588  0.00  0.00    +0.000 A 
BRANCH   5   8
ATOM      8  C   UNL     1      44.825   6.279  10.546  0.00  0.00    +0.000 C 
BRANCH   8   9
ATOM      9  N   UNL     1      45.426   5.338   9.639  0.00  0.00    +0.000 N 
ATOM     10  C   UNL     1      44.939   4.052   9.532  0.00  0.00    +0.000 C 
ATOM     11  O   UNL     1      44.007   3.629  10.212  0.00  0.00    +0.000 OA
ATOM     12  H   UNL     1      46.151   5.612   8.983  0.00  0.00    +0.000 HD
BRANCH  10  13
ATOM     13  C   UNL     1      45.628   3.219   8.533  0.00  0.00    +0.000 A 
ATOM     14  C   UNL     1      46.201   3.668   7.310  0.00  0.00    +0.000 A 
ATOM     15  C   UNL     1      46.719   2.545   6.712  0.00  0.00    +0.000 A 
ATOM     16  N   UNL     1      46.443   1.514   7.560  0.00  0.00    +0.000 N 
ATOM     17  N   UNL     1      45.797   1.886   8.677  0.00  0.00    +0.000 NA
ATOM     18  H   UNL     1      46.669   0.533   7.436  0.00  0.00    +0.000 HD
ENDBRANCH  10  13
ENDBRANCH   8   9
ENDBRANCH   5   8
ENDBRANCH   1   2
BRANCH   1  19
ATOM     19  N   UNL     1      48.681   7.613  15.567  0.00  0.00    +0.000 N 
ATOM     20  C   UNL     1      49.792   6.850  15.828  0.00  0.00    +0.000 C 
ATOM     21  O   UNL     1      50.840   6.951  15.200  0.00  0.00    +0.000 OA
ATOM     22  H   UNL     1      47.795   7.302  15.951  0.00  0.00    +0.000 HD
BRANCH  20  23
ATOM     23  C   UNL     1      49.675   5.921  16.956  0.00  0.00    +0.000 A 
ATOM     24  C   UNL     1      50.556   5.999  18.025  0.00  0.00    +0.000 A 
ATOM     25  S   UNL     1      50.269   4.822  19.229  0.00  0.00    +0.000 S 
ATOM     26  C   UNL     1      48.987   4.145  18.337  0.00  0.00    +0.000 A 
ATOM     27  N   UNL     1      48.322   3.046  18.785  0.00  0.00    +0.000 NA
ATOM     28  C   UNL     1      47.396   2.622  17.991  0.00  0.00    +0.000 A 
ATOM     29  N   UNL     1      47.064   3.205  16.795  0.00  0.00    +0.000 N 
ATOM     30  C   UNL     1      47.675   4.342  16.326  0.00  0.00    +0.000 A 
ATOM     31  O   UNL     1      47.297   4.890  15.297  0.00  0.00    +0.000 OA
ATOM     32  C   UNL     1      48.752   4.833  17.162  0.00  0.00    +0.000 A 
ATOM     33  H   UNL     1      46.309   2.846  16.231  0.00  0.00    +0.000 HD
ENDBRANCH  20  23
ENDBRANCH   1  19
BRANCH   1  35
ATOM     34  C   UNL     1      48.651  10.291  16.351  0.00  0.00    +0.000 C 
ATOM     35  C   UNL     1      48.160   9.954  14.951  0.00  0.00    +0.000 C 
ENDBRANCH   1  35
TORSDOF 7
ENDMDL
MODEL 8
REMARK VINA RESULT:    -6.588      4.600      7.786
REMARK INTER + INTRA:         -10.637
REMARK INTER:                  -9.659
REMARK INTRA:                  -0.978
REMARK UNBOUND:                -1.353
REMARK  Name = 
REMARK  8 active torsions:
REMARK  status: ('A' for Active; 'I' for Inactive)
REMARK    1  A    between atoms: C_1  and  C_2
REMARK    2  A    between atoms: C_2  and  C_3
REMARK    3  A    between atoms: C_3  and  N_4
REMARK    4  A    between atoms: C_3  and  C_17
REMARK    5  A    between atoms: C_5  and  C_7
REMARK    6  A    between atoms: C_20  and  C_21
REMARK    7  A    between atoms: C_21  and  N_22
REMARK    8  A    between atoms: C_23  and  C_25
REMARK                            x       y       z     vdW  Elec       q    Type
REMARK                         _______ _______ _______ _____ _____    ______ ____
ROOT
ATOM      1  C   UNL     1      45.878   8.327  12.745  0.00  0.00    +0.000 C 
ENDROOT
BRANCH   1   2
ATOM      2  C   UNL     1      47.346   8.405  12.325  0.00  0.00    +0.000 A 
ATOM      3  C   UNL     1      47.904   9.615  11.883  0.00  0.00    +0.000 A 
ATOM      4  C   UNL     1      49.249   9.691  11.495  0.00  0.00    +0.000 A 
ATOM      5  C   UNL     1      50.073   8.557  11.536  0.00  0.00    +0.000 A 
ATOM      6  C   UNL     1      49.531   7.357  12.012  0.00  0.00    +0.000 A 
ATOM      7  C   UNL     1      48.187   7.281  12.397  0.00  0.00    +0.000 A 
BRANCH   5   8
ATOM      8  C   UNL     1      51.499   8.613  11.051  0.00  0.00    +0.000 C 
BRANCH   8   9
ATOM      9  N   UNL     1      51.857   7.524  10.181  0.00  0.00    +0.000 N 
ATOM     10  C   UNL     1      52.972   7.605   9.372  0.00  0.00    +0.000 C 
ATOM     11  O   UNL     1      53.692   8.599   9.321  0.00  0.00    +0.000 OA
ATOM     12  H   UNL     1      51.369   6.634  10.205  0.00  0.00    +0.000 HD
BRANCH  10  13
ATOM     13  C   UNL     1      53.233   6.398   8.570  0.00  0.00    +0.000 A 
ATOM     14  C   UNL     1      52.761   6.142   7.253  0.00  0.00    +0.000 A 
ATOM     15  C   UNL     1      53.248   4.900   6.923  0.00  0.00    +0.000 A 
ATOM     16  N   UNL     1      53.954   4.479   8.010  0.00  0.00    +0.000 N 
ATOM     17  N   UNL     1      53.979   5.365   9.020  0.00  0.00    +0.000 NA
ATOM     18  H   UNL     1      54.445   3.599   8.127  0.00  0.00    +0.000 HD
ENDBRANCH  10  13
ENDBRANCH   8   9
ENDBRANCH   5   8
ENDBRANCH   1   2
BRANCH   1  19
ATOM     19  N   UNL     1      45.307   7.102  12.198  0.00  0.00    +0.000 N 
ATOM     20  C   UNL     1      45.371   5.880  12.821  0.00  0.00    +0.000 C 
ATOM     21  O   UNL     1      45.839   5.721  13.943  0.00  0.00    +0.000 OA
ATOM     22  H   UNL     1      45.145   7.112  11.197  0.00  0.00    +0.000 HD
BRANCH  20  23
ATOM     23  C   UNL     1      44.791   4.757  12.079  0.00  0.00    +0.000 A 
ATOM     24  C   UNL     1      43.987   3.828  12.725  0.00  0.00    +0.000 A 
ATOM     25  S   UNL     1      43.423   2.587  11.697  0.00  0.00    +0.000 S 
ATOM     26  C   UNL     1      44.271   3.228  10.368  0.00  0.00    +0.000 A 
ATOM     27  N   UNL     1      44.260   2.605   9.158  0.00  0.00    +0.000 NA
ATOM     28  C   UNL     1      44.974   3.186   8.252  0.00  0.00    +0.000 A 
ATOM     29  N   UNL     1      45.688   4.341   8.440  0.00  0.00    +0.000 N 
ATOM     30  C   UNL     1      45.690   5.029   9.628  0.00  0.00    +0.000 A 
ATOM     31  O   UNL     1      46.267   6.105   9.739  0.00  0.00    +0.000 OA
ATOM     32  C   UNL     1      44.937   4.395  10.691  0.00  0.00    +0.000 A 
ATOM     33  H   UNL     1      46.203   4.765   7.684  0.00  0.00    +0.000 HD
ENDBRANCH  20  23
ENDBRANCH   1  19
BRANCH   1  35
ATOM     34  C   UNL     1      44.149   9.313  11.115  0.00  0.00    +0.000 C 
ATOM     35  C   UNL     1      45.063   9.563  12.306  0.00  0.00    +0.000 C 
ENDBRANCH   1  35
TORSDOF 7
ENDMDL
MODEL 9
REMARK VINA RESULT:    -6.562      3.751      5.664
REMARK INTER + INTRA:         -10.601
REMARK INTER:                  -9.053
REMARK INTRA:                  -1.548
REMARK UNBOUND:                -1.353
REMARK  Name = 
REMARK  8 active torsions:
REMARK  status: ('A' for Active; 'I' for Inactive)
REMARK    1  A    between atoms: C_1  and  C_2
REMARK    2  A    between atoms: C_2  and  C_3
REMARK    3  A    between atoms: C_3  and  N_4
REMARK    4  A    between atoms: C_3  and  C_17
REMARK    5  A    between atoms: C_5  and  C_7
REMARK    6  A    between atoms: C_20  and  C_21
REMARK    7  A    between atoms: C_21  and  N_22
REMARK    8  A    between atoms: C_23  and  C_25
REMARK                            x       y       z     vdW  Elec       q    Type
REMARK                         _______ _______ _______ _____ _____    ______ ____
ROOT
ATOM      1  C   UNL     1      48.665   7.279  14.818  0.00  0.00    +0.000 C 
ENDROOT
BRANCH   1   2
ATOM      2  C   UNL     1      47.669   6.874  13.731  0.00  0.00    +0.000 A 
ATOM      3  C   UNL     1      47.191   5.556  13.649  0.00  0.00    +0.000 A 
ATOM      4  C   UNL     1      46.279   5.180  12.652  0.00  0.00    +0.000 A 
ATOM      5  C   UNL     1      45.822   6.110  11.708  0.00  0.00    +0.000 A 
ATOM      6  C   UNL     1      46.267   7.434  11.810  0.00  0.00    +0.000 A 
ATOM      7  C   UNL     1      47.179   7.809  12.804  0.00  0.00    +0.000 A 
BRANCH   5   8
ATOM      8  C   UNL     1      44.901   5.697  10.590  0.00  0.00    +0.000 C 
BRANCH   8   9
ATOM      9  N   UNL     1      45.580   5.097   9.473  0.00  0.00    +0.000 N 
ATOM     10  C   UNL     1      45.280   3.811   9.073  0.00  0.00    +0.000 C 
ATOM     11  O   UNL     1      44.460   3.103   9.652  0.00  0.00    +0.000 OA
ATOM     12  H   UNL     1      46.218   5.625   8.886  0.00  0.00    +0.000 HD
BRANCH  10  13
ATOM     13  C   UNL     1      46.025   3.350   7.889  0.00  0.00    +0.000 A 
ATOM     14  C   UNL     1      46.482   2.025   7.643  0.00  0.00    +0.000 A 
ATOM     15  C   UNL     1      47.126   2.078   6.430  0.00  0.00    +0.000 A 
ATOM     16  N   UNL     1      47.039   3.375   6.022  0.00  0.00    +0.000 N 
ATOM     17  N   UNL     1      46.368   4.170   6.871  0.00  0.00    +0.000 NA
ATOM     18  H   UNL     1      47.414   3.783   5.172  0.00  0.00    +0.000 HD
ENDBRANCH  10  13
ENDBRANCH   8   9
ENDBRANCH   5   8
ENDBRANCH   1   2
BRANCH   1  19
ATOM     19  N   UNL     1      49.977   7.440  14.204  0.00  0.00    +0.000 N 
ATOM     20  C   UNL     1      50.601   8.650  14.031  0.00  0.00    +0.000 C 
ATOM     21  O   UNL     1      50.149   9.707  14.459  0.00  0.00    +0.000 OA
ATOM     22  H   UNL     1      50.274   6.668  13.616  0.00  0.00    +0.000 HD
BRANCH  20  23
ATOM     23  C   UNL     1      51.890   8.608  13.335  0.00  0.00    +0.000 A 
ATOM     24  C   UNL     1      53.048   9.026  13.976  0.00  0.00    +0.000 A 
ATOM     25  S   UNL     1      54.442   8.918  12.996  0.00  0.00    +0.000 S 
ATOM     26  C   UNL     1      53.535   8.352  11.672  0.00  0.00    +0.000 A 
ATOM     27  N   UNL     1      54.122   8.104  10.471  0.00  0.00    +0.000 NA
ATOM     28  C   UNL     1      53.306   7.712   9.549  0.00  0.00    +0.000 A 
ATOM     29  N   UNL     1      51.958   7.530   9.723  0.00  0.00    +0.000 N 
ATOM     30  C   UNL     1      51.331   7.721  10.929  0.00  0.00    +0.000 A 
ATOM     31  O   UNL     1      50.141   7.466  11.075  0.00  0.00    +0.000 OA
ATOM     32  C   UNL     1      52.197   8.204  11.986  0.00  0.00    +0.000 A 
ATOM     33  H   UNL     1      51.377   7.191   8.972  0.00  0.00    +0.000 HD
ENDBRANCH  20  23
ENDBRANCH   1  19
BRANCH   1  35
ATOM     34  C   UNL     1      50.079   6.176  16.663  0.00  0.00    +0.000 C 
ATOM     35  C   UNL     1      48.719   6.270  15.987  0.00  0.00    +0.000 C 
ENDBRANCH   1  35
TORSDOF 7
ENDMDL
