MODEL 1
REMARK VINA RESULT:    -7.809      0.000      0.000
REMARK INTER + INTRA:         -11.691
REMARK INTER:                 -10.549
REMARK INTRA:                  -1.142
REMARK UNBOUND:                -1.142
REMARK  Name = 
REMARK  7 active torsions:
REMARK  status: ('A' for Active; 'I' for Inactive)
REMARK    1  A    between atoms: C_1  and  C_2
REMARK    2  A    between atoms: C_2  and  N_3
REMARK    3  A    between atoms: C_2  and  C_16
REMARK    4  A    between atoms: C_4  and  C_6
REMARK    5  A    between atoms: C_19  and  C_20
REMARK    6  A    between atoms: C_20  and  N_21
REMARK    7  A    between atoms: C_22  and  C_24
REMARK                            x       y       z     vdW  Elec       q    Type
REMARK                         _______ _______ _______ _____ _____    ______ ____
ROOT
ATOM      1  C   UNL     1      47.288   9.011  13.815  0.00  0.00    +0.000 C 
ATOM      2  C   UNL     1      47.785   7.561  13.828  0.00  0.00    +0.000 C 
ENDROOT
BRANCH   2   3
ATOM      3  C   UNL     1      46.898   6.692  12.939  0.00  0.00    +0.000 A 
ATOM      4  C   UNL     1      46.591   5.370  13.292  0.00  0.00    +0.000 A 
ATOM      5  C   UNL     1      45.733   4.596  12.495  0.00  0.00    +0.000 A 
ATOM      6  C   UNL     1      45.168   5.123  11.325  0.00  0.00    +0.000 A 
ATOM      7  C   UNL     1      45.478   6.440  10.968  0.00  0.00    +0.000 A 
ATOM      8  C   UNL     1      46.336   7.210  11.761  0.00  0.00    +0.000 A 
BRANCH   6   9
ATOM      9  C   UNL     1      44.220   4.311  10.478  0.00  0.00    +0.000 C 
BRANCH   9  10
ATOM     10  N   UNL     1      44.916   3.274   9.748  0.00  0.00    +0.000 N 
ATOM     11  C   UNL     1      45.514   3.525   8.534  0.00  0.00    +0.000 C 
ATOM     12  O   UNL     1      45.478   4.628   7.997  0.00  0.00    +0.000 OA
ATOM     13  H   UNL     1      45.009   2.370  10.185  0.00  0.00    +0.000 HD
BRANCH  11  14
ATOM     14  C   UNL     1      46.190   2.401   7.939  0.00  0.00    +0.000 A 
ATOM     15  C   UNL     1      47.129   2.285   6.932  0.00  0.00    +0.000 A 
ATOM     16  N   UNL     1      47.480   0.976   6.713  0.00  0.00    +0.000 NA
ATOM     17  C   UNL     1      46.768   0.284   7.570  0.00  0.00    +0.000 A 
ATOM     18  N   UNL     1      45.980   1.094   8.335  0.00  0.00    +0.000 N 
ATOM     19  H   UNL     1      45.344   0.804   9.065  0.00  0.00    +0.000 HD
ENDBRANCH  11  14
ENDBRANCH   9  10
ENDBRANCH   6   9
ENDBRANCH   2   3
BRANCH   2  20
ATOM     20  N   UNL     1      47.814   6.987  15.167  0.00  0.00    +0.000 N 
ATOM     21  C   UNL     1      48.952   6.524  15.779  0.00  0.00    +0.000 C 
ATOM     22  O   UNL     1      50.062   6.593  15.260  0.00  0.00    +0.000 OA
ATOM     23  H   UNL     1      46.926   6.623  15.501  0.00  0.00    +0.000 HD
BRANCH  21  24
ATOM     24  C   UNL     1      48.786   5.995  17.138  0.00  0.00    +0.000 A 
ATOM     25  C   UNL     1      49.044   4.654  17.392  0.00  0.00    +0.000 A 
ATOM     26  S   UNL     1      48.791   4.204  19.019  0.00  0.00    +0.000 S 
ATOM     27  C   UNL     1      48.292   5.778  19.432  0.00  0.00    +0.000 A 
ATOM     28  N   UNL     1      47.881   6.074  20.694  0.00  0.00    +0.000 NA
ATOM     29  C   UNL     1      47.501   7.297  20.859  0.00  0.00    +0.000 A 
ATOM     30  N   UNL     1      47.514   8.256  19.879  0.00  0.00    +0.000 N 
ATOM     31  C   UNL     1      47.963   8.016  18.604  0.00  0.00    +0.000 A 
ATOM     32  O   UNL     1      48.038   8.912  17.772  0.00  0.00    +0.000 OA
ATOM     33  C   UNL     1      48.360   6.643  18.354  0.00  0.00    +0.000 A 
ATOM     34  H   UNL     1      47.228   9.203  20.081  0.00  0.00    +0.000 HD
ENDBRANCH  21  24
ENDBRANCH   2  20
TORSDOF 6
ENDMDL
MODEL 2
REMARK VINA RESULT:    -7.668      1.292      2.130
REMARK INTER + INTRA:         -11.500
REMARK INTER:                 -10.468
REMARK INTRA:                  -1.032
REMARK UNBOUND:                -1.142
REMARK  Name = 
REMARK  7 active torsions:
REMARK  status: ('A' for Active; 'I' for Inactive)
REMARK    1  A    between atoms: C_1  and  C_2
REMARK    2  A    between atoms: C_2  and  N_3
REMARK    3  A    between atoms: C_2  and  C_16
REMARK    4  A    between atoms: C_4  and  C_6
REMARK    5  A    between atoms: C_19  and  C_20
REMARK    6  A    between atoms: C_20  and  N_21
REMARK    7  A    between atoms: C_22  and  C_24
REMARK                            x       y       z     vdW  Elec       q    Type
REMARK                         _______ _______ _______ _____ _____    ______ ____
ROOT
ATOM      1  C   UNL     1      48.313   8.830  13.279  0.00  0.00    +0.000 C 
ATOM      2  C   UNL     1      48.386   7.369  13.740  0.00  0.00    +0.000 C 
ENDROOT
BRANCH   2   3
ATOM      3  C   UNL     1      47.334   6.534  13.014  0.00  0.00    +0.000 A 
ATOM      4  C   UNL     1      46.759   6.975  11.814  0.00  0.00    +0.000 A 
ATOM      5  C   UNL     1      45.830   6.176  11.128  0.00  0.00    +0.000 A 
ATOM      6  C   UNL     1      45.451   4.923  11.629  0.00  0.00    +0.000 A 
ATOM      7  C   UNL     1      46.020   4.484  12.829  0.00  0.00    +0.000 A 
ATOM      8  C   UNL     1      46.942   5.281  13.515  0.00  0.00    +0.000 A 
BRANCH   6   9
ATOM      9  C   UNL     1      44.478   4.043  10.884  0.00  0.00    +0.000 C 
BRANCH   9  10
ATOM     10  N   UNL     1      45.163   3.098  10.030  0.00  0.00    +0.000 N 
ATOM     11  C   UNL     1      45.419   3.376   8.707  0.00  0.00    +0.000 C 
ATOM     12  O   UNL     1      45.070   4.425   8.175  0.00  0.00    +0.000 OA
ATOM     13  H   UNL     1      45.511   2.249  10.449  0.00  0.00    +0.000 HD
BRANCH  11  14
ATOM     14  C   UNL     1      46.132   2.349   7.990  0.00  0.00    +0.000 A 
ATOM     15  C   UNL     1      47.017   2.375   6.929  0.00  0.00    +0.000 A 
ATOM     16  N   UNL     1      47.438   1.113   6.590  0.00  0.00    +0.000 NA
ATOM     17  C   UNL     1      46.824   0.311   7.427  0.00  0.00    +0.000 A 
ATOM     18  N   UNL     1      46.030   1.005   8.293  0.00  0.00    +0.000 N 
ATOM     19  H   UNL     1      45.458   0.618   9.031  0.00  0.00    +0.000 HD
ENDBRANCH  11  14
ENDBRANCH   9  10
ENDBRANCH   6   9
ENDBRANCH   2   3
BRANCH   2  20
ATOM     20  N   UNL     1      48.193   7.222  15.177  0.00  0.00    +0.000 N 
ATOM     21  C   UNL     1      49.217   7.047  16.074  0.00  0.00    +0.000 C 
ATOM     22  O   UNL     1      50.398   7.040  15.743  0.00  0.00    +0.000 OA
ATOM     23  H   UNL     1      47.269   6.909  15.459  0.00  0.00    +0.000 HD
BRANCH  21  24
ATOM     24  C   UNL     1      48.827   6.933  17.485  0.00  0.00    +0.000 A 
ATOM     25  C   UNL     1      48.411   8.063  18.179  0.00  0.00    +0.000 A 
ATOM     26  S   UNL     1      48.006   7.756  19.808  0.00  0.00    +0.000 S 
ATOM     27  C   UNL     1      48.407   6.109  19.653  0.00  0.00    +0.000 A 
ATOM     28  N   UNL     1      48.331   5.266  20.717  0.00  0.00    +0.000 NA
ATOM     29  C   UNL     1      48.696   4.053  20.465  0.00  0.00    +0.000 A 
ATOM     30  N   UNL     1      49.110   3.603  19.238  0.00  0.00    +0.000 N 
ATOM     31  C   UNL     1      49.159   4.405  18.125  0.00  0.00    +0.000 A 
ATOM     32  O   UNL     1      49.458   3.957  17.024  0.00  0.00    +0.000 OA
ATOM     33  C   UNL     1      48.803   5.791  18.365  0.00  0.00    +0.000 A 
ATOM     34  H   UNL     1      49.357   2.633  19.100  0.00  0.00    +0.000 HD
ENDBRANCH  21  24
ENDBRANCH   2  20
TORSDOF 6
ENDMDL
MODEL 3
REMARK VINA RESULT:    -7.250      4.061      8.658
REMARK INTER + INTRA:         -10.936
REMARK INTER:                  -9.944
REMARK INTRA:                  -0.992
REMARK UNBOUND:                -1.142
REMARK  Name = 
REMARK  7 active torsions:
REMARK  status: ('A' for Active; 'I' for Inactive)
REMARK    1  A    between atoms: C_1  and  C_2
REMARK    2  A    between atoms: C_2  and  N_3
REMARK    3  A    between atoms: C_2  and  C_16
REMARK    4  A    between atoms: C_4  and  C_6
REMARK    5  A    between atoms: C_19  and  C_20
REMARK    6  A    between atoms: C_20  and  N_21
REMARK    7  A    between atoms: C_22  and  C_24
REMARK                            x       y       z     vdW  Elec       q    Type
REMARK                         _______ _______ _______ _____ _____    ______ ____
ROOT
ATOM      1  C   UNL     1      49.327   7.529  13.042  0.00  0.00    +0.000 C 
ATOM      2  C   UNL     1      48.016   6.999  13.636  0.00  0.00    +0.000 C 
ENDROOT
BRANCH   2   3
ATOM      3  C   UNL     1      48.292   6.240  14.932  0.00  0.00    +0.000 A 
ATOM      4  C   UNL     1      47.513   5.136  15.306  0.00  0.00    +0.000 A 
ATOM      5  C   UNL     1      47.808   4.413  16.473  0.00  0.00    +0.000 A 
ATOM      6  C   UNL     1      48.882   4.781  17.295  0.00  0.00    +0.000 A 
ATOM      7  C   UNL     1      49.657   5.887  16.926  0.00  0.00    +0.000 A 
ATOM      8  C   UNL     1      49.362   6.609  15.765  0.00  0.00    +0.000 A 
BRANCH   6   9
ATOM      9  C   UNL     1      49.226   3.993  18.534  0.00  0.00    +0.000 C 
BRANCH   9  10
ATOM     10  N   UNL     1      50.523   3.363  18.419  0.00  0.00    +0.000 N 
ATOM     11  C   UNL     1      50.724   2.272  17.605  0.00  0.00    +0.000 C 
ATOM     12  O   UNL     1      49.821   1.763  16.949  0.00  0.00    +0.000 OA
ATOM     13  H   UNL     1      51.299   3.788  18.903  0.00  0.00    +0.000 HD
BRANCH  11  14
ATOM     14  C   UNL     1      52.074   1.769  17.575  0.00  0.00    +0.000 A 
ATOM     15  C   UNL     1      53.296   2.315  17.916  0.00  0.00    +0.000 A 
ATOM     16  N   UNL     1      54.324   1.430  17.707  0.00  0.00    +0.000 NA
ATOM     17  C   UNL     1      53.752   0.346  17.240  0.00  0.00    +0.000 A 
ATOM     18  N   UNL     1      52.399   0.496  17.146  0.00  0.00    +0.000 N 
ATOM     19  H   UNL     1      51.736  -0.193  16.819  0.00  0.00    +0.000 HD
ENDBRANCH  11  14
ENDBRANCH   9  10
ENDBRANCH   6   9
ENDBRANCH   2   3
BRANCH   2  20
ATOM     20  N   UNL     1      47.298   6.121  12.720  0.00  0.00    +0.000 N 
ATOM     21  C   UNL     1      46.299   6.542  11.880  0.00  0.00    +0.000 C 
ATOM     22  O   UNL     1      45.948   7.715  11.797  0.00  0.00    +0.000 OA
ATOM     23  H   UNL     1      47.317   5.135  12.964  0.00  0.00    +0.000 HD
BRANCH  21  24
ATOM     24  C   UNL     1      45.703   5.512  11.018  0.00  0.00    +0.000 A 
ATOM     25  C   UNL     1      45.816   5.619   9.638  0.00  0.00    +0.000 A 
ATOM     26  S   UNL     1      45.060   4.347   8.789  0.00  0.00    +0.000 S 
ATOM     27  C   UNL     1      44.524   3.629  10.235  0.00  0.00    +0.000 A 
ATOM     28  N   UNL     1      43.759   2.504  10.218  0.00  0.00    +0.000 NA
ATOM     29  C   UNL     1      43.397   2.087  11.385  0.00  0.00    +0.000 A 
ATOM     30  N   UNL     1      43.748   2.681  12.570  0.00  0.00    +0.000 N 
ATOM     31  C   UNL     1      44.556   3.790  12.638  0.00  0.00    +0.000 A 
ATOM     32  O   UNL     1      44.919   4.253  13.714  0.00  0.00    +0.000 OA
ATOM     33  C   UNL     1      44.953   4.326  11.351  0.00  0.00    +0.000 A 
ATOM     34  H   UNL     1      43.453   2.288  13.452  0.00  0.00    +0.000 HD
ENDBRANCH  21  24
ENDBRANCH   2  20
TORSDOF 6
ENDMDL
MODEL 4
REMARK VINA RESULT:    -6.939      3.460      8.921
REMARK INTER + INTRA:         -10.516
REMARK INTER:                  -9.446
REMARK INTRA:                  -1.069
REMARK UNBOUND:                -1.142
REMARK  Name = 
REMARK  7 active torsions:
REMARK  status: ('A' for Active; 'I' for Inactive)
REMARK    1  A    between atoms: C_1  and  C_2
REMARK    2  A    between atoms: C_2  and  N_3
REMARK    3  A    between atoms: C_2  and  C_16
REMARK    4  A    between atoms: C_4  and  C_6
REMARK    5  A    between atoms: C_19  and  C_20
REMARK    6  A    between atoms: C_20  and  N_21
REMARK    7  A    between atoms: C_22  and  C_24
REMARK                            x       y       z     vdW  Elec       q    Type
REMARK                         _______ _______ _______ _____ _____    ______ ____
ROOT
ATOM      1  C   UNL     1      49.032   7.710  11.420  0.00  0.00    +0.000 C 
ATOM      2  C   UNL     1      47.972   7.449  12.497  0.00  0.00    +0.000 C 
ENDROOT
BRANCH   2   3
ATOM      3  C   UNL     1      48.641   7.211  13.849  0.00  0.00    +0.000 A 
ATOM      4  C   UNL     1      48.083   6.335  14.791  0.00  0.00    +0.000 A 
ATOM      5  C   UNL     1      48.732   6.085  16.010  0.00  0.00    +0.000 A 
ATOM      6  C   UNL     1      49.950   6.707  16.317  0.00  0.00    +0.000 A 
ATOM      7  C   UNL     1      50.507   7.585  15.380  0.00  0.00    +0.000 A 
ATOM      8  C   UNL     1      49.858   7.838  14.167  0.00  0.00    +0.000 A 
BRANCH   6   9
ATOM      9  C   UNL     1      50.672   6.420  17.610  0.00  0.00    +0.000 C 
BRANCH   9  10
ATOM     10  N   UNL     1      51.416   5.182  17.540  0.00  0.00    +0.000 N 
ATOM     11  C   UNL     1      50.922   4.013  18.071  0.00  0.00    +0.000 C 
ATOM     12  O   UNL     1      49.839   3.957  18.645  0.00  0.00    +0.000 OA
ATOM     13  H   UNL     1      52.286   5.182  17.028  0.00  0.00    +0.000 HD
BRANCH  11  14
ATOM     14  C   UNL     1      51.764   2.857  17.902  0.00  0.00    +0.000 A 
ATOM     15  C   UNL     1      53.130   2.691  17.778  0.00  0.00    +0.000 A 
ATOM     16  N   UNL     1      53.470   1.368  17.634  0.00  0.00    +0.000 NA
ATOM     17  C   UNL     1      52.331   0.718  17.666  0.00  0.00    +0.000 A 
ATOM     18  N   UNL     1      51.275   1.567  17.831  0.00  0.00    +0.000 N 
ATOM     19  H   UNL     1      50.298   1.312  17.889  0.00  0.00    +0.000 HD
ENDBRANCH  11  14
ENDBRANCH   9  10
ENDBRANCH   6   9
ENDBRANCH   2   3
BRANCH   2  20
ATOM     20  N   UNL     1      47.124   6.305  12.186  0.00  0.00    +0.000 N 
ATOM     21  C   UNL     1      45.753   6.330  12.241  0.00  0.00    +0.000 C 
ATOM     22  O   UNL     1      45.116   7.341  12.520  0.00  0.00    +0.000 OA
ATOM     23  H   UNL     1      47.576   5.398  12.261  0.00  0.00    +0.000 HD
BRANCH  21  24
ATOM     24  C   UNL     1      45.068   5.084  11.876  0.00  0.00    +0.000 A 
ATOM     25  C   UNL     1      44.347   4.386  12.837  0.00  0.00    +0.000 A 
ATOM     26  S   UNL     1      43.625   2.957  12.248  0.00  0.00    +0.000 S 
ATOM     27  C   UNL     1      44.281   3.202  10.697  0.00  0.00    +0.000 A 
ATOM     28  N   UNL     1      44.081   2.297   9.700  0.00  0.00    +0.000 NA
ATOM     29  C   UNL     1      44.662   2.594   8.586  0.00  0.00    +0.000 A 
ATOM     30  N   UNL     1      45.408   3.724   8.372  0.00  0.00    +0.000 N 
ATOM     31  C   UNL     1      45.598   4.686   9.332  0.00  0.00    +0.000 A 
ATOM     32  O   UNL     1      46.203   5.724   9.088  0.00  0.00    +0.000 OA
ATOM     33  C   UNL     1      45.004   4.379  10.619  0.00  0.00    +0.000 A 
ATOM     34  H   UNL     1      45.814   3.910   7.466  0.00  0.00    +0.000 HD
ENDBRANCH  21  24
ENDBRANCH   2  20
TORSDOF 6
ENDMDL
MODEL 5
REMARK VINA RESULT:    -6.562      4.543      7.812
REMARK INTER + INTRA:         -10.006
REMARK INTER:                  -9.196
REMARK INTRA:                  -0.811
REMARK UNBOUND:                -1.142
REMARK  Name = 
REMARK  7 active torsions:
REMARK  status: ('A' for Active; 'I' for Inactive)
REMARK    1  A    between atoms: C_1  and  C_2
REMARK    2  A    between atoms: C_2  and  N_3
REMARK    3  A    between atoms: C_2  and  C_16
REMARK    4  A    between atoms: C_4  and  C_6
REMARK    5  A    between atoms: C_19  and  C_20
REMARK    6  A    between atoms: C_20  and  N_21
REMARK    7  A    between atoms: C_22  and  C_24
REMARK                            x       y       z     vdW  Elec       q    Type
REMARK                         _______ _______ _______ _____ _____    ______ ____
ROOT
ATOM      1  C   UNL     1      45.294   9.411  12.301  0.00  0.00    +0.000 C 
ATOM      2  C   UNL     1      46.022   8.137  12.747  0.00  0.00    +0.000 C 
ENDROOT
BRANCH   2   3
ATOM      3  C   UNL     1      47.504   8.223  12.388  0.00  0.00    +0.000 A 
ATOM      4  C   UNL     1      48.368   7.142  12.608  0.00  0.00    +0.000 A 
ATOM      5  C   UNL     1      49.717   7.213  12.227  0.00  0.00    +0.000 A 
ATOM      6  C   UNL     1      50.234   8.368  11.623  0.00  0.00    +0.000 A 
ATOM      7  C   UNL     1      49.374   9.450  11.407  0.00  0.00    +0.000 A 
ATOM      8  C   UNL     1      48.030   9.381  11.790  0.00  0.00    +0.000 A 
BRANCH   6   9
ATOM      9  C   UNL     1      51.674   8.443  11.181  0.00  0.00    +0.000 C 
BRANCH   9  10
ATOM     10  N   UNL     1      51.912   7.633  10.007  0.00  0.00    +0.000 N 
ATOM     11  C   UNL     1      53.186   7.313   9.599  0.00  0.00    +0.000 C 
ATOM     12  O   UNL     1      54.186   7.707  10.190  0.00  0.00    +0.000 OA
ATOM     13  H   UNL     1      51.112   7.249   9.528  0.00  0.00    +0.000 HD
BRANCH  11  14
ATOM     14  C   UNL     1      53.264   6.478   8.427  0.00  0.00    +0.000 A 
ATOM     15  C   UNL     1      53.092   6.722   7.078  0.00  0.00    +0.000 A 
ATOM     16  N   UNL     1      53.273   5.585   6.330  0.00  0.00    +0.000 NA
ATOM     17  C   UNL     1      53.554   4.644   7.200  0.00  0.00    +0.000 A 
ATOM     18  N   UNL     1      53.566   5.131   8.475  0.00  0.00    +0.000 N 
ATOM     19  H   UNL     1      53.757   4.609   9.320  0.00  0.00    +0.000 HD
ENDBRANCH  11  14
ENDBRANCH   9  10
ENDBRANCH   6   9
ENDBRANCH   2   3
BRANCH   2  20
ATOM     20  N   UNL     1      45.463   6.931  12.150  0.00  0.00    +0.000 N 
ATOM     21  C   UNL     1      45.434   5.709  12.773  0.00  0.00    +0.000 C 
ATOM     22  O   UNL     1      45.844   5.535  13.917  0.00  0.00    +0.000 OA
ATOM     23  H   UNL     1      45.409   6.937  11.135  0.00  0.00    +0.000 HD
BRANCH  21  24
ATOM     24  C   UNL     1      44.816   4.612  12.018  0.00  0.00    +0.000 A 
ATOM     25  C   UNL     1      43.998   3.699  12.672  0.00  0.00    +0.000 A 
ATOM     26  S   UNL     1      43.371   2.486  11.650  0.00  0.00    +0.000 S 
ATOM     27  C   UNL     1      44.199   3.117  10.304  0.00  0.00    +0.000 A 
ATOM     28  N   UNL     1      44.131   2.508   9.089  0.00  0.00    +0.000 NA
ATOM     29  C   UNL     1      44.833   3.076   8.167  0.00  0.00    +0.000 A 
ATOM     30  N   UNL     1      45.582   4.211   8.344  0.00  0.00    +0.000 N 
ATOM     31  C   UNL     1      45.645   4.885   9.538  0.00  0.00    +0.000 A 
ATOM     32  O   UNL     1      46.258   5.941   9.647  0.00  0.00    +0.000 OA
ATOM     33  C   UNL     1      44.909   4.262  10.622  0.00  0.00    +0.000 A 
ATOM     34  H   UNL     1      46.088   4.621   7.573  0.00  0.00    +0.000 HD
ENDBRANCH  21  24
ENDBRANCH   2  20
TORSDOF 6
ENDMDL
MODEL 6
REMARK VINA RESULT:    -5.856      5.786      8.569
REMARK INTER + INTRA:          -9.053
REMARK INTER:                  -7.965
REMARK INTRA:                  -1.088
REMARK UNBOUND:                -1.142
REMARK  Name = 
REMARK  7 active torsions:
REMARK  status: ('A' for Active; 'I' for Inactive)
REMARK    1  A    between atoms: C_1  and  C_2
REMARK    2  A    between atoms: C_2  and  N_3
REMARK    3  A    between atoms: C_2  and  C_16
REMARK    4  A    between atoms: C_4  and  C_6
REMARK    5  A    between atoms: C_19  and  C_20
REMARK    6  A    between atoms: C_20  and  N_21
REMARK    7  A    between atoms: C_22  and  C_24
REMARK                            x       y       z     vdW  Elec       q    Type
REMARK                         _______ _______ _______ _____ _____    ______ ____
ROOT
ATOM      1  C   UNL     1      52.380   8.564  12.841  0.00  0.00    +0.000 C 
ATOM      2  C   UNL     1      51.535   9.142  11.699  0.00  0.00    +0.000 C 
ENDROOT
BRANCH   2   3
ATOM      3  C   UNL     1      50.054   8.857  11.942  0.00  0.00    +0.000 A 
ATOM      4  C   UNL     1      49.461   7.670  11.490  0.00  0.00    +0.000 A 
ATOM      5  C   UNL     1      48.111   7.395  11.762  0.00  0.00    +0.000 A 
ATOM      6  C   UNL     1      47.324   8.300  12.487  0.00  0.00    +0.000 A 
ATOM      7  C   UNL     1      47.914   9.488  12.935  0.00  0.00    +0.000 A 
ATOM      8  C   UNL     1      49.257   9.764  12.660  0.00  0.00    +0.000 A 
BRANCH   6   9
ATOM      9  C   UNL     1      45.883   7.999  12.813  0.00  0.00    +0.000 C 
BRANCH   9  10
ATOM     10  N   UNL     1      45.528   6.645  12.452  0.00  0.00    +0.000 N 
ATOM     11  C   UNL     1      44.402   6.368  11.711  0.00  0.00    +0.000 C 
ATOM     12  O   UNL     1      43.631   7.243  11.332  0.00  0.00    +0.000 OA
ATOM     13  H   UNL     1      46.168   5.907  12.703  0.00  0.00    +0.000 HD
BRANCH  11  14
ATOM     14  C   UNL     1      44.194   4.975  11.408  0.00  0.00    +0.000 A 
ATOM     15  C   UNL     1      44.653   4.145  10.403  0.00  0.00    +0.000 A 
ATOM     16  N   UNL     1      44.169   2.868  10.539  0.00  0.00    +0.000 NA
ATOM     17  C   UNL     1      43.416   2.900  11.613  0.00  0.00    +0.000 A 
ATOM     18  N   UNL     1      43.402   4.143  12.176  0.00  0.00    +0.000 N 
ATOM     19  H   UNL     1      42.902   4.423  13.009  0.00  0.00    +0.000 HD
ENDBRANCH  11  14
ENDBRANCH   9  10
ENDBRANCH   6   9
ENDBRANCH   2   3
BRANCH   2  20
ATOM     20  N   UNL     1      51.909   8.608  10.396  0.00  0.00    +0.000 N 
ATOM     21  C   UNL     1      52.887   9.146   9.598  0.00  0.00    +0.000 C 
ATOM     22  O   UNL     1      53.566  10.110   9.937  0.00  0.00    +0.000 OA
ATOM     23  H   UNL     1      51.199   8.040   9.942  0.00  0.00    +0.000 HD
BRANCH  21  24
ATOM     24  C   UNL     1      53.133   8.459   8.324  0.00  0.00    +0.000 A 
ATOM     25  C   UNL     1      53.086   9.175   7.135  0.00  0.00    +0.000 A 
ATOM     26  S   UNL     1      53.385   8.222   5.751  0.00  0.00    +0.000 S 
ATOM     27  C   UNL     1      53.551   6.813   6.691  0.00  0.00    +0.000 A 
ATOM     28  N   UNL     1      53.775   5.604   6.108  0.00  0.00    +0.000 NA
ATOM     29  C   UNL     1      53.848   4.618   6.938  0.00  0.00    +0.000 A 
ATOM     30  N   UNL     1      53.739   4.734   8.300  0.00  0.00    +0.000 N 
ATOM     31  C   UNL     1      53.559   5.938   8.934  0.00  0.00    +0.000 A 
ATOM     32  O   UNL     1      53.544   6.021  10.157  0.00  0.00    +0.000 OA
ATOM     33  C   UNL     1      53.424   7.074   8.043  0.00  0.00    +0.000 A 
ATOM     34  H   UNL     1      53.832   3.924   8.896  0.00  0.00    +0.000 HD
ENDBRANCH  21  24
ENDBRANCH   2  20
TORSDOF 6
ENDMDL
MODEL 7
REMARK VINA RESULT:    -5.794      4.419      8.700
REMARK INTER + INTRA:          -8.969
REMARK INTER:                  -7.912
REMARK INTRA:                  -1.057
REMARK UNBOUND:                -1.142
REMARK  Name = 
REMARK  7 active torsions:
REMARK  status: ('A' for Active; 'I' for Inactive)
REMARK    1  A    between atoms: C_1  and  C_2
REMARK    2  A    between atoms: C_2  and  N_3
REMARK    3  A    between atoms: C_2  and  C_16
REMARK    4  A    between atoms: C_4  and  C_6
REMARK    5  A    between atoms: C_19  and  C_20
REMARK    6  A    between atoms: C_20  and  N_21
REMARK    7  A    between atoms: C_22  and  C_24
REMARK                            x       y       z     vdW  Elec       q    Type
REMARK                         _______ _______ _______ _____ _____    ______ ____
ROOT
ATOM      1  C   UNL     1      45.562   4.335  13.145  0.00  0.00    +0.000 C 
ATOM      2  C   UNL     1      46.789   5.248  13.258  0.00  0.00    +0.000 C 
ENDROOT
BRANCH   2   3
ATOM      3  C   UNL     1      47.418   5.119  14.644  0.00  0.00    +0.000 A 
ATOM      4  C   UNL     1      47.186   3.990  15.443  0.00  0.00    +0.000 A 
ATOM      5  C   UNL     1      47.809   3.858  16.694  0.00  0.00    +0.000 A 
ATOM      6  C   UNL     1      48.671   4.852  17.177  0.00  0.00    +0.000 A 
ATOM      7  C   UNL     1      48.899   5.982  16.383  0.00  0.00    +0.000 A 
ATOM      8  C   UNL     1      48.275   6.116  15.138  0.00  0.00    +0.000 A 
BRANCH   6   9
ATOM      9  C   UNL     1      49.370   4.706  18.505  0.00  0.00    +0.000 C 
BRANCH   9  10
ATOM     10  N   UNL     1      50.281   3.582  18.505  0.00  0.00    +0.000 N 
ATOM     11  C   UNL     1      51.597   3.720  18.128  0.00  0.00    +0.000 C 
ATOM     12  O   UNL     1      52.067   4.791  17.758  0.00  0.00    +0.000 OA
ATOM     13  H   UNL     1      49.940   2.699  18.853  0.00  0.00    +0.000 HD
BRANCH  11  14
ATOM     14  C   UNL     1      52.387   2.518  18.203  0.00  0.00    +0.000 A 
ATOM     15  C   UNL     1      53.720   2.276  18.472  0.00  0.00    +0.000 A 
ATOM     16  N   UNL     1      54.012   0.935  18.428  0.00  0.00    +0.000 NA
ATOM     17  C   UNL     1      52.877   0.348  18.134  0.00  0.00    +0.000 A 
ATOM     18  N   UNL     1      51.866   1.255  17.993  0.00  0.00    +0.000 N 
ATOM     19  H   UNL     1      50.901   1.055  17.771  0.00  0.00    +0.000 HD
ENDBRANCH  11  14
ENDBRANCH   9  10
ENDBRANCH   6   9
ENDBRANCH   2   3
BRANCH   2  20
ATOM     20  N   UNL     1      46.472   6.650  13.015  0.00  0.00    +0.000 N 
ATOM     21  C   UNL     1      47.245   7.490  12.254  0.00  0.00    +0.000 C 
ATOM     22  O   UNL     1      48.260   7.118  11.673  0.00  0.00    +0.000 OA
ATOM     23  H   UNL     1      45.854   7.078  13.698  0.00  0.00    +0.000 HD
BRANCH  21  24
ATOM     24  C   UNL     1      46.754   8.867  12.110  0.00  0.00    +0.000 A 
ATOM     25  C   UNL     1      47.610   9.933  12.356  0.00  0.00    +0.000 A 
ATOM     26  S   UNL     1      46.877  11.461  12.152  0.00  0.00    +0.000 S 
ATOM     27  C   UNL     1      45.381  10.750  11.764  0.00  0.00    +0.000 A 
ATOM     28  N   UNL     1      44.283  11.515  11.517  0.00  0.00    +0.000 NA
ATOM     29  C   UNL     1      43.209  10.844  11.267  0.00  0.00    +0.000 A 
ATOM     30  N   UNL     1      43.137   9.476  11.221  0.00  0.00    +0.000 N 
ATOM     31  C   UNL     1      44.227   8.664  11.417  0.00  0.00    +0.000 A 
ATOM     32  O   UNL     1      44.150   7.447  11.291  0.00  0.00    +0.000 OA
ATOM     33  C   UNL     1      45.451   9.368  11.747  0.00  0.00    +0.000 A 
ATOM     34  H   UNL     1      42.270   9.012  10.993  0.00  0.00    +0.000 HD
ENDBRANCH  21  24
ENDBRANCH   2  20
TORSDOF 6
ENDMDL
MODEL 8
REMARK VINA RESULT:    -5.505      2.756      9.416
REMARK INTER + INTRA:          -8.579
REMARK INTER:                  -7.664
REMARK INTRA:                  -0.914
REMARK UNBOUND:                -1.142
REMARK  Name = 
REMARK  7 active torsions:
REMARK  status: ('A' for Active; 'I' for Inactive)
REMARK    1  A    between atoms: C_1  and  C_2
REMARK    2  A    between atoms: C_2  and  N_3
REMARK    3  A    between atoms: C_2  and  C_16
REMARK    4  A    between atoms: C_4  and  C_6
REMARK    5  A    between atoms: C_19  and  C_20
REMARK    6  A    between atoms: C_20  and  N_21
REMARK    7  A    between atoms: C_22  and  C_24
REMARK                            x       y       z     vdW  Elec       q    Type
REMARK                         _______ _______ _______ _____ _____    ______ ____
ROOT
ATOM      1  C   UNL     1      49.631   7.751  11.038  0.00  0.00    +0.000 C 
ATOM      2  C   UNL     1      48.347   8.079  11.810  0.00  0.00    +0.000 C 
ENDROOT
BRANCH   2   3
ATOM      3  C   UNL     1      48.681   8.469  13.248  0.00  0.00    +0.000 A 
ATOM      4  C   UNL     1      47.674   8.612  14.214  0.00  0.00    +0.000 A 
ATOM      5  C   UNL     1      47.997   8.921  15.545  0.00  0.00    +0.000 A 
ATOM      6  C   UNL     1      49.330   9.099  15.939  0.00  0.00    +0.000 A 
ATOM      7  C   UNL     1      50.335   8.960  14.976  0.00  0.00    +0.000 A 
ATOM      8  C   UNL     1      50.014   8.657  13.649  0.00  0.00    +0.000 A 
BRANCH   6   9
ATOM      9  C   UNL     1      49.689   9.399  17.373  0.00  0.00    +0.000 C 
BRANCH   9  10
ATOM     10  N   UNL     1      49.392   8.280  18.240  0.00  0.00    +0.000 N 
ATOM     11  C   UNL     1      50.351   7.350  18.571  0.00  0.00    +0.000 C 
ATOM     12  O   UNL     1      51.498   7.405  18.139  0.00  0.00    +0.000 OA
ATOM     13  H   UNL     1      48.473   8.235  18.654  0.00  0.00    +0.000 HD
BRANCH  11  14
ATOM     14  C   UNL     1      49.913   6.308  19.463  0.00  0.00    +0.000 A 
ATOM     15  C   UNL     1      50.418   5.798  20.644  0.00  0.00    +0.000 A 
ATOM     16  N   UNL     1      49.632   4.786  21.137  0.00  0.00    +0.000 NA
ATOM     17  C   UNL     1      48.651   4.664  20.275  0.00  0.00    +0.000 A 
ATOM     18  N   UNL     1      48.770   5.560  19.252  0.00  0.00    +0.000 N 
ATOM     19  H   UNL     1      48.142   5.668  18.467  0.00  0.00    +0.000 HD
ENDBRANCH  11  14
ENDBRANCH   9  10
ENDBRANCH   6   9
ENDBRANCH   2   3
BRANCH   2  20
ATOM     20  N   UNL     1      47.404   6.967  11.832  0.00  0.00    +0.000 N 
ATOM     21  C   UNL     1      46.046   7.111  11.706  0.00  0.00    +0.000 C 
ATOM     22  O   UNL     1      45.505   8.197  11.521  0.00  0.00    +0.000 OA
ATOM     23  H   UNL     1      47.743   6.122  12.285  0.00  0.00    +0.000 HD
BRANCH  21  24
ATOM     24  C   UNL     1      45.259   5.871  11.736  0.00  0.00    +0.000 A 
ATOM     25  C   UNL     1      44.630   5.482  12.913  0.00  0.00    +0.000 A 
ATOM     26  S   UNL     1      43.769   4.015  12.775  0.00  0.00    +0.000 S 
ATOM     27  C   UNL     1      44.236   3.832  11.149  0.00  0.00    +0.000 A 
ATOM     28  N   UNL     1      43.867   2.735  10.434  0.00  0.00    +0.000 NA
ATOM     29  C   UNL     1      44.318   2.710   9.224  0.00  0.00    +0.000 A 
ATOM     30  N   UNL     1      45.087   3.694   8.658  0.00  0.00    +0.000 N 
ATOM     31  C   UNL     1      45.444   4.840   9.326  0.00  0.00    +0.000 A 
ATOM     32  O   UNL     1      46.065   5.738   8.770  0.00  0.00    +0.000 OA
ATOM     33  C   UNL     1      45.002   4.895  10.706  0.00  0.00    +0.000 A 
ATOM     34  H   UNL     1      45.385   3.627   7.696  0.00  0.00    +0.000 HD
ENDBRANCH  21  24
ENDBRANCH   2  20
TORSDOF 6
ENDMDL
MODEL 9
REMARK VINA RESULT:    -5.279      6.875     10.102
REMARK INTER + INTRA:          -8.273
REMARK INTER:                  -7.199
REMARK INTRA:                  -1.074
REMARK UNBOUND:                -1.142
REMARK  Name = 
REMARK  7 active torsions:
REMARK  status: ('A' for Active; 'I' for Inactive)
REMARK    1  A    between atoms: C_1  and  C_2
REMARK    2  A    between atoms: C_2  and  N_3
REMARK    3  A    between atoms: C_2  and  C_16
REMARK    4  A    between atoms: C_4  and  C_6
REMARK    5  A    between atoms: C_19  and  C_20
REMARK    6  A    between atoms: C_20  and  N_21
REMARK    7  A    between atoms: C_22  and  C_24
REMARK                            x       y       z     vdW  Elec       q    Type
REMARK                         _______ _______ _______ _____ _____    ______ ____
ROOT
ATOM      1  C   UNL     1      53.396   7.694  11.481  0.00  0.00    +0.000 C 
ATOM      2  C   UNL     1      52.723   8.817  10.682  0.00  0.00    +0.000 C 
ENDROOT
BRANCH   2   3
ATOM      3  C   UNL     1      51.243   8.909  11.046  0.00  0.00    +0.000 A 
ATOM      4  C   UNL     1      50.515   7.770  11.419  0.00  0.00    +0.000 A 
ATOM      5  C   UNL     1      49.168   7.874  11.801  0.00  0.00    +0.000 A 
ATOM      6  C   UNL     1      48.517   9.115  11.813  0.00  0.00    +0.000 A 
ATOM      7  C   UNL     1      49.240  10.252  11.436  0.00  0.00    +0.000 A 
ATOM      8  C   UNL     1      50.581  10.149  11.052  0.00  0.00    +0.000 A 
BRANCH   6   9
ATOM      9  C   UNL     1      47.079   9.242  12.252  0.00  0.00    +0.000 C 
BRANCH   9  10
ATOM     10  N   UNL     1      46.519   7.958  12.612  0.00  0.00    +0.000 N 
ATOM     11  C   UNL     1      45.251   7.591  12.222  0.00  0.00    +0.000 C 
ATOM     12  O   UNL     1      44.523   8.330  11.568  0.00  0.00    +0.000 OA
ATOM     13  H   UNL     1      47.110   7.306  13.104  0.00  0.00    +0.000 HD
BRANCH  11  14
ATOM     14  C   UNL     1      44.840   6.273  12.634  0.00  0.00    +0.000 A 
ATOM     15  C   UNL     1      45.529   5.164  13.087  0.00  0.00    +0.000 A 
ATOM     16  N   UNL     1      44.684   4.118  13.361  0.00  0.00    +0.000 NA
ATOM     17  C   UNL     1      43.483   4.567  13.081  0.00  0.00    +0.000 A 
ATOM     18  N   UNL     1      43.522   5.859  12.646  0.00  0.00    +0.000 N 
ATOM     19  H   UNL     1      42.733   6.428  12.371  0.00  0.00    +0.000 HD
ENDBRANCH  11  14
ENDBRANCH   9  10
ENDBRANCH   6   9
ENDBRANCH   2   3
BRANCH   2  20
ATOM     20  N   UNL     1      52.842   8.631   9.242  0.00  0.00    +0.000 N 
ATOM     21  C   UNL     1      53.571   9.454   8.420  0.00  0.00    +0.000 C 
ATOM     22  O   UNL     1      54.225  10.403   8.840  0.00  0.00    +0.000 OA
ATOM     23  H   UNL     1      52.099   8.086   8.814  0.00  0.00    +0.000 HD
BRANCH  21  24
ATOM     24  C   UNL     1      53.585   9.097   6.996  0.00  0.00    +0.000 A 
ATOM     25  C   UNL     1      53.021   9.959   6.064  0.00  0.00    +0.000 A 
ATOM     26  S   UNL     1      53.114   9.387   4.459  0.00  0.00    +0.000 S 
ATOM     27  C   UNL     1      53.879   7.952   4.958  0.00  0.00    +0.000 A 
ATOM     28  N   UNL     1      54.200   6.980   4.062  0.00  0.00    +0.000 NA
ATOM     29  C   UNL     1      54.746   5.932   4.583  0.00  0.00    +0.000 A 
ATOM     30  N   UNL     1      55.019   5.777   5.917  0.00  0.00    +0.000 N 
ATOM     31  C   UNL     1      54.756   6.748   6.851  0.00  0.00    +0.000 A 
ATOM     32  O   UNL     1      55.083   6.614   8.025  0.00  0.00    +0.000 OA
ATOM     33  C   UNL     1      54.098   7.929   6.324  0.00  0.00    +0.000 A 
ATOM     34  H   UNL     1      55.474   4.942   6.257  0.00  0.00    +0.000 HD
ENDBRANCH  21  24
ENDBRANCH   2  20
TORSDOF 6
ENDMDL
