MODEL 1
REMARK VINA RESULT:    -8.215      0.000      0.000
REMARK INTER + INTRA:         -12.234
REMARK INTER:                 -11.577
REMARK INTRA:                  -0.657
REMARK UNBOUND:                -0.657
REMARK  Name = 
REMARK  8 active torsions:
REMARK  status: ('A' for Active; 'I' for Inactive)
REMARK    1  A    between atoms: C_1  and  N_2
REMARK    2  A    between atoms: N_2  and  C_3
REMARK    3  A    between atoms: C_3  and  C_4
REMARK    4  A    between atoms: C_7  and  C_8
REMARK    5  A    between atoms: C_8  and  C_9
REMARK    6  A    between atoms: C_12  and  C_13
REMARK    7  A    between atoms: C_13  and  N_14
REMARK    8  A    between atoms: C_15  and  C_17
REMARK                            x       y       z     vdW  Elec       q    Type
REMARK                         _______ _______ _______ _____ _____    ______ ____
ROOT
ATOM      1  C   UNL     1      44.791   5.668  11.211  0.00  0.00    +0.000 A 
ATOM      2  C   UNL     1      44.448   7.017  11.341  0.00  0.00    +0.000 A 
ATOM      3  C   UNL     1      45.229   7.860  12.127  0.00  0.00    +0.000 A 
ATOM      4  C   UNL     1      46.328   7.331  12.795  0.00  0.00    +0.000 A 
ATOM      5  N   UNL     1      46.679   6.023  12.694  0.00  0.00    +0.000 NA
ATOM      6  C   UNL     1      45.908   5.230  11.915  0.00  0.00    +0.000 A 
ENDROOT
BRANCH   1   7
ATOM      7  C   UNL     1      44.014   4.738  10.321  0.00  0.00    +0.000 C 
BRANCH   7  11
ATOM      8  C   UNL     1      46.300   2.120   7.850  0.00  0.00    +0.000 A 
ATOM      9  C   UNL     1      46.352   3.488   7.592  0.00  0.00    +0.000 A 
ATOM     10  C   UNL     1      45.623   4.357   8.401  0.00  0.00    +0.000 A 
ATOM     11  C   UNL     1      44.847   3.845   9.443  0.00  0.00    +0.000 A 
ATOM     12  C   UNL     1      44.857   2.466   9.624  0.00  0.00    +0.000 A 
ATOM     13  N   UNL     1      45.557   1.598   8.857  0.00  0.00    +0.000 NA
BRANCH   8  14
ATOM     14  C   UNL     1      47.152   1.158   7.042  0.00  0.00    +0.000 C 
BRANCH  14  16
ATOM     15  C   UNL     1      47.844   2.354   5.051  0.00  0.00    +0.000 C 
ATOM     16  N   UNL     1      48.276   1.800   6.333  0.00  0.00    +0.000 NA
ATOM     17  H   UNL     1      48.620   2.562   6.914  0.00  0.00    +0.000 HD
ENDBRANCH  14  16
ENDBRANCH   8  14
ENDBRANCH   7  11
ENDBRANCH   1   7
BRANCH   4  18
ATOM     18  C   UNL     1      47.208   8.222  13.639  0.00  0.00    +0.000 C 
BRANCH  18  19
ATOM     19  N   UNL     1      47.704   7.543  14.815  0.00  0.00    +0.000 N 
ATOM     20  C   UNL     1      48.964   7.018  14.903  0.00  0.00    +0.000 C 
ATOM     21  O   UNL     1      49.766   7.082  13.973  0.00  0.00    +0.000 OA
ATOM     22  H   UNL     1      46.993   7.263  15.484  0.00  0.00    +0.000 HD
BRANCH  20  23
ATOM     23  C   UNL     1      49.342   6.443  16.202  0.00  0.00    +0.000 A 
ATOM     24  C   UNL     1      50.327   7.051  16.969  0.00  0.00    +0.000 A 
ATOM     25  S   UNL     1      50.576   6.305  18.482  0.00  0.00    +0.000 S 
ATOM     26  C   UNL     1      49.416   5.106  18.144  0.00  0.00    +0.000 A 
ATOM     27  N   UNL     1      49.143   4.123  19.043  0.00  0.00    +0.000 NA
ATOM     28  C   UNL     1      48.267   3.262  18.643  0.00  0.00    +0.000 A 
ATOM     29  N   UNL     1      47.640   3.297  17.425  0.00  0.00    +0.000 N 
ATOM     30  C   UNL     1      47.853   4.293  16.504  0.00  0.00    +0.000 A 
ATOM     31  O   UNL     1      47.226   4.326  15.452  0.00  0.00    +0.000 OA
ATOM     32  C   UNL     1      48.839   5.281  16.899  0.00  0.00    +0.000 A 
ATOM     33  H   UNL     1      46.955   2.599  17.171  0.00  0.00    +0.000 HD
ENDBRANCH  20  23
ENDBRANCH  18  19
ENDBRANCH   4  18
TORSDOF 7
ENDMDL
MODEL 2
REMARK VINA RESULT:    -7.268      3.791      8.817
REMARK INTER + INTRA:         -10.899
REMARK INTER:                  -9.964
REMARK INTRA:                  -0.935
REMARK UNBOUND:                -0.657
REMARK  Name = 
REMARK  8 active torsions:
REMARK  status: ('A' for Active; 'I' for Inactive)
REMARK    1  A    between atoms: C_1  and  N_2
REMARK    2  A    between atoms: N_2  and  C_3
REMARK    3  A    between atoms: C_3  and  C_4
REMARK    4  A    between atoms: C_7  and  C_8
REMARK    5  A    between atoms: C_8  and  C_9
REMARK    6  A    between atoms: C_12  and  C_13
REMARK    7  A    between atoms: C_13  and  N_14
REMARK    8  A    between atoms: C_15  and  C_17
REMARK                            x       y       z     vdW  Elec       q    Type
REMARK                         _______ _______ _______ _____ _____    ______ ____
ROOT
ATOM      1  C   UNL     1      49.653   5.512  17.024  0.00  0.00    +0.000 A 
ATOM      2  C   UNL     1      50.345   6.563  16.418  0.00  0.00    +0.000 A 
ATOM      3  C   UNL     1      49.840   7.155  15.263  0.00  0.00    +0.000 A 
ATOM      4  C   UNL     1      48.659   6.663  14.717  0.00  0.00    +0.000 A 
ATOM      5  N   UNL     1      47.971   5.636  15.278  0.00  0.00    +0.000 NA
ATOM      6  C   UNL     1      48.480   5.088  16.405  0.00  0.00    +0.000 A 
ENDROOT
BRANCH   1   7
ATOM      7  C   UNL     1      50.128   4.887  18.307  0.00  0.00    +0.000 C 
BRANCH   7  11
ATOM      8  C   UNL     1      52.710   1.512  17.943  0.00  0.00    +0.000 A 
ATOM      9  C   UNL     1      51.431   1.430  17.396  0.00  0.00    +0.000 A 
ATOM     10  C   UNL     1      50.582   2.531  17.493  0.00  0.00    +0.000 A 
ATOM     11  C   UNL     1      51.019   3.686  18.144  0.00  0.00    +0.000 A 
ATOM     12  C   UNL     1      52.311   3.676  18.658  0.00  0.00    +0.000 A 
ATOM     13  N   UNL     1      53.159   2.624  18.576  0.00  0.00    +0.000 NA
BRANCH   8  14
ATOM     14  C   UNL     1      53.687   0.363  17.775  0.00  0.00    +0.000 C 
BRANCH  14  16
ATOM     15  C   UNL     1      54.419  -1.730  18.752  0.00  0.00    +0.000 C 
ATOM     16  N   UNL     1      53.267  -0.886  18.441  0.00  0.00    +0.000 NA
ATOM     17  H   UNL     1      52.806  -0.637  19.314  0.00  0.00    +0.000 HD
ENDBRANCH  14  16
ENDBRANCH   8  14
ENDBRANCH   7  11
ENDBRANCH   1   7
BRANCH   4  18
ATOM     18  C   UNL     1      48.073   7.296  13.477  0.00  0.00    +0.000 C 
BRANCH  18  19
ATOM     19  N   UNL     1      47.287   6.358  12.706  0.00  0.00    +0.000 N 
ATOM     20  C   UNL     1      46.321   6.742  11.818  0.00  0.00    +0.000 C 
ATOM     21  O   UNL     1      46.045   7.924  11.621  0.00  0.00    +0.000 OA
ATOM     22  H   UNL     1      47.322   5.397  13.030  0.00  0.00    +0.000 HD
BRANCH  20  23
ATOM     23  C   UNL     1      45.679   5.667  11.047  0.00  0.00    +0.000 A 
ATOM     24  C   UNL     1      45.822   5.625   9.666  0.00  0.00    +0.000 A 
ATOM     25  S   UNL     1      45.090   4.266   8.941  0.00  0.00    +0.000 S 
ATOM     26  C   UNL     1      44.506   3.712  10.441  0.00  0.00    +0.000 A 
ATOM     27  N   UNL     1      43.769   2.572  10.529  0.00  0.00    +0.000 NA
ATOM     28  C   UNL     1      43.364   2.289  11.722  0.00  0.00    +0.000 A 
ATOM     29  N   UNL     1      43.630   3.042  12.835  0.00  0.00    +0.000 N 
ATOM     30  C   UNL     1      44.403   4.176  12.801  0.00  0.00    +0.000 A 
ATOM     31  O   UNL     1      44.673   4.788  13.828  0.00  0.00    +0.000 OA
ATOM     32  C   UNL     1      44.875   4.547  11.481  0.00  0.00    +0.000 A 
ATOM     33  H   UNL     1      43.292   2.764  13.745  0.00  0.00    +0.000 HD
ENDBRANCH  20  23
ENDBRANCH  18  19
ENDBRANCH   4  18
TORSDOF 7
ENDMDL
MODEL 3
REMARK VINA RESULT:    -7.180      4.459      9.966
REMARK INTER + INTRA:         -10.775
REMARK INTER:                 -10.124
REMARK INTRA:                  -0.652
REMARK UNBOUND:                -0.657
REMARK  Name = 
REMARK  8 active torsions:
REMARK  status: ('A' for Active; 'I' for Inactive)
REMARK    1  A    between atoms: C_1  and  N_2
REMARK    2  A    between atoms: N_2  and  C_3
REMARK    3  A    between atoms: C_3  and  C_4
REMARK    4  A    between atoms: C_7  and  C_8
REMARK    5  A    between atoms: C_8  and  C_9
REMARK    6  A    between atoms: C_12  and  C_13
REMARK    7  A    between atoms: C_13  and  N_14
REMARK    8  A    between atoms: C_15  and  C_17
REMARK                            x       y       z     vdW  Elec       q    Type
REMARK                         _______ _______ _______ _____ _____    ______ ____
ROOT
ATOM      1  C   UNL     1      51.394   3.910  17.583  0.00  0.00    +0.000 A 
ATOM      2  C   UNL     1      50.847   2.632  17.441  0.00  0.00    +0.000 A 
ATOM      3  C   UNL     1      49.491   2.483  17.161  0.00  0.00    +0.000 A 
ATOM      4  C   UNL     1      48.697   3.619  17.055  0.00  0.00    +0.000 A 
ATOM      5  N   UNL     1      49.199   4.873  17.199  0.00  0.00    +0.000 NA
ATOM      6  C   UNL     1      50.521   4.987  17.459  0.00  0.00    +0.000 A 
ENDROOT
BRANCH   1   7
ATOM      7  C   UNL     1      52.864   4.119  17.821  0.00  0.00    +0.000 C 
BRANCH   7  11
ATOM      8  C   UNL     1      54.878   0.803  19.593  0.00  0.00    +0.000 A 
ATOM      9  C   UNL     1      54.617   0.767  18.224  0.00  0.00    +0.000 A 
ATOM     10  C   UNL     1      53.975   1.850  17.629  0.00  0.00    +0.000 A 
ATOM     11  C   UNL     1      53.592   2.943  18.410  0.00  0.00    +0.000 A 
ATOM     12  C   UNL     1      53.894   2.890  19.766  0.00  0.00    +0.000 A 
ATOM     13  N   UNL     1      54.519   1.854  20.372  0.00  0.00    +0.000 NA
BRANCH   8  14
ATOM     14  C   UNL     1      55.654  -0.321  20.253  0.00  0.00    +0.000 C 
BRANCH  14  16
ATOM     15  C   UNL     1      54.630  -2.452  19.722  0.00  0.00    +0.000 C 
ATOM     16  N   UNL     1      54.809  -1.426  20.747  0.00  0.00    +0.000 NA
ATOM     17  H   UNL     1      55.279  -1.847  21.546  0.00  0.00    +0.000 HD
ENDBRANCH  14  16
ENDBRANCH   8  14
ENDBRANCH   7  11
ENDBRANCH   1   7
BRANCH   4  18
ATOM     18  C   UNL     1      47.227   3.494  16.732  0.00  0.00    +0.000 C 
BRANCH  18  19
ATOM     19  N   UNL     1      46.799   4.467  15.752  0.00  0.00    +0.000 N 
ATOM     20  C   UNL     1      46.810   4.231  14.406  0.00  0.00    +0.000 C 
ATOM     21  O   UNL     1      47.198   3.165  13.931  0.00  0.00    +0.000 OA
ATOM     22  H   UNL     1      46.716   5.418  16.097  0.00  0.00    +0.000 HD
BRANCH  20  23
ATOM     23  C   UNL     1      46.255   5.292  13.552  0.00  0.00    +0.000 A 
ATOM     24  C   UNL     1      46.998   6.438  13.300  0.00  0.00    +0.000 A 
ATOM     25  S   UNL     1      46.242   7.522  12.222  0.00  0.00    +0.000 S 
ATOM     26  C   UNL     1      44.868   6.525  12.097  0.00  0.00    +0.000 A 
ATOM     27  N   UNL     1      43.811   6.883  11.319  0.00  0.00    +0.000 NA
ATOM     28  C   UNL     1      42.824   6.051  11.343  0.00  0.00    +0.000 A 
ATOM     29  N   UNL     1      42.799   4.893  12.074  0.00  0.00    +0.000 N 
ATOM     30  C   UNL     1      43.857   4.470  12.840  0.00  0.00    +0.000 A 
ATOM     31  O   UNL     1      43.823   3.397  13.430  0.00  0.00    +0.000 OA
ATOM     32  C   UNL     1      44.990   5.376  12.858  0.00  0.00    +0.000 A 
ATOM     33  H   UNL     1      42.000   4.276  12.046  0.00  0.00    +0.000 HD
ENDBRANCH  20  23
ENDBRANCH  18  19
ENDBRANCH   4  18
TORSDOF 7
ENDMDL
MODEL 4
REMARK VINA RESULT:    -7.052      1.571      2.144
REMARK INTER + INTRA:         -10.595
REMARK INTER:                  -9.527
REMARK INTRA:                  -1.068
REMARK UNBOUND:                -0.657
REMARK  Name = 
REMARK  8 active torsions:
REMARK  status: ('A' for Active; 'I' for Inactive)
REMARK    1  A    between atoms: C_1  and  N_2
REMARK    2  A    between atoms: N_2  and  C_3
REMARK    3  A    between atoms: C_3  and  C_4
REMARK    4  A    between atoms: C_7  and  C_8
REMARK    5  A    between atoms: C_8  and  C_9
REMARK    6  A    between atoms: C_12  and  C_13
REMARK    7  A    between atoms: C_13  and  N_14
REMARK    8  A    between atoms: C_15  and  C_17
REMARK                            x       y       z     vdW  Elec       q    Type
REMARK                         _______ _______ _______ _____ _____    ______ ____
ROOT
ATOM      1  C   UNL     1      45.704   6.145  12.753  0.00  0.00    +0.000 A 
ATOM      2  C   UNL     1      45.742   7.539  12.852  0.00  0.00    +0.000 A 
ATOM      3  C   UNL     1      46.842   8.165  13.433  0.00  0.00    +0.000 A 
ATOM      4  C   UNL     1      47.876   7.382  13.932  0.00  0.00    +0.000 A 
ATOM      5  N   UNL     1      47.861   6.026  13.859  0.00  0.00    +0.000 NA
ATOM      6  C   UNL     1      46.785   5.445  13.280  0.00  0.00    +0.000 A 
ENDROOT
BRANCH   1   7
ATOM      7  C   UNL     1      44.567   5.431  12.076  0.00  0.00    +0.000 C 
BRANCH   7  11
ATOM      8  C   UNL     1      45.588   3.798   8.271  0.00  0.00    +0.000 A 
ATOM      9  C   UNL     1      44.826   3.022   9.143  0.00  0.00    +0.000 A 
ATOM     10  C   UNL     1      44.471   3.549  10.382  0.00  0.00    +0.000 A 
ATOM     11  C   UNL     1      44.893   4.833  10.735  0.00  0.00    +0.000 A 
ATOM     12  C   UNL     1      45.649   5.532   9.801  0.00  0.00    +0.000 A 
ATOM     13  N   UNL     1      46.007   5.048   8.589  0.00  0.00    +0.000 NA
BRANCH   8  14
ATOM     14  C   UNL     1      45.914   3.286   6.880  0.00  0.00    +0.000 C 
BRANCH  14  16
ATOM     15  C   UNL     1      47.905   1.965   6.475  0.00  0.00    +0.000 C 
ATOM     16  N   UNL     1      47.352   3.316   6.550  0.00  0.00    +0.000 NA
ATOM     17  H   UNL     1      47.456   3.758   5.638  0.00  0.00    +0.000 HD
ENDBRANCH  14  16
ENDBRANCH   8  14
ENDBRANCH   7  11
ENDBRANCH   1   7
BRANCH   4  18
ATOM     18  C   UNL     1      49.092   8.030  14.549  0.00  0.00    +0.000 C 
BRANCH  18  19
ATOM     19  N   UNL     1      49.330   7.569  15.899  0.00  0.00    +0.000 N 
ATOM     20  C   UNL     1      50.530   7.065  16.319  0.00  0.00    +0.000 C 
ATOM     21  O   UNL     1      51.496   6.961  15.565  0.00  0.00    +0.000 OA
ATOM     22  H   UNL     1      48.496   7.415  16.456  0.00  0.00    +0.000 HD
BRANCH  20  23
ATOM     23  C   UNL     1      50.633   6.729  17.747  0.00  0.00    +0.000 A 
ATOM     24  C   UNL     1      51.639   7.293  18.521  0.00  0.00    +0.000 A 
ATOM     25  S   UNL     1      51.557   6.864  20.170  0.00  0.00    +0.000 S 
ATOM     26  C   UNL     1      50.208   5.862  19.899  0.00  0.00    +0.000 A 
ATOM     27  N   UNL     1      49.633   5.171  20.920  0.00  0.00    +0.000 NA
ATOM     28  C   UNL     1      48.639   4.425  20.566  0.00  0.00    +0.000 A 
ATOM     29  N   UNL     1      48.168   4.310  19.284  0.00  0.00    +0.000 N 
ATOM     30  C   UNL     1      48.690   5.020  18.231  0.00  0.00    +0.000 A 
ATOM     31  O   UNL     1      48.202   4.939  17.110  0.00  0.00    +0.000 OA
ATOM     32  C   UNL     1      49.819   5.865  18.571  0.00  0.00    +0.000 A 
ATOM     33  H   UNL     1      47.380   3.716  19.070  0.00  0.00    +0.000 HD
ENDBRANCH  20  23
ENDBRANCH  18  19
ENDBRANCH   4  18
TORSDOF 7
ENDMDL
MODEL 5
REMARK VINA RESULT:    -7.028      2.221      2.451
REMARK INTER + INTRA:         -10.561
REMARK INTER:                  -9.651
REMARK INTRA:                  -0.909
REMARK UNBOUND:                -0.657
REMARK  Name = 
REMARK  8 active torsions:
REMARK  status: ('A' for Active; 'I' for Inactive)
REMARK    1  A    between atoms: C_1  and  N_2
REMARK    2  A    between atoms: N_2  and  C_3
REMARK    3  A    between atoms: C_3  and  C_4
REMARK    4  A    between atoms: C_7  and  C_8
REMARK    5  A    between atoms: C_8  and  C_9
REMARK    6  A    between atoms: C_12  and  C_13
REMARK    7  A    between atoms: C_13  and  N_14
REMARK    8  A    between atoms: C_15  and  C_17
REMARK                            x       y       z     vdW  Elec       q    Type
REMARK                         _______ _______ _______ _____ _____    ______ ____
ROOT
ATOM      1  C   UNL     1      45.303   6.112  11.733  0.00  0.00    +0.000 A 
ATOM      2  C   UNL     1      46.355   5.554  12.464  0.00  0.00    +0.000 A 
ATOM      3  C   UNL     1      47.225   6.379  13.172  0.00  0.00    +0.000 A 
ATOM      4  C   UNL     1      47.043   7.757  13.113  0.00  0.00    +0.000 A 
ATOM      5  N   UNL     1      46.035   8.327  12.404  0.00  0.00    +0.000 NA
ATOM      6  C   UNL     1      45.199   7.500  11.735  0.00  0.00    +0.000 A 
ENDROOT
BRANCH   1   7
ATOM      7  C   UNL     1      44.302   5.255  11.008  0.00  0.00    +0.000 C 
BRANCH   7  11
ATOM      8  C   UNL     1      45.881   2.434   8.226  0.00  0.00    +0.000 A 
ATOM      9  C   UNL     1      45.990   3.792   7.928  0.00  0.00    +0.000 A 
ATOM     10  C   UNL     1      45.493   4.725   8.835  0.00  0.00    +0.000 A 
ATOM     11  C   UNL     1      44.886   4.289  10.014  0.00  0.00    +0.000 A 
ATOM     12  C   UNL     1      44.823   2.915  10.226  0.00  0.00    +0.000 A 
ATOM     13  N   UNL     1      45.299   1.986   9.366  0.00  0.00    +0.000 NA
BRANCH   8  14
ATOM     14  C   UNL     1      46.491   1.399   7.300  0.00  0.00    +0.000 C 
BRANCH  14  16
ATOM     15  C   UNL     1      48.183   2.218   5.771  0.00  0.00    +0.000 C 
ATOM     16  N   UNL     1      47.936   1.580   7.063  0.00  0.00    +0.000 NA
ATOM     17  H   UNL     1      48.302   2.185   7.796  0.00  0.00    +0.000 HD
ENDBRANCH  14  16
ENDBRANCH   8  14
ENDBRANCH   7  11
ENDBRANCH   1   7
BRANCH   4  18
ATOM     18  C   UNL     1      47.955   8.679  13.886  0.00  0.00    +0.000 C 
BRANCH  18  19
ATOM     19  N   UNL     1      47.825   8.503  15.315  0.00  0.00    +0.000 N 
ATOM     20  C   UNL     1      48.371   9.362  16.229  0.00  0.00    +0.000 C 
ATOM     21  O   UNL     1      49.025  10.347  15.892  0.00  0.00    +0.000 OA
ATOM     22  H   UNL     1      47.513   7.583  15.610  0.00  0.00    +0.000 HD
BRANCH  20  23
ATOM     23  C   UNL     1      48.066   9.090  17.642  0.00  0.00    +0.000 A 
ATOM     24  C   UNL     1      47.702  10.133  18.484  0.00  0.00    +0.000 A 
ATOM     25  S   UNL     1      47.298   9.630  20.063  0.00  0.00    +0.000 S 
ATOM     26  C   UNL     1      47.651   8.006  19.695  0.00  0.00    +0.000 A 
ATOM     27  N   UNL     1      47.522   7.030  20.634  0.00  0.00    +0.000 NA
ATOM     28  C   UNL     1      47.855   5.850  20.227  0.00  0.00    +0.000 A 
ATOM     29  N   UNL     1      48.303   5.558  18.967  0.00  0.00    +0.000 N 
ATOM     30  C   UNL     1      48.409   6.502  17.975  0.00  0.00    +0.000 A 
ATOM     31  O   UNL     1      48.754   6.191  16.840  0.00  0.00    +0.000 OA
ATOM     32  C   UNL     1      48.060   7.849  18.382  0.00  0.00    +0.000 A 
ATOM     33  H   UNL     1      48.541   4.612  18.704  0.00  0.00    +0.000 HD
ENDBRANCH  20  23
ENDBRANCH  18  19
ENDBRANCH   4  18
TORSDOF 7
ENDMDL
MODEL 6
REMARK VINA RESULT:    -6.922      3.647      5.118
REMARK INTER + INTRA:         -10.412
REMARK INTER:                  -9.166
REMARK INTRA:                  -1.246
REMARK UNBOUND:                -0.657
REMARK  Name = 
REMARK  8 active torsions:
REMARK  status: ('A' for Active; 'I' for Inactive)
REMARK    1  A    between atoms: C_1  and  N_2
REMARK    2  A    between atoms: N_2  and  C_3
REMARK    3  A    between atoms: C_3  and  C_4
REMARK    4  A    between atoms: C_7  and  C_8
REMARK    5  A    between atoms: C_8  and  C_9
REMARK    6  A    between atoms: C_12  and  C_13
REMARK    7  A    between atoms: C_13  and  N_14
REMARK    8  A    between atoms: C_15  and  C_17
REMARK                            x       y       z     vdW  Elec       q    Type
REMARK                         _______ _______ _______ _____ _____    ______ ____
ROOT
ATOM      1  C   UNL     1      45.825   5.926  12.859  0.00  0.00    +0.000 A 
ATOM      2  C   UNL     1      46.232   7.262  12.857  0.00  0.00    +0.000 A 
ATOM      3  C   UNL     1      47.363   7.646  13.574  0.00  0.00    +0.000 A 
ATOM      4  C   UNL     1      48.052   6.686  14.307  0.00  0.00    +0.000 A 
ATOM      5  N   UNL     1      47.673   5.382  14.335  0.00  0.00    +0.000 NA
ATOM      6  C   UNL     1      46.577   5.037  13.621  0.00  0.00    +0.000 A 
ENDROOT
BRANCH   1   7
ATOM      7  C   UNL     1      44.649   5.457  12.047  0.00  0.00    +0.000 C 
BRANCH   7  11
ATOM      8  C   UNL     1      45.708   3.789   8.268  0.00  0.00    +0.000 A 
ATOM      9  C   UNL     1      45.062   2.973   9.195  0.00  0.00    +0.000 A 
ATOM     10  C   UNL     1      44.696   3.509  10.428  0.00  0.00    +0.000 A 
ATOM     11  C   UNL     1      44.991   4.842  10.718  0.00  0.00    +0.000 A 
ATOM     12  C   UNL     1      45.637   5.579   9.731  0.00  0.00    +0.000 A 
ATOM     13  N   UNL     1      46.002   5.088   8.524  0.00  0.00    +0.000 NA
BRANCH   8  14
ATOM     14  C   UNL     1      46.040   3.258   6.885  0.00  0.00    +0.000 C 
BRANCH  14  16
ATOM     15  C   UNL     1      47.787   1.582   6.968  0.00  0.00    +0.000 C 
ATOM     16  N   UNL     1      47.474   2.979   6.676  0.00  0.00    +0.000 NA
ATOM     17  H   UNL     1      47.690   3.160   5.697  0.00  0.00    +0.000 HD
ENDBRANCH  14  16
ENDBRANCH   8  14
ENDBRANCH   7  11
ENDBRANCH   1   7
BRANCH   4  18
ATOM     18  C   UNL     1      49.294   7.064  15.078  0.00  0.00    +0.000 C 
BRANCH  18  19
ATOM     19  N   UNL     1      50.406   7.369  14.206  0.00  0.00    +0.000 N 
ATOM     20  C   UNL     1      50.911   8.631  14.048  0.00  0.00    +0.000 C 
ATOM     21  O   UNL     1      50.441   9.602  14.637  0.00  0.00    +0.000 OA
ATOM     22  H   UNL     1      50.641   6.644  13.536  0.00  0.00    +0.000 HD
BRANCH  20  23
ATOM     23  C   UNL     1      52.102   8.755  13.196  0.00  0.00    +0.000 A 
ATOM     24  C   UNL     1      53.252   9.353  13.695  0.00  0.00    +0.000 A 
ATOM     25  S   UNL     1      54.564   9.333  12.606  0.00  0.00    +0.000 S 
ATOM     26  C   UNL     1      53.626   8.575  11.404  0.00  0.00    +0.000 A 
ATOM     27  N   UNL     1      54.156   8.276  10.188  0.00  0.00    +0.000 NA
ATOM     28  C   UNL     1      53.323   7.733   9.362  0.00  0.00    +0.000 A 
ATOM     29  N   UNL     1      52.010   7.463   9.645  0.00  0.00    +0.000 N 
ATOM     30  C   UNL     1      51.445   7.709  10.871  0.00  0.00    +0.000 A 
ATOM     31  O   UNL     1      50.284   7.394  11.107  0.00  0.00    +0.000 OA
ATOM     32  C   UNL     1      52.334   8.330  11.834  0.00  0.00    +0.000 A 
ATOM     33  H   UNL     1      51.408   7.028   8.960  0.00  0.00    +0.000 HD
ENDBRANCH  20  23
ENDBRANCH  18  19
ENDBRANCH   4  18
TORSDOF 7
ENDMDL
MODEL 7
REMARK VINA RESULT:    -6.492      4.622      9.900
REMARK INTER + INTRA:          -9.805
REMARK INTER:                  -8.968
REMARK INTRA:                  -0.837
REMARK UNBOUND:                -0.657
REMARK  Name = 
REMARK  8 active torsions:
REMARK  status: ('A' for Active; 'I' for Inactive)
REMARK    1  A    between atoms: C_1  and  N_2
REMARK    2  A    between atoms: N_2  and  C_3
REMARK    3  A    between atoms: C_3  and  C_4
REMARK    4  A    between atoms: C_7  and  C_8
REMARK    5  A    between atoms: C_8  and  C_9
REMARK    6  A    between atoms: C_12  and  C_13
REMARK    7  A    between atoms: C_13  and  N_14
REMARK    8  A    between atoms: C_15  and  C_17
REMARK                            x       y       z     vdW  Elec       q    Type
REMARK                         _______ _______ _______ _____ _____    ______ ____
ROOT
ATOM      1  C   UNL     1      51.679   3.444  17.669  0.00  0.00    +0.000 A 
ATOM      2  C   UNL     1      50.988   2.276  17.338  0.00  0.00    +0.000 A 
ATOM      3  C   UNL     1      49.605   2.309  17.171  0.00  0.00    +0.000 A 
ATOM      4  C   UNL     1      48.933   3.511  17.366  0.00  0.00    +0.000 A 
ATOM      5  N   UNL     1      49.578   4.659  17.698  0.00  0.00    +0.000 NA
ATOM      6  C   UNL     1      50.921   4.599  17.843  0.00  0.00    +0.000 A 
ENDROOT
BRANCH   1   7
ATOM      7  C   UNL     1      53.177   3.467  17.796  0.00  0.00    +0.000 C 
BRANCH   7  11
ATOM      8  C   UNL     1      54.931  -0.218  19.034  0.00  0.00    +0.000 A 
ATOM      9  C   UNL     1      54.489  -0.103  17.717  0.00  0.00    +0.000 A 
ATOM     10  C   UNL     1      53.929   1.100  17.294  0.00  0.00    +0.000 A 
ATOM     11  C   UNL     1      53.808   2.161  18.193  0.00  0.00    +0.000 A 
ATOM     12  C   UNL     1      54.276   1.954  19.486  0.00  0.00    +0.000 A 
ATOM     13  N   UNL     1      54.827   0.799  19.925  0.00  0.00    +0.000 NA
BRANCH   8  14
ATOM     14  C   UNL     1      55.625  -1.485  19.498  0.00  0.00    +0.000 C 
BRANCH  14  16
ATOM     15  C   UNL     1      54.322  -3.364  20.299  0.00  0.00    +0.000 C 
ATOM     16  N   UNL     1      54.995  -2.121  20.671  0.00  0.00    +0.000 NA
ATOM     17  H   UNL     1      55.729  -2.340  21.342  0.00  0.00    +0.000 HD
ENDBRANCH  14  16
ENDBRANCH   8  14
ENDBRANCH   7  11
ENDBRANCH   1   7
BRANCH   4  18
ATOM     18  C   UNL     1      47.437   3.586  17.173  0.00  0.00    +0.000 C 
BRANCH  18  19
ATOM     19  N   UNL     1      47.070   4.503  16.117  0.00  0.00    +0.000 N 
ATOM     20  C   UNL     1      47.069   4.161  14.793  0.00  0.00    +0.000 C 
ATOM     21  O   UNL     1      47.393   3.039  14.406  0.00  0.00    +0.000 OA
ATOM     22  H   UNL     1      47.044   5.482  16.385  0.00  0.00    +0.000 HD
BRANCH  20  23
ATOM     23  C   UNL     1      46.579   5.182  13.855  0.00  0.00    +0.000 A 
ATOM     24  C   UNL     1      45.365   5.002  13.206  0.00  0.00    +0.000 A 
ATOM     25  S   UNL     1      44.908   6.321  12.226  0.00  0.00    +0.000 S 
ATOM     26  C   UNL     1      46.346   7.158  12.587  0.00  0.00    +0.000 A 
ATOM     27  N   UNL     1      46.598   8.381  12.049  0.00  0.00    +0.000 NA
ATOM     28  C   UNL     1      47.740   8.885  12.382  0.00  0.00    +0.000 A 
ATOM     29  N   UNL     1      48.650   8.277  13.205  0.00  0.00    +0.000 N 
ATOM     30  C   UNL     1      48.421   7.063  13.804  0.00  0.00    +0.000 A 
ATOM     31  O   UNL     1      49.232   6.579  14.585  0.00  0.00    +0.000 OA
ATOM     32  C   UNL     1      47.156   6.445  13.453  0.00  0.00    +0.000 A 
ATOM     33  H   UNL     1      49.525   8.726  13.437  0.00  0.00    +0.000 HD
ENDBRANCH  20  23
ENDBRANCH  18  19
ENDBRANCH   4  18
TORSDOF 7
ENDMDL
MODEL 8
REMARK VINA RESULT:    -6.376      4.968      7.603
REMARK INTER + INTRA:          -9.642
REMARK INTER:                  -8.626
REMARK INTRA:                  -1.015
REMARK UNBOUND:                -0.657
REMARK  Name = 
REMARK  8 active torsions:
REMARK  status: ('A' for Active; 'I' for Inactive)
REMARK    1  A    between atoms: C_1  and  N_2
REMARK    2  A    between atoms: N_2  and  C_3
REMARK    3  A    between atoms: C_3  and  C_4
REMARK    4  A    between atoms: C_7  and  C_8
REMARK    5  A    between atoms: C_8  and  C_9
REMARK    6  A    between atoms: C_12  and  C_13
REMARK    7  A    between atoms: C_13  and  N_14
REMARK    8  A    between atoms: C_15  and  C_17
REMARK                            x       y       z     vdW  Elec       q    Type
REMARK                         _______ _______ _______ _____ _____    ______ ____
ROOT
ATOM      1  C   UNL     1      50.818   8.655  11.880  0.00  0.00    +0.000 A 
ATOM      2  C   UNL     1      50.210   7.402  11.986  0.00  0.00    +0.000 A 
ATOM      3  C   UNL     1      48.828   7.310  12.134  0.00  0.00    +0.000 A 
ATOM      4  C   UNL     1      48.080   8.481  12.202  0.00  0.00    +0.000 A 
ATOM      5  N   UNL     1      48.646   9.712  12.111  0.00  0.00    +0.000 NA
ATOM      6  C   UNL     1      49.989   9.769  11.957  0.00  0.00    +0.000 A 
ENDROOT
BRANCH   1   7
ATOM      7  C   UNL     1      52.299   8.797  11.654  0.00  0.00    +0.000 C 
BRANCH   7  11
ATOM      8  C   UNL     1      53.840   6.634   8.317  0.00  0.00    +0.000 A 
ATOM      9  C   UNL     1      52.970   7.696   8.075  0.00  0.00    +0.000 A 
ATOM     10  C   UNL     1      52.471   8.422   9.154  0.00  0.00    +0.000 A 
ATOM     11  C   UNL     1      52.838   8.068  10.455  0.00  0.00    +0.000 A 
ATOM     12  C   UNL     1      53.711   6.995  10.599  0.00  0.00    +0.000 A 
ATOM     13  N   UNL     1      54.214   6.274   9.570  0.00  0.00    +0.000 NA
BRANCH   8  14
ATOM     14  C   UNL     1      54.467   5.882   7.159  0.00  0.00    +0.000 C 
BRANCH  14  16
ATOM     15  C   UNL     1      53.817   3.631   6.544  0.00  0.00    +0.000 C 
ATOM     16  N   UNL     1      53.516   5.053   6.393  0.00  0.00    +0.000 NA
ATOM     17  H   UNL     1      52.583   5.225   6.761  0.00  0.00    +0.000 HD
ENDBRANCH  14  16
ENDBRANCH   8  14
ENDBRANCH   7  11
ENDBRANCH   1   7
BRANCH   4  18
ATOM     18  C   UNL     1      46.577   8.417  12.341  0.00  0.00    +0.000 C 
BRANCH  18  19
ATOM     19  N   UNL     1      46.073   7.069  12.201  0.00  0.00    +0.000 N 
ATOM     20  C   UNL     1      44.879   6.773  11.604  0.00  0.00    +0.000 C 
ATOM     21  O   UNL     1      44.141   7.644  11.149  0.00  0.00    +0.000 OA
ATOM     22  H   UNL     1      46.535   6.374  12.780  0.00  0.00    +0.000 HD
BRANCH  20  23
ATOM     23  C   UNL     1      44.558   5.345  11.461  0.00  0.00    +0.000 A 
ATOM     24  C   UNL     1      43.872   4.684  12.471  0.00  0.00    +0.000 A 
ATOM     25  S   UNL     1      43.504   3.060  12.103  0.00  0.00    +0.000 S 
ATOM     26  C   UNL     1      44.300   3.163  10.601  0.00  0.00    +0.000 A 
ATOM     27  N   UNL     1      44.368   2.090   9.769  0.00  0.00    +0.000 NA
ATOM     28  C   UNL     1      45.029   2.300   8.679  0.00  0.00    +0.000 A 
ATOM     29  N   UNL     1      45.627   3.487   8.348  0.00  0.00    +0.000 N 
ATOM     30  C   UNL     1      45.550   4.608   9.136  0.00  0.00    +0.000 A 
ATOM     31  O   UNL     1      46.044   5.670   8.776  0.00  0.00    +0.000 OA
ATOM     32  C   UNL     1      44.828   4.424  10.380  0.00  0.00    +0.000 A 
ATOM     33  H   UNL     1      46.125   3.594   7.475  0.00  0.00    +0.000 HD
ENDBRANCH  20  23
ENDBRANCH  18  19
ENDBRANCH   4  18
TORSDOF 7
ENDMDL
MODEL 9
REMARK VINA RESULT:    -6.327      3.308      5.001
REMARK INTER + INTRA:          -9.574
REMARK INTER:                  -8.608
REMARK INTRA:                  -0.966
REMARK UNBOUND:                -0.657
REMARK  Name = 
REMARK  8 active torsions:
REMARK  status: ('A' for Active; 'I' for Inactive)
REMARK    1  A    between atoms: C_1  and  N_2
REMARK    2  A    between atoms: N_2  and  C_3
REMARK    3  A    between atoms: C_3  and  C_4
REMARK    4  A    between atoms: C_7  and  C_8
REMARK    5  A    between atoms: C_8  and  C_9
REMARK    6  A    between atoms: C_12  and  C_13
REMARK    7  A    between atoms: C_13  and  N_14
REMARK    8  A    between atoms: C_15  and  C_17
REMARK                            x       y       z     vdW  Elec       q    Type
REMARK                         _______ _______ _______ _____ _____    ______ ____
ROOT
ATOM      1  C   UNL     1      48.023   7.856  14.086  0.00  0.00    +0.000 A 
ATOM      2  C   UNL     1      48.250   6.527  14.455  0.00  0.00    +0.000 A 
ATOM      3  C   UNL     1      48.637   6.223  15.758  0.00  0.00    +0.000 A 
ATOM      4  C   UNL     1      48.819   7.262  16.665  0.00  0.00    +0.000 A 
ATOM      5  N   UNL     1      48.616   8.562  16.331  0.00  0.00    +0.000 NA
ATOM      6  C   UNL     1      48.229   8.826  15.062  0.00  0.00    +0.000 A 
ENDROOT
BRANCH   1   7
ATOM      7  C   UNL     1      47.541   8.222  12.709  0.00  0.00    +0.000 C 
BRANCH   7  11
ATOM      8  C   UNL     1      44.477   5.722  11.113  0.00  0.00    +0.000 A 
ATOM      9  C   UNL     1      45.745   5.667  10.537  0.00  0.00    +0.000 A 
ATOM     10  C   UNL     1      46.760   6.466  11.058  0.00  0.00    +0.000 A 
ATOM     11  C   UNL     1      46.490   7.314  12.134  0.00  0.00    +0.000 A 
ATOM     12  C   UNL     1      45.196   7.301  12.643  0.00  0.00    +0.000 A 
ATOM     13  N   UNL     1      44.190   6.535  12.161  0.00  0.00    +0.000 NA
BRANCH   8  14
ATOM     14  C   UNL     1      43.376   4.800  10.624  0.00  0.00    +0.000 C 
BRANCH  14  16
ATOM     15  C   UNL     1      43.660   2.950  12.163  0.00  0.00    +0.000 C 
ATOM     16  N   UNL     1      42.751   3.992  11.689  0.00  0.00    +0.000 NA
ATOM     17  H   UNL     1      42.536   4.611  12.468  0.00  0.00    +0.000 HD
ENDBRANCH  14  16
ENDBRANCH   8  14
ENDBRANCH   7  11
ENDBRANCH   1   7
BRANCH   4  18
ATOM     18  C   UNL     1      49.218   6.966  18.091  0.00  0.00    +0.000 C 
BRANCH  18  19
ATOM     19  N   UNL     1      50.160   5.872  18.178  0.00  0.00    +0.000 N 
ATOM     20  C   UNL     1      51.490   6.004  17.885  0.00  0.00    +0.000 C 
ATOM     21  O   UNL     1      51.977   7.071  17.516  0.00  0.00    +0.000 OA
ATOM     22  H   UNL     1      49.745   4.948  18.235  0.00  0.00    +0.000 HD
BRANCH  20  23
ATOM     23  C   UNL     1      52.329   4.818  18.115  0.00  0.00    +0.000 A 
ATOM     24  C   UNL     1      53.620   4.966  18.603  0.00  0.00    +0.000 A 
ATOM     25  S   UNL     1      54.418   3.488  18.894  0.00  0.00    +0.000 S 
ATOM     26  C   UNL     1      53.087   2.594  18.323  0.00  0.00    +0.000 A 
ATOM     27  N   UNL     1      53.118   1.234  18.290  0.00  0.00    +0.000 NA
ATOM     28  C   UNL     1      52.053   0.688  17.803  0.00  0.00    +0.000 A 
ATOM     29  N   UNL     1      50.961   1.378  17.348  0.00  0.00    +0.000 N 
ATOM     30  C   UNL     1      50.869   2.747  17.400  0.00  0.00    +0.000 A 
ATOM     31  O   UNL     1      49.850   3.326  17.042  0.00  0.00    +0.000 OA
ATOM     32  C   UNL     1      52.044   3.413  17.928  0.00  0.00    +0.000 A 
ATOM     33  H   UNL     1      50.153   0.894  16.984  0.00  0.00    +0.000 HD
ENDBRANCH  20  23
ENDBRANCH  18  19
ENDBRANCH   4  18
TORSDOF 7
ENDMDL
