MODEL 1
REMARK VINA RESULT:    -8.673      0.000      0.000
REMARK INTER + INTRA:         -12.247
REMARK INTER:                 -11.715
REMARK INTRA:                  -0.532
REMARK UNBOUND:                -0.532
REMARK  Name = 
REMARK  6 active torsions:
REMARK  status: ('A' for Active; 'I' for Inactive)
REMARK    1  A    between atoms: C_2  and  O_3
REMARK    2  A    between atoms: C_2  and  C_18
REMARK    3  A    between atoms: O_3  and  C_4
REMARK    4  A    between atoms: C_4  and  C_5
REMARK    5  A    between atoms: C_8  and  C_9
REMARK    6  A    between atoms: C_9  and  C_10
REMARK                            x       y       z     vdW  Elec       q    Type
REMARK                         _______ _______ _______ _____ _____    ______ ____
ROOT
ATOM      1  C   UNL     1      47.099   5.102  14.545  0.00  0.00    +0.000 C 
ENDROOT
BRANCH   1   2
ATOM      2  C   UNL     1      46.407   4.833  13.239  0.00  0.00    +0.000 A 
ATOM      3  C   UNL     1      46.305   5.803  12.239  0.00  0.00    +0.000 A 
ATOM      4  C   UNL     1      45.626   5.512  11.054  0.00  0.00    +0.000 A 
ATOM      5  C   UNL     1      45.069   4.248  10.894  0.00  0.00    +0.000 A 
ATOM      6  N   UNL     1      45.181   3.285  11.840  0.00  0.00    +0.000 NA
ATOM      7  C   UNL     1      45.833   3.597  12.982  0.00  0.00    +0.000 A 
BRANCH   5   8
ATOM      8  C   UNL     1      44.191   3.908   9.721  0.00  0.00    +0.000 C 
BRANCH   8   9
ATOM      9  C   UNL     1      44.823   3.162   8.532  0.00  0.00    +0.000 C 
ATOM     10  C   UNL     1      45.890   3.985   7.790  0.00  0.00    +0.000 C 
ATOM     11  C   UNL     1      46.653   3.117   6.787  0.00  0.00    +0.000 C 
ATOM     12  C   UNL     1      47.207   1.858   7.447  0.00  0.00    +0.000 C 
ATOM     13  N   UNL     1      46.131   1.080   8.058  0.00  0.00    +0.000 NA
ATOM     14  C   UNL     1      45.443   1.862   9.083  0.00  0.00    +0.000 C 
ATOM     15  H   UNL     1      46.529   0.245   8.490  0.00  0.00    +0.000 HD
ENDBRANCH   8   9
ENDBRANCH   5   8
ENDBRANCH   1   2
BRANCH   1  16
ATOM     16  O   UNL     1      47.628   3.895  15.107  0.00  0.00    +0.000 OA
BRANCH  16  18
ATOM     17  O   UNL     1      46.402   3.330  16.951  0.00  0.00    +0.000 OA
ATOM     18  C   UNL     1      47.442   3.732  16.442  0.00  0.00    +0.000 C 
BRANCH  18  19
ATOM     19  C   UNL     1      48.582   4.183  17.237  0.00  0.00    +0.000 A 
ATOM     20  C   UNL     1      48.506   5.349  17.983  0.00  0.00    +0.000 A 
ATOM     21  S   UNL     1      49.963   5.733  18.785  0.00  0.00    +0.000 S 
ATOM     22  C   UNL     1      50.713   4.313  18.222  0.00  0.00    +0.000 A 
ATOM     23  N   UNL     1      51.986   4.004  18.588  0.00  0.00    +0.000 NA
ATOM     24  C   UNL     1      52.408   2.869  18.138  0.00  0.00    +0.000 A 
ATOM     25  N   UNL     1      51.677   2.024  17.343  0.00  0.00    +0.000 N 
ATOM     26  C   UNL     1      50.395   2.297  16.932  0.00  0.00    +0.000 A 
ATOM     27  O   UNL     1      49.775   1.499  16.240  0.00  0.00    +0.000 OA
ATOM     28  C   UNL     1      49.871   3.566  17.416  0.00  0.00    +0.000 A 
ATOM     29  H   UNL     1      52.057   1.138  17.042  0.00  0.00    +0.000 HD
ENDBRANCH  18  19
ENDBRANCH  16  18
ENDBRANCH   1  16
TORSDOF 6
ENDMDL
MODEL 2
REMARK VINA RESULT:    -7.649      1.817      2.413
REMARK INTER + INTRA:         -10.864
REMARK INTER:                 -10.557
REMARK INTRA:                  -0.306
REMARK UNBOUND:                -0.532
REMARK  Name = 
REMARK  6 active torsions:
REMARK  status: ('A' for Active; 'I' for Inactive)
REMARK    1  A    between atoms: C_2  and  O_3
REMARK    2  A    between atoms: C_2  and  C_18
REMARK    3  A    between atoms: O_3  and  C_4
REMARK    4  A    between atoms: C_4  and  C_5
REMARK    5  A    between atoms: C_8  and  C_9
REMARK    6  A    between atoms: C_9  and  C_10
REMARK                            x       y       z     vdW  Elec       q    Type
REMARK                         _______ _______ _______ _____ _____    ______ ____
ROOT
ATOM      1  C   UNL     1      46.165   5.432  13.815  0.00  0.00    +0.000 C 
ENDROOT
BRANCH   1   2
ATOM      2  C   UNL     1      45.795   5.075  12.404  0.00  0.00    +0.000 A 
ATOM      3  C   UNL     1      46.132   5.886  11.319  0.00  0.00    +0.000 A 
ATOM      4  C   UNL     1      45.740   5.523  10.029  0.00  0.00    +0.000 A 
ATOM      5  C   UNL     1      45.020   4.346   9.853  0.00  0.00    +0.000 A 
ATOM      6  N   UNL     1      44.707   3.532  10.889  0.00  0.00    +0.000 NA
ATOM      7  C   UNL     1      45.089   3.912  12.128  0.00  0.00    +0.000 A 
BRANCH   5   8
ATOM      8  C   UNL     1      44.427   3.967   8.525  0.00  0.00    +0.000 C 
BRANCH   8   9
ATOM      9  C   UNL     1      45.187   2.951   7.652  0.00  0.00    +0.000 C 
ATOM     10  C   UNL     1      46.354   3.572   6.866  0.00  0.00    +0.000 C 
ATOM     11  C   UNL     1      47.218   2.487   6.219  0.00  0.00    +0.000 C 
ATOM     12  C   UNL     1      47.661   1.444   7.240  0.00  0.00    +0.000 C 
ATOM     13  N   UNL     1      46.503   0.833   7.889  0.00  0.00    +0.000 NA
ATOM     14  C   UNL     1      45.708   1.841   8.588  0.00  0.00    +0.000 C 
ATOM     15  H   UNL     1      46.827   0.140   8.565  0.00  0.00    +0.000 HD
ENDBRANCH   8   9
ENDBRANCH   5   8
ENDBRANCH   1   2
BRANCH   1  16
ATOM     16  O   UNL     1      46.947   6.632  13.855  0.00  0.00    +0.000 OA
BRANCH  16  18
ATOM     17  O   UNL     1      49.146   6.217  13.387  0.00  0.00    +0.000 OA
ATOM     18  C   UNL     1      48.254   6.476  14.188  0.00  0.00    +0.000 C 
BRANCH  18  19
ATOM     19  C   UNL     1      48.489   6.546  15.628  0.00  0.00    +0.000 A 
ATOM     20  C   UNL     1      48.721   7.764  16.249  0.00  0.00    +0.000 A 
ATOM     21  S   UNL     1      49.036   7.621  17.919  0.00  0.00    +0.000 S 
ATOM     22  C   UNL     1      48.795   5.937  17.878  0.00  0.00    +0.000 A 
ATOM     23  N   UNL     1      48.875   5.193  19.014  0.00  0.00    +0.000 NA
ATOM     24  C   UNL     1      48.610   3.940  18.848  0.00  0.00    +0.000 A 
ATOM     25  N   UNL     1      48.289   3.362  17.647  0.00  0.00    +0.000 N 
ATOM     26  C   UNL     1      48.212   4.066  16.469  0.00  0.00    +0.000 A 
ATOM     27  O   UNL     1      47.898   3.508  15.425  0.00  0.00    +0.000 OA
ATOM     28  C   UNL     1      48.499   5.487  16.604  0.00  0.00    +0.000 A 
ATOM     29  H   UNL     1      48.070   2.378  17.587  0.00  0.00    +0.000 HD
ENDBRANCH  18  19
ENDBRANCH  16  18
ENDBRANCH   1  16
TORSDOF 6
ENDMDL
MODEL 3
REMARK VINA RESULT:    -7.611      2.346      3.147
REMARK INTER + INTRA:         -10.813
REMARK INTER:                  -9.833
REMARK INTRA:                  -0.980
REMARK UNBOUND:                -0.532
REMARK  Name = 
REMARK  6 active torsions:
REMARK  status: ('A' for Active; 'I' for Inactive)
REMARK    1  A    between atoms: C_2  and  O_3
REMARK    2  A    between atoms: C_2  and  C_18
REMARK    3  A    between atoms: O_3  and  C_4
REMARK    4  A    between atoms: C_4  and  C_5
REMARK    5  A    between atoms: C_8  and  C_9
REMARK    6  A    between atoms: C_9  and  C_10
REMARK                            x       y       z     vdW  Elec       q    Type
REMARK                         _______ _______ _______ _____ _____    ______ ____
ROOT
ATOM      1  C   UNL     1      45.880   7.047  13.348  0.00  0.00    +0.000 C 
ENDROOT
BRANCH   1   2
ATOM      2  C   UNL     1      45.504   6.100  12.246  0.00  0.00    +0.000 A 
ATOM      3  C   UNL     1      44.718   4.968  12.474  0.00  0.00    +0.000 A 
ATOM      4  C   UNL     1      44.420   4.102  11.420  0.00  0.00    +0.000 A 
ATOM      5  C   UNL     1      44.912   4.394  10.153  0.00  0.00    +0.000 A 
ATOM      6  N   UNL     1      45.653   5.501   9.905  0.00  0.00    +0.000 NA
ATOM      7  C   UNL     1      45.937   6.316  10.945  0.00  0.00    +0.000 A 
BRANCH   5   8
ATOM      8  C   UNL     1      44.770   3.435   9.003  0.00  0.00    +0.000 C 
BRANCH   8   9
ATOM      9  C   UNL     1      46.050   2.816   8.411  0.00  0.00    +0.000 C 
ATOM     10  C   UNL     1      45.940   1.300   8.170  0.00  0.00    +0.000 C 
ATOM     11  C   UNL     1      47.133   0.787   7.360  0.00  0.00    +0.000 C 
ATOM     12  C   UNL     1      47.327   1.594   6.079  0.00  0.00    +0.000 C 
ATOM     13  N   UNL     1      47.509   3.011   6.386  0.00  0.00    +0.000 NA
ATOM     14  C   UNL     1      46.342   3.546   7.085  0.00  0.00    +0.000 C 
ATOM     15  H   UNL     1      47.637   3.526   5.514  0.00  0.00    +0.000 HD
ENDBRANCH   8   9
ENDBRANCH   5   8
ENDBRANCH   1   2
BRANCH   1  16
ATOM     16  O   UNL     1      47.230   7.504  13.198  0.00  0.00    +0.000 OA
BRANCH  16  18
ATOM     17  O   UNL     1      48.848   5.938  12.802  0.00  0.00    +0.000 OA
ATOM     18  C   UNL     1      48.197   6.630  13.578  0.00  0.00    +0.000 C 
BRANCH  18  19
ATOM     19  C   UNL     1      48.322   6.512  15.029  0.00  0.00    +0.000 A 
ATOM     20  C   UNL     1      48.747   7.589  15.792  0.00  0.00    +0.000 A 
ATOM     21  S   UNL     1      48.888   7.226  17.452  0.00  0.00    +0.000 S 
ATOM     22  C   UNL     1      48.312   5.643  17.213  0.00  0.00    +0.000 A 
ATOM     23  N   UNL     1      48.143   4.795  18.264  0.00  0.00    +0.000 NA
ATOM     24  C   UNL     1      47.642   3.648  17.945  0.00  0.00    +0.000 A 
ATOM     25  N   UNL     1      47.310   3.267  16.671  0.00  0.00    +0.000 N 
ATOM     26  C   UNL     1      47.475   4.080  15.575  0.00  0.00    +0.000 A 
ATOM     27  O   UNL     1      47.140   3.701  14.459  0.00  0.00    +0.000 OA
ATOM     28  C   UNL     1      48.035   5.387  15.881  0.00  0.00    +0.000 A 
ATOM     29  H   UNL     1      46.899   2.362  16.491  0.00  0.00    +0.000 HD
ENDBRANCH  18  19
ENDBRANCH  16  18
ENDBRANCH   1  16
TORSDOF 6
ENDMDL
MODEL 4
REMARK VINA RESULT:    -7.464      1.887      2.693
REMARK INTER + INTRA:         -10.615
REMARK INTER:                  -9.919
REMARK INTRA:                  -0.695
REMARK UNBOUND:                -0.532
REMARK  Name = 
REMARK  6 active torsions:
REMARK  status: ('A' for Active; 'I' for Inactive)
REMARK    1  A    between atoms: C_2  and  O_3
REMARK    2  A    between atoms: C_2  and  C_18
REMARK    3  A    between atoms: O_3  and  C_4
REMARK    4  A    between atoms: C_4  and  C_5
REMARK    5  A    between atoms: C_8  and  C_9
REMARK    6  A    between atoms: C_9  and  C_10
REMARK                            x       y       z     vdW  Elec       q    Type
REMARK                         _______ _______ _______ _____ _____    ______ ____
ROOT
ATOM      1  C   UNL     1      48.823   6.220  16.142  0.00  0.00    +0.000 C 
ENDROOT
BRANCH   1   2
ATOM      2  C   UNL     1      47.885   5.789  15.052  0.00  0.00    +0.000 A 
ATOM      3  C   UNL     1      47.700   6.540  13.889  0.00  0.00    +0.000 A 
ATOM      4  C   UNL     1      46.794   6.110  12.918  0.00  0.00    +0.000 A 
ATOM      5  C   UNL     1      46.094   4.928  13.132  0.00  0.00    +0.000 A 
ATOM      6  N   UNL     1      46.278   4.171  14.240  0.00  0.00    +0.000 NA
ATOM      7  C   UNL     1      47.152   4.616  15.169  0.00  0.00    +0.000 A 
BRANCH   5   8
ATOM      8  C   UNL     1      44.990   4.480  12.214  0.00  0.00    +0.000 C 
BRANCH   8   9
ATOM      9  C   UNL     1      45.374   3.935  10.826  0.00  0.00    +0.000 C 
ATOM     10  C   UNL     1      44.513   2.742  10.378  0.00  0.00    +0.000 C 
ATOM     11  C   UNL     1      44.768   2.404   8.907  0.00  0.00    +0.000 C 
ATOM     12  C   UNL     1      44.615   3.633   8.016  0.00  0.00    +0.000 C 
ATOM     13  N   UNL     1      45.521   4.697   8.445  0.00  0.00    +0.000 NA
ATOM     14  C   UNL     1      45.237   5.097   9.822  0.00  0.00    +0.000 C 
ATOM     15  H   UNL     1      45.398   5.504   7.833  0.00  0.00    +0.000 HD
ENDBRANCH   8   9
ENDBRANCH   5   8
ENDBRANCH   1   2
BRANCH   1  16
ATOM     16  O   UNL     1      49.719   5.161  16.501  0.00  0.00    +0.000 OA
BRANCH  16  18
ATOM     17  O   UNL     1      48.662   4.875  18.508  0.00  0.00    +0.000 OA
ATOM     18  C   UNL     1      49.644   4.733  17.788  0.00  0.00    +0.000 C 
BRANCH  18  19
ATOM     19  C   UNL     1      50.900   4.168  18.275  0.00  0.00    +0.000 A 
ATOM     20  C   UNL     1      51.684   4.863  19.183  0.00  0.00    +0.000 A 
ATOM     21  S   UNL     1      53.138   4.061  19.573  0.00  0.00    +0.000 S 
ATOM     22  C   UNL     1      52.728   2.725  18.602  0.00  0.00    +0.000 A 
ATOM     23  N   UNL     1      53.544   1.639  18.527  0.00  0.00    +0.000 NA
ATOM     24  C   UNL     1      53.081   0.675  17.802  0.00  0.00    +0.000 A 
ATOM     25  N   UNL     1      51.885   0.706  17.134  0.00  0.00    +0.000 N 
ATOM     26  C   UNL     1      51.032   1.784  17.164  0.00  0.00    +0.000 A 
ATOM     27  O   UNL     1      49.963   1.753  16.568  0.00  0.00    +0.000 OA
ATOM     28  C   UNL     1      51.508   2.897  17.971  0.00  0.00    +0.000 A 
ATOM     29  H   UNL     1      51.568  -0.091  16.601  0.00  0.00    +0.000 HD
ENDBRANCH  18  19
ENDBRANCH  16  18
ENDBRANCH   1  16
TORSDOF 6
ENDMDL
MODEL 5
REMARK VINA RESULT:    -7.276      2.250      2.888
REMARK INTER + INTRA:         -10.360
REMARK INTER:                  -9.683
REMARK INTRA:                  -0.677
REMARK UNBOUND:                -0.532
REMARK  Name = 
REMARK  6 active torsions:
REMARK  status: ('A' for Active; 'I' for Inactive)
REMARK    1  A    between atoms: C_2  and  O_3
REMARK    2  A    between atoms: C_2  and  C_18
REMARK    3  A    between atoms: O_3  and  C_4
REMARK    4  A    between atoms: C_4  and  C_5
REMARK    5  A    between atoms: C_8  and  C_9
REMARK    6  A    between atoms: C_9  and  C_10
REMARK                            x       y       z     vdW  Elec       q    Type
REMARK                         _______ _______ _______ _____ _____    ______ ____
ROOT
ATOM      1  C   UNL     1      48.625   6.814  14.107  0.00  0.00    +0.000 C 
ENDROOT
BRANCH   1   2
ATOM      2  C   UNL     1      47.488   6.405  13.215  0.00  0.00    +0.000 A 
ATOM      3  C   UNL     1      46.994   7.240  12.210  0.00  0.00    +0.000 A 
ATOM      4  C   UNL     1      45.916   6.824  11.427  0.00  0.00    +0.000 A 
ATOM      5  C   UNL     1      45.357   5.573  11.664  0.00  0.00    +0.000 A 
ATOM      6  N   UNL     1      45.839   4.738  12.616  0.00  0.00    +0.000 NA
ATOM      7  C   UNL     1      46.876   5.169  13.367  0.00  0.00    +0.000 A 
BRANCH   5   8
ATOM      8  C   UNL     1      44.100   5.118  10.975  0.00  0.00    +0.000 C 
BRANCH   8   9
ATOM      9  C   UNL     1      44.235   4.177   9.763  0.00  0.00    +0.000 C 
ATOM     10  C   UNL     1      45.456   4.488   8.880  0.00  0.00    +0.000 C 
ATOM     11  C   UNL     1      45.680   3.382   7.846  0.00  0.00    +0.000 C 
ATOM     12  C   UNL     1      45.741   2.007   8.504  0.00  0.00    +0.000 C 
ATOM     13  N   UNL     1      44.517   1.741   9.257  0.00  0.00    +0.000 NA
ATOM     14  C   UNL     1      44.327   2.737  10.309  0.00  0.00    +0.000 C 
ATOM     15  H   UNL     1      44.584   0.817   9.684  0.00  0.00    +0.000 HD
ENDBRANCH   8   9
ENDBRANCH   5   8
ENDBRANCH   1   2
BRANCH   1  16
ATOM     16  O   UNL     1      48.578   6.114  15.356  0.00  0.00    +0.000 OA
BRANCH  16  18
ATOM     17  O   UNL     1      50.766   6.347  15.978  0.00  0.00    +0.000 OA
ATOM     18  C   UNL     1      49.569   6.408  16.237  0.00  0.00    +0.000 C 
BRANCH  18  19
ATOM     19  C   UNL     1      49.071   6.712  17.577  0.00  0.00    +0.000 A 
ATOM     20  C   UNL     1      48.694   8.002  17.916  0.00  0.00    +0.000 A 
ATOM     21  S   UNL     1      48.204   8.156  19.543  0.00  0.00    +0.000 S 
ATOM     22  C   UNL     1      48.406   6.490  19.821  0.00  0.00    +0.000 A 
ATOM     23  N   UNL     1      48.107   5.942  21.030  0.00  0.00    +0.000 NA
ATOM     24  C   UNL     1      48.250   4.660  21.082  0.00  0.00    +0.000 A 
ATOM     25  N   UNL     1      48.679   3.878  20.041  0.00  0.00    +0.000 N 
ATOM     26  C   UNL     1      49.008   4.384  18.806  0.00  0.00    +0.000 A 
ATOM     27  O   UNL     1      49.365   3.640  17.900  0.00  0.00    +0.000 OA
ATOM     28  C   UNL     1      48.861   5.827  18.694  0.00  0.00    +0.000 A 
ATOM     29  H   UNL     1      48.747   2.876  20.139  0.00  0.00    +0.000 HD
ENDBRANCH  18  19
ENDBRANCH  16  18
ENDBRANCH   1  16
TORSDOF 6
ENDMDL
MODEL 6
REMARK VINA RESULT:    -7.267      3.171      8.666
REMARK INTER + INTRA:         -10.348
REMARK INTER:                  -9.545
REMARK INTRA:                  -0.803
REMARK UNBOUND:                -0.532
REMARK  Name = 
REMARK  6 active torsions:
REMARK  status: ('A' for Active; 'I' for Inactive)
REMARK    1  A    between atoms: C_2  and  O_3
REMARK    2  A    between atoms: C_2  and  C_18
REMARK    3  A    between atoms: O_3  and  C_4
REMARK    4  A    between atoms: C_4  and  C_5
REMARK    5  A    between atoms: C_8  and  C_9
REMARK    6  A    between atoms: C_9  and  C_10
REMARK                            x       y       z     vdW  Elec       q    Type
REMARK                         _______ _______ _______ _____ _____    ______ ____
ROOT
ATOM      1  C   UNL     1      47.359   7.464  12.707  0.00  0.00    +0.000 C 
ENDROOT
BRANCH   1   2
ATOM      2  C   UNL     1      47.818   6.812  13.979  0.00  0.00    +0.000 A 
ATOM      3  C   UNL     1      48.654   7.463  14.890  0.00  0.00    +0.000 A 
ATOM      4  C   UNL     1      49.076   6.801  16.045  0.00  0.00    +0.000 A 
ATOM      5  C   UNL     1      48.644   5.499  16.267  0.00  0.00    +0.000 A 
ATOM      6  N   UNL     1      47.811   4.859  15.410  0.00  0.00    +0.000 NA
ATOM      7  C   UNL     1      47.427   5.518  14.295  0.00  0.00    +0.000 A 
BRANCH   5   8
ATOM      8  C   UNL     1      49.177   4.665  17.400  0.00  0.00    +0.000 C 
BRANCH   8   9
ATOM      9  C   UNL     1      50.364   3.727  17.116  0.00  0.00    +0.000 C 
ATOM     10  C   UNL     1      51.468   3.798  18.185  0.00  0.00    +0.000 C 
ATOM     11  C   UNL     1      52.494   2.679  17.988  0.00  0.00    +0.000 C 
ATOM     12  C   UNL     1      51.820   1.313  17.901  0.00  0.00    +0.000 C 
ATOM     13  N   UNL     1      50.844   1.288  16.813  0.00  0.00    +0.000 NA
ATOM     14  C   UNL     1      49.804   2.293  17.025  0.00  0.00    +0.000 C 
ATOM     15  H   UNL     1      50.411   0.365  16.777  0.00  0.00    +0.000 HD
ENDBRANCH   8   9
ENDBRANCH   5   8
ENDBRANCH   1   2
BRANCH   1  16
ATOM     16  O   UNL     1      46.830   6.497  11.793  0.00  0.00    +0.000 OA
BRANCH  16  18
ATOM     17  O   UNL     1      44.858   7.628  11.552  0.00  0.00    +0.000 OA
ATOM     18  C   UNL     1      45.497   6.582  11.547  0.00  0.00    +0.000 C 
BRANCH  18  19
ATOM     19  C   UNL     1      44.865   5.276  11.372  0.00  0.00    +0.000 A 
ATOM     20  C   UNL     1      44.036   4.754  12.354  0.00  0.00    +0.000 A 
ATOM     21  S   UNL     1      43.453   3.194  11.986  0.00  0.00    +0.000 S 
ATOM     22  C   UNL     1      44.226   3.201  10.470  0.00  0.00    +0.000 A 
ATOM     23  N   UNL     1      44.090   2.154   9.612  0.00  0.00    +0.000 NA
ATOM     24  C   UNL     1      44.680   2.319   8.474  0.00  0.00    +0.000 A 
ATOM     25  N   UNL     1      45.405   3.429   8.124  0.00  0.00    +0.000 N 
ATOM     26  C   UNL     1      45.585   4.505   8.960  0.00  0.00    +0.000 A 
ATOM     27  O   UNL     1      46.224   5.483   8.591  0.00  0.00    +0.000 OA
ATOM     28  C   UNL     1      44.937   4.369  10.255  0.00  0.00    +0.000 A 
ATOM     29  H   UNL     1      45.824   3.507   7.209  0.00  0.00    +0.000 HD
ENDBRANCH  18  19
ENDBRANCH  16  18
ENDBRANCH   1  16
TORSDOF 6
ENDMDL
MODEL 7
REMARK VINA RESULT:    -7.092      2.970      3.996
REMARK INTER + INTRA:         -10.112
REMARK INTER:                  -9.485
REMARK INTRA:                  -0.627
REMARK UNBOUND:                -0.532
REMARK  Name = 
REMARK  6 active torsions:
REMARK  status: ('A' for Active; 'I' for Inactive)
REMARK    1  A    between atoms: C_2  and  O_3
REMARK    2  A    between atoms: C_2  and  C_18
REMARK    3  A    between atoms: O_3  and  C_4
REMARK    4  A    between atoms: C_4  and  C_5
REMARK    5  A    between atoms: C_8  and  C_9
REMARK    6  A    between atoms: C_9  and  C_10
REMARK                            x       y       z     vdW  Elec       q    Type
REMARK                         _______ _______ _______ _____ _____    ______ ____
ROOT
ATOM      1  C   UNL     1      48.334   6.457  14.374  0.00  0.00    +0.000 C 
ENDROOT
BRANCH   1   2
ATOM      2  C   UNL     1      47.291   6.088  13.358  0.00  0.00    +0.000 A 
ATOM      3  C   UNL     1      47.115   6.812  12.177  0.00  0.00    +0.000 A 
ATOM      4  C   UNL     1      46.112   6.444  11.278  0.00  0.00    +0.000 A 
ATOM      5  C   UNL     1      45.308   5.351  11.581  0.00  0.00    +0.000 A 
ATOM      6  N   UNL     1      45.480   4.620  12.708  0.00  0.00    +0.000 NA
ATOM      7  C   UNL     1      46.451   5.003  13.566  0.00  0.00    +0.000 A 
BRANCH   5   8
ATOM      8  C   UNL     1      44.109   4.988  10.747  0.00  0.00    +0.000 C 
BRANCH   8   9
ATOM      9  C   UNL     1      44.314   4.032   9.557  0.00  0.00    +0.000 C 
ATOM     10  C   UNL     1      45.526   4.394   8.683  0.00  0.00    +0.000 C 
ATOM     11  C   UNL     1      45.826   3.282   7.675  0.00  0.00    +0.000 C 
ATOM     12  C   UNL     1      45.957   1.926   8.363  0.00  0.00    +0.000 C 
ATOM     13  N   UNL     1      44.739   1.606   9.106  0.00  0.00    +0.000 NA
ATOM     14  C   UNL     1      44.479   2.611  10.134  0.00  0.00    +0.000 C 
ATOM     15  H   UNL     1      44.853   0.696   9.554  0.00  0.00    +0.000 HD
ENDBRANCH   8   9
ENDBRANCH   5   8
ENDBRANCH   1   2
BRANCH   1  16
ATOM     16  O   UNL     1      48.241   5.624  15.535  0.00  0.00    +0.000 OA
BRANCH  16  18
ATOM     17  O   UNL     1      50.355   5.640  16.407  0.00  0.00    +0.000 OA
ATOM     18  C   UNL     1      49.154   5.864  16.511  0.00  0.00    +0.000 C 
BRANCH  18  19
ATOM     19  C   UNL     1      48.548   6.330  17.757  0.00  0.00    +0.000 A 
ATOM     20  C   UNL     1      48.262   5.439  18.780  0.00  0.00    +0.000 A 
ATOM     21  S   UNL     1      47.499   6.171  20.119  0.00  0.00    +0.000 S 
ATOM     22  C   UNL     1      47.598   7.713  19.404  0.00  0.00    +0.000 A 
ATOM     23  N   UNL     1      47.154   8.817  20.062  0.00  0.00    +0.000 NA
ATOM     24  C   UNL     1      47.346   9.926  19.428  0.00  0.00    +0.000 A 
ATOM     25  N   UNL     1      47.928  10.028  18.191  0.00  0.00    +0.000 N 
ATOM     26  C   UNL     1      48.378   8.943  17.479  0.00  0.00    +0.000 A 
ATOM     27  O   UNL     1      48.912   9.089  16.386  0.00  0.00    +0.000 OA
ATOM     28  C   UNL     1      48.187   7.667  18.152  0.00  0.00    +0.000 A 
ATOM     29  H   UNL     1      48.071  10.929  17.758  0.00  0.00    +0.000 HD
ENDBRANCH  18  19
ENDBRANCH  16  18
ENDBRANCH   1  16
TORSDOF 6
ENDMDL
MODEL 8
REMARK VINA RESULT:    -6.851      4.398      5.914
REMARK INTER + INTRA:          -9.786
REMARK INTER:                  -9.066
REMARK INTRA:                  -0.720
REMARK UNBOUND:                -0.532
REMARK  Name = 
REMARK  6 active torsions:
REMARK  status: ('A' for Active; 'I' for Inactive)
REMARK    1  A    between atoms: C_2  and  O_3
REMARK    2  A    between atoms: C_2  and  C_18
REMARK    3  A    between atoms: O_3  and  C_4
REMARK    4  A    between atoms: C_4  and  C_5
REMARK    5  A    between atoms: C_8  and  C_9
REMARK    6  A    between atoms: C_9  and  C_10
REMARK                            x       y       z     vdW  Elec       q    Type
REMARK                         _______ _______ _______ _____ _____    ______ ____
ROOT
ATOM      1  C   UNL     1      46.889   5.995  13.800  0.00  0.00    +0.000 C 
ENDROOT
BRANCH   1   2
ATOM      2  C   UNL     1      46.282   5.457  12.537  0.00  0.00    +0.000 A 
ATOM      3  C   UNL     1      46.302   6.174  11.338  0.00  0.00    +0.000 A 
ATOM      4  C   UNL     1      45.698   5.642  10.198  0.00  0.00    +0.000 A 
ATOM      5  C   UNL     1      45.090   4.395  10.281  0.00  0.00    +0.000 A 
ATOM      6  N   UNL     1      45.082   3.672  11.427  0.00  0.00    +0.000 NA
ATOM      7  C   UNL     1      45.664   4.214  12.519  0.00  0.00    +0.000 A 
BRANCH   5   8
ATOM      8  C   UNL     1      44.283   3.825   9.147  0.00  0.00    +0.000 C 
BRANCH   8   9
ATOM      9  C   UNL     1      45.014   2.972   8.092  0.00  0.00    +0.000 C 
ATOM     10  C   UNL     1      46.107   3.744   7.334  0.00  0.00    +0.000 C 
ATOM     11  C   UNL     1      46.958   2.795   6.486  0.00  0.00    +0.000 C 
ATOM     12  C   UNL     1      47.499   1.636   7.317  0.00  0.00    +0.000 C 
ATOM     13  N   UNL     1      46.404   0.895   7.941  0.00  0.00    +0.000 NA
ATOM     14  C   UNL     1      45.628   1.762   8.825  0.00  0.00    +0.000 C 
ATOM     15  H   UNL     1      46.793   0.126   8.489  0.00  0.00    +0.000 HD
ENDBRANCH   8   9
ENDBRANCH   5   8
ENDBRANCH   1   2
BRANCH   1  16
ATOM     16  O   UNL     1      48.190   6.544  13.555  0.00  0.00    +0.000 OA
BRANCH  16  18
ATOM     17  O   UNL     1      47.682   8.441  14.725  0.00  0.00    +0.000 OA
ATOM     18  C   UNL     1      48.354   7.850  13.887  0.00  0.00    +0.000 C 
BRANCH  18  19
ATOM     19  C   UNL     1      49.357   8.526  13.067  0.00  0.00    +0.000 A 
ATOM     20  C   UNL     1      50.691   8.153  13.131  0.00  0.00    +0.000 A 
ATOM     21  S   UNL     1      51.706   9.107  12.147  0.00  0.00    +0.000 S 
ATOM     22  C   UNL     1      50.385   9.995  11.546  0.00  0.00    +0.000 A 
ATOM     23  N   UNL     1      50.562  10.962  10.606  0.00  0.00    +0.000 NA
ATOM     24  C   UNL     1      49.468  11.512  10.196  0.00  0.00    +0.000 A 
ATOM     25  N   UNL     1      48.215  11.194  10.652  0.00  0.00    +0.000 N 
ATOM     26  C   UNL     1      47.984  10.236  11.611  0.00  0.00    +0.000 A 
ATOM     27  O   UNL     1      46.842   9.972  11.969  0.00  0.00    +0.000 OA
ATOM     28  C   UNL     1      49.187   9.583  12.104  0.00  0.00    +0.000 A 
ATOM     29  H   UNL     1      47.395  11.645  10.274  0.00  0.00    +0.000 HD
ENDBRANCH  18  19
ENDBRANCH  16  18
ENDBRANCH   1  16
TORSDOF 6
ENDMDL
MODEL 9
REMARK VINA RESULT:    -6.763      4.088      4.515
REMARK INTER + INTRA:          -9.667
REMARK INTER:                  -8.904
REMARK INTRA:                  -0.763
REMARK UNBOUND:                -0.532
REMARK  Name = 
REMARK  6 active torsions:
REMARK  status: ('A' for Active; 'I' for Inactive)
REMARK    1  A    between atoms: C_2  and  O_3
REMARK    2  A    between atoms: C_2  and  C_18
REMARK    3  A    between atoms: O_3  and  C_4
REMARK    4  A    between atoms: C_4  and  C_5
REMARK    5  A    between atoms: C_8  and  C_9
REMARK    6  A    between atoms: C_9  and  C_10
REMARK                            x       y       z     vdW  Elec       q    Type
REMARK                         _______ _______ _______ _____ _____    ______ ____
ROOT
ATOM      1  C   UNL     1      46.954   6.446  13.428  0.00  0.00    +0.000 C 
ENDROOT
BRANCH   1   2
ATOM      2  C   UNL     1      46.320   5.765  12.249  0.00  0.00    +0.000 A 
ATOM      3  C   UNL     1      46.405   6.286  10.955  0.00  0.00    +0.000 A 
ATOM      4  C   UNL     1      45.774   5.629   9.897  0.00  0.00    +0.000 A 
ATOM      5  C   UNL     1      45.074   4.456  10.158  0.00  0.00    +0.000 A 
ATOM      6  N   UNL     1      45.002   3.921  11.400  0.00  0.00    +0.000 NA
ATOM      7  C   UNL     1      45.613   4.582  12.408  0.00  0.00    +0.000 A 
BRANCH   5   8
ATOM      8  C   UNL     1      44.238   3.778   9.108  0.00  0.00    +0.000 C 
BRANCH   8   9
ATOM      9  C   UNL     1      44.953   2.892   8.070  0.00  0.00    +0.000 C 
ATOM     10  C   UNL     1      46.021   3.644   7.257  0.00  0.00    +0.000 C 
ATOM     11  C   UNL     1      46.862   2.671   6.427  0.00  0.00    +0.000 C 
ATOM     12  C   UNL     1      47.433   1.549   7.290  0.00  0.00    +0.000 C 
ATOM     13  N   UNL     1      46.361   0.824   7.968  0.00  0.00    +0.000 NA
ATOM     14  C   UNL     1      45.596   1.717   8.835  0.00  0.00    +0.000 C 
ATOM     15  H   UNL     1      46.770   0.081   8.536  0.00  0.00    +0.000 HD
ENDBRANCH   8   9
ENDBRANCH   5   8
ENDBRANCH   1   2
BRANCH   1  16
ATOM     16  O   UNL     1      46.396   7.750  13.632  0.00  0.00    +0.000 OA
BRANCH  16  18
ATOM     17  O   UNL     1      46.935   9.518  12.287  0.00  0.00    +0.000 OA
ATOM     18  C   UNL     1      47.174   8.794  13.247  0.00  0.00    +0.000 C 
BRANCH  18  19
ATOM     19  C   UNL     1      48.399   8.914  14.035  0.00  0.00    +0.000 A 
ATOM     20  C   UNL     1      48.346   9.267  15.375  0.00  0.00    +0.000 A 
ATOM     21  S   UNL     1      49.886   9.416  16.094  0.00  0.00    +0.000 S 
ATOM     22  C   UNL     1      50.665   8.938  14.659  0.00  0.00    +0.000 A 
ATOM     23  N   UNL     1      52.019   8.813  14.608  0.00  0.00    +0.000 NA
ATOM     24  C   UNL     1      52.471   8.385  13.476  0.00  0.00    +0.000 A 
ATOM     25  N   UNL     1      51.694   8.086  12.388  0.00  0.00    +0.000 N 
ATOM     26  C   UNL     1      50.325   8.211  12.383  0.00  0.00    +0.000 A 
ATOM     27  O   UNL     1      49.672   7.909  11.391  0.00  0.00    +0.000 OA
ATOM     28  C   UNL     1      49.765   8.688  13.638  0.00  0.00    +0.000 A 
ATOM     29  H   UNL     1      52.107   7.733  11.537  0.00  0.00    +0.000 HD
ENDBRANCH  18  19
ENDBRANCH  16  18
ENDBRANCH   1  16
TORSDOF 6
ENDMDL
