MODEL 1
REMARK VINA RESULT:    -8.392      0.000      0.000
REMARK INTER + INTRA:         -13.267
REMARK INTER:                 -12.563
REMARK INTRA:                  -0.704
REMARK UNBOUND:                -0.704
REMARK  Name = 
REMARK  9 active torsions:
REMARK  status: ('A' for Active; 'I' for Inactive)
REMARK    1  A    between atoms: N_1  and  C_2
REMARK    2  A    between atoms: C_2  and  N_3
REMARK    3  A    between atoms: C_2  and  C_19
REMARK    4  A    between atoms: N_3  and  C_4
REMARK    5  A    between atoms: C_4  and  C_5
REMARK    6  A    between atoms: C_8  and  C_9
REMARK    7  A    between atoms: C_9  and  N_10
REMARK    8  A    between atoms: N_10  and  C_11
REMARK    9  A    between atoms: C_11  and  C_12
REMARK                            x       y       z     vdW  Elec       q    Type
REMARK                         _______ _______ _______ _____ _____    ______ ____
ROOT
ATOM      1  N   UNL     1      46.899   4.638  15.874  0.00  0.00    +0.000 NA
ATOM      2  H   UNL     1      47.003   5.476  16.455  0.00  0.00    +0.000 HD
ENDROOT
BRANCH   1   3
ATOM      3  C   UNL     1      47.549   3.560  16.585  0.00  0.00    +0.000 C 
BRANCH   3   4
ATOM      4  C   UNL     1      48.653   4.092  17.495  0.00  0.00    +0.000 A 
ATOM      5  C   UNL     1      48.497   5.221  18.296  0.00  0.00    +0.000 A 
ATOM      6  S   UNL     1      49.906   5.690  19.129  0.00  0.00    +0.000 S 
ATOM      7  C   UNL     1      50.768   4.361  18.515  0.00  0.00    +0.000 A 
ATOM      8  N   UNL     1      52.081   4.182  18.826  0.00  0.00    +0.000 NA
ATOM      9  C   UNL     1      52.609   3.127  18.300  0.00  0.00    +0.000 A 
ATOM     10  N   UNL     1      51.937   2.219  17.521  0.00  0.00    +0.000 N 
ATOM     11  C   UNL     1      50.596   2.331  17.225  0.00  0.00    +0.000 A 
ATOM     12  O   UNL     1      49.993   1.448  16.622  0.00  0.00    +0.000 OA
ATOM     13  C   UNL     1      49.978   3.549  17.721  0.00  0.00    +0.000 A 
ATOM     14  H   UNL     1      52.405   1.392  17.186  0.00  0.00    +0.000 HD
ENDBRANCH   3   4
BRANCH   3  15
ATOM     15  N   UNL     1      46.539   3.007  17.458  0.00  0.00    +0.000 NA
ATOM     16  H   UNL     1      45.662   3.496  17.323  0.00  0.00    +0.000 HD
ATOM     17  H   UNL     1      46.846   3.250  18.400  0.00  0.00    +0.000 HD
ENDBRANCH   3  15
ENDBRANCH   1   3
BRANCH   1  18
ATOM     18  C   UNL     1      47.512   4.956  14.571  0.00  0.00    +0.000 C 
BRANCH  18  19
ATOM     19  C   UNL     1      46.557   4.804  13.402  0.00  0.00    +0.000 A 
ATOM     20  C   UNL     1      46.422   5.824  12.465  0.00  0.00    +0.000 A 
ATOM     21  C   UNL     1      45.571   5.630  11.381  0.00  0.00    +0.000 A 
ATOM     22  C   UNL     1      44.879   4.423  11.242  0.00  0.00    +0.000 A 
ATOM     23  C   UNL     1      45.070   3.467  12.229  0.00  0.00    +0.000 A 
ATOM     24  N   UNL     1      45.888   3.627  13.293  0.00  0.00    +0.000 NA
BRANCH  22  25
ATOM     25  C   UNL     1      43.979   4.171  10.063  0.00  0.00    +0.000 C 
BRANCH  25  26
ATOM     26  N   UNL     1      44.771   3.803   8.891  0.00  0.00    +0.000 NA
ATOM     27  H   UNL     1      45.689   4.244   8.969  0.00  0.00    +0.000 HD
BRANCH  26  28
ATOM     28  C   UNL     1      44.960   2.363   8.800  0.00  0.00    +0.000 C 
BRANCH  28  29
ATOM     29  C   UNL     1      46.171   2.106   7.987  0.00  0.00    +0.000 A 
ATOM     30  C   UNL     1      46.864   0.955   7.679  0.00  0.00    +0.000 A 
ATOM     31  N   UNL     1      47.949   1.235   6.888  0.00  0.00    +0.000 NA
ATOM     32  C   UNL     1      47.931   2.537   6.719  0.00  0.00    +0.000 A 
ATOM     33  N   UNL     1      46.871   3.109   7.359  0.00  0.00    +0.000 N 
ATOM     34  H   UNL     1      46.656   4.096   7.409  0.00  0.00    +0.000 HD
ENDBRANCH  28  29
ENDBRANCH  26  28
ENDBRANCH  25  26
ENDBRANCH  22  25
ENDBRANCH  18  19
ENDBRANCH   1  18
TORSDOF 9
ENDMDL
MODEL 2
REMARK VINA RESULT:    -8.000      1.832      2.501
REMARK INTER + INTRA:         -12.679
REMARK INTER:                 -11.633
REMARK INTRA:                  -1.046
REMARK UNBOUND:                -0.704
REMARK  Name = 
REMARK  9 active torsions:
REMARK  status: ('A' for Active; 'I' for Inactive)
REMARK    1  A    between atoms: N_1  and  C_2
REMARK    2  A    between atoms: C_2  and  N_3
REMARK    3  A    between atoms: C_2  and  C_19
REMARK    4  A    between atoms: N_3  and  C_4
REMARK    5  A    between atoms: C_4  and  C_5
REMARK    6  A    between atoms: C_8  and  C_9
REMARK    7  A    between atoms: C_9  and  N_10
REMARK    8  A    between atoms: N_10  and  C_11
REMARK    9  A    between atoms: C_11  and  C_12
REMARK                            x       y       z     vdW  Elec       q    Type
REMARK                         _______ _______ _______ _____ _____    ______ ____
ROOT
ATOM      1  N   UNL     1      46.857   4.171  16.017  0.00  0.00    +0.000 NA
ATOM      2  H   UNL     1      46.871   5.038  16.563  0.00  0.00    +0.000 HD
ENDROOT
BRANCH   1   3
ATOM      3  C   UNL     1      47.578   3.184  16.789  0.00  0.00    +0.000 C 
BRANCH   3   4
ATOM      4  C   UNL     1      48.709   3.831  17.583  0.00  0.00    +0.000 A 
ATOM      5  C   UNL     1      50.052   3.516  17.386  0.00  0.00    +0.000 A 
ATOM      6  S   UNL     1      51.118   4.277  18.473  0.00  0.00    +0.000 S 
ATOM      7  C   UNL     1      49.841   5.120  19.209  0.00  0.00    +0.000 A 
ATOM      8  N   UNL     1      50.073   5.950  20.263  0.00  0.00    +0.000 NA
ATOM      9  C   UNL     1      49.015   6.534  20.718  0.00  0.00    +0.000 A 
ATOM     10  N   UNL     1      47.754   6.390  20.196  0.00  0.00    +0.000 N 
ATOM     11  C   UNL     1      47.481   5.604  19.099  0.00  0.00    +0.000 A 
ATOM     12  O   UNL     1      46.367   5.582  18.582  0.00  0.00    +0.000 OA
ATOM     13  C   UNL     1      48.625   4.857  18.605  0.00  0.00    +0.000 A 
ATOM     14  H   UNL     1      46.983   6.918  20.576  0.00  0.00    +0.000 HD
ENDBRANCH   3   4
BRANCH   3  15
ATOM     15  N   UNL     1      46.633   2.690  17.764  0.00  0.00    +0.000 NA
ATOM     16  H   UNL     1      46.574   3.334  18.544  0.00  0.00    +0.000 HD
ATOM     17  H   UNL     1      47.061   1.843  18.139  0.00  0.00    +0.000 HD
ENDBRANCH   3  15
ENDBRANCH   1   3
BRANCH   1  18
ATOM     18  C   UNL     1      47.478   4.488  14.717  0.00  0.00    +0.000 C 
BRANCH  18  19
ATOM     19  C   UNL     1      46.494   4.490  13.562  0.00  0.00    +0.000 A 
ATOM     20  C   UNL     1      46.185   5.675  12.901  0.00  0.00    +0.000 A 
ATOM     21  C   UNL     1      45.314   5.629  11.817  0.00  0.00    +0.000 A 
ATOM     22  C   UNL     1      44.773   4.408  11.404  0.00  0.00    +0.000 A 
ATOM     23  C   UNL     1      45.131   3.280  12.128  0.00  0.00    +0.000 A 
ATOM     24  N   UNL     1      45.974   3.293  13.186  0.00  0.00    +0.000 NA
BRANCH  22  25
ATOM     25  C   UNL     1      43.855   4.322  10.215  0.00  0.00    +0.000 C 
BRANCH  25  26
ATOM     26  N   UNL     1      44.352   3.329   9.263  0.00  0.00    +0.000 NA
ATOM     27  H   UNL     1      43.585   3.064   8.642  0.00  0.00    +0.000 HD
BRANCH  26  28
ATOM     28  C   UNL     1      45.439   3.857   8.452  0.00  0.00    +0.000 C 
BRANCH  28  29
ATOM     29  C   UNL     1      46.188   2.714   7.881  0.00  0.00    +0.000 A 
ATOM     30  C   UNL     1      47.118   2.617   6.870  0.00  0.00    +0.000 A 
ATOM     31  N   UNL     1      47.519   1.317   6.697  0.00  0.00    +0.000 NA
ATOM     32  C   UNL     1      46.842   0.623   7.582  0.00  0.00    +0.000 A 
ATOM     33  N   UNL     1      46.026   1.424   8.326  0.00  0.00    +0.000 N 
ATOM     34  H   UNL     1      45.381   1.127   9.046  0.00  0.00    +0.000 HD
ENDBRANCH  28  29
ENDBRANCH  26  28
ENDBRANCH  25  26
ENDBRANCH  22  25
ENDBRANCH  18  19
ENDBRANCH   1  18
TORSDOF 9
ENDMDL
MODEL 3
REMARK VINA RESULT:    -7.735      1.870      2.220
REMARK INTER + INTRA:         -12.283
REMARK INTER:                 -11.202
REMARK INTRA:                  -1.080
REMARK UNBOUND:                -0.704
REMARK  Name = 
REMARK  9 active torsions:
REMARK  status: ('A' for Active; 'I' for Inactive)
REMARK    1  A    between atoms: N_1  and  C_2
REMARK    2  A    between atoms: C_2  and  N_3
REMARK    3  A    between atoms: C_2  and  C_19
REMARK    4  A    between atoms: N_3  and  C_4
REMARK    5  A    between atoms: C_4  and  C_5
REMARK    6  A    between atoms: C_8  and  C_9
REMARK    7  A    between atoms: C_9  and  N_10
REMARK    8  A    between atoms: N_10  and  C_11
REMARK    9  A    between atoms: C_11  and  C_12
REMARK                            x       y       z     vdW  Elec       q    Type
REMARK                         _______ _______ _______ _____ _____    ______ ____
ROOT
ATOM      1  N   UNL     1      46.902   4.745  16.001  0.00  0.00    +0.000 NA
ATOM      2  H   UNL     1      47.450   5.607  15.915  0.00  0.00    +0.000 HD
ENDROOT
BRANCH   1   3
ATOM      3  C   UNL     1      47.294   4.129  17.249  0.00  0.00    +0.000 C 
BRANCH   3   4
ATOM      4  C   UNL     1      48.812   4.008  17.346  0.00  0.00    +0.000 A 
ATOM      5  C   UNL     1      49.465   2.795  17.553  0.00  0.00    +0.000 A 
ATOM      6  S   UNL     1      51.151   2.930  17.747  0.00  0.00    +0.000 S 
ATOM      7  C   UNL     1      51.093   4.608  17.488  0.00  0.00    +0.000 A 
ATOM      8  N   UNL     1      52.227   5.359  17.550  0.00  0.00    +0.000 NA
ATOM      9  C   UNL     1      52.040   6.617  17.323  0.00  0.00    +0.000 A 
ATOM     10  N   UNL     1      50.832   7.186  17.009  0.00  0.00    +0.000 N 
ATOM     11  C   UNL     1      49.669   6.457  16.883  0.00  0.00    +0.000 A 
ATOM     12  O   UNL     1      48.626   6.971  16.489  0.00  0.00    +0.000 OA
ATOM     13  C   UNL     1      49.811   5.050  17.215  0.00  0.00    +0.000 A 
ATOM     14  H   UNL     1      50.773   8.169  16.796  0.00  0.00    +0.000 HD
ENDBRANCH   3   4
BRANCH   3  15
ATOM     15  N   UNL     1      46.897   5.059  18.280  0.00  0.00    +0.000 NA
ATOM     16  H   UNL     1      47.668   5.217  18.918  0.00  0.00    +0.000 HD
ATOM     17  H   UNL     1      46.189   4.563  18.823  0.00  0.00    +0.000 HD
ENDBRANCH   3  15
ENDBRANCH   1   3
BRANCH   1  18
ATOM     18  C   UNL     1      47.210   3.935  14.807  0.00  0.00    +0.000 C 
BRANCH  18  19
ATOM     19  C   UNL     1      46.276   4.200  13.641  0.00  0.00    +0.000 A 
ATOM     20  C   UNL     1      45.905   5.501  13.316  0.00  0.00    +0.000 A 
ATOM     21  C   UNL     1      45.084   5.707  12.211  0.00  0.00    +0.000 A 
ATOM     22  C   UNL     1      44.657   4.620  11.443  0.00  0.00    +0.000 A 
ATOM     23  C   UNL     1      45.071   3.359  11.846  0.00  0.00    +0.000 A 
ATOM     24  N   UNL     1      45.867   3.127  12.916  0.00  0.00    +0.000 NA
BRANCH  22  25
ATOM     25  C   UNL     1      43.798   4.815  10.223  0.00  0.00    +0.000 C 
BRANCH  25  26
ATOM     26  N   UNL     1      43.966   3.692   9.302  0.00  0.00    +0.000 NA
ATOM     27  H   UNL     1      43.069   3.509   8.848  0.00  0.00    +0.000 HD
BRANCH  26  28
ATOM     28  C   UNL     1      44.952   3.983   8.272  0.00  0.00    +0.000 C 
BRANCH  28  29
ATOM     29  C   UNL     1      45.733   2.751   8.017  0.00  0.00    +0.000 A 
ATOM     30  C   UNL     1      45.617   1.458   8.479  0.00  0.00    +0.000 A 
ATOM     31  N   UNL     1      46.605   0.663   7.957  0.00  0.00    +0.000 NA
ATOM     32  C   UNL     1      47.322   1.453   7.193  0.00  0.00    +0.000 A 
ATOM     33  N   UNL     1      46.832   2.726   7.192  0.00  0.00    +0.000 N 
ATOM     34  H   UNL     1      47.225   3.525   6.712  0.00  0.00    +0.000 HD
ENDBRANCH  28  29
ENDBRANCH  26  28
ENDBRANCH  25  26
ENDBRANCH  22  25
ENDBRANCH  18  19
ENDBRANCH   1  18
TORSDOF 9
ENDMDL
MODEL 4
REMARK VINA RESULT:    -7.561      1.918      2.458
REMARK INTER + INTRA:         -12.023
REMARK INTER:                 -10.896
REMARK INTRA:                  -1.127
REMARK UNBOUND:                -0.704
REMARK  Name = 
REMARK  9 active torsions:
REMARK  status: ('A' for Active; 'I' for Inactive)
REMARK    1  A    between atoms: N_1  and  C_2
REMARK    2  A    between atoms: C_2  and  N_3
REMARK    3  A    between atoms: C_2  and  C_19
REMARK    4  A    between atoms: N_3  and  C_4
REMARK    5  A    between atoms: C_4  and  C_5
REMARK    6  A    between atoms: C_8  and  C_9
REMARK    7  A    between atoms: C_9  and  N_10
REMARK    8  A    between atoms: N_10  and  C_11
REMARK    9  A    between atoms: C_11  and  C_12
REMARK                            x       y       z     vdW  Elec       q    Type
REMARK                         _______ _______ _______ _____ _____    ______ ____
ROOT
ATOM      1  N   UNL     1      47.720   6.727  14.650  0.00  0.00    +0.000 NA
ATOM      2  H   UNL     1      46.929   7.379  14.676  0.00  0.00    +0.000 HD
ENDROOT
BRANCH   1   3
ATOM      3  C   UNL     1      48.796   7.354  15.385  0.00  0.00    +0.000 C 
BRANCH   3   4
ATOM      4  C   UNL     1      48.664   7.086  16.882  0.00  0.00    +0.000 A 
ATOM      5  C   UNL     1      48.577   8.103  17.830  0.00  0.00    +0.000 A 
ATOM      6  S   UNL     1      48.559   7.559  19.443  0.00  0.00    +0.000 S 
ATOM      7  C   UNL     1      48.593   5.936  18.945  0.00  0.00    +0.000 A 
ATOM      8  N   UNL     1      48.624   4.929  19.861  0.00  0.00    +0.000 NA
ATOM      9  C   UNL     1      48.637   3.745  19.345  0.00  0.00    +0.000 A 
ATOM     10  N   UNL     1      48.588   3.476  18.001  0.00  0.00    +0.000 N 
ATOM     11  C   UNL     1      48.502   4.460  17.040  0.00  0.00    +0.000 A 
ATOM     12  O   UNL     1      48.345   4.190  15.853  0.00  0.00    +0.000 OA
ATOM     13  C   UNL     1      48.574   5.812  17.567  0.00  0.00    +0.000 A 
ATOM     14  H   UNL     1      48.552   2.523  17.674  0.00  0.00    +0.000 HD
ENDBRANCH   3   4
BRANCH   3  15
ATOM     15  N   UNL     1      50.000   6.677  14.960  0.00  0.00    +0.000 NA
ATOM     16  H   UNL     1      50.795   7.029  15.479  0.00  0.00    +0.000 HD
ATOM     17  H   UNL     1      50.145   6.981  13.996  0.00  0.00    +0.000 HD
ENDBRANCH   3  15
ENDBRANCH   1   3
BRANCH   1  18
ATOM     18  C   UNL     1      48.021   6.494  13.226  0.00  0.00    +0.000 C 
BRANCH  18  19
ATOM     19  C   UNL     1      46.896   5.805  12.476  0.00  0.00    +0.000 A 
ATOM     20  C   UNL     1      46.431   6.321  11.271  0.00  0.00    +0.000 A 
ATOM     21  C   UNL     1      45.430   5.636  10.590  0.00  0.00    +0.000 A 
ATOM     22  C   UNL     1      44.917   4.445  11.112  0.00  0.00    +0.000 A 
ATOM     23  C   UNL     1      45.435   4.010  12.323  0.00  0.00    +0.000 A 
ATOM     24  N   UNL     1      46.406   4.655  13.008  0.00  0.00    +0.000 NA
BRANCH  22  25
ATOM     25  C   UNL     1      43.858   3.664  10.382  0.00  0.00    +0.000 C 
BRANCH  25  26
ATOM     26  N   UNL     1      44.343   3.268   9.060  0.00  0.00    +0.000 NA
ATOM     27  H   UNL     1      45.066   3.929   8.770  0.00  0.00    +0.000 HD
BRANCH  26  28
ATOM     28  C   UNL     1      44.921   1.932   9.076  0.00  0.00    +0.000 C 
BRANCH  28  29
ATOM     29  C   UNL     1      46.080   1.919   8.154  0.00  0.00    +0.000 A 
ATOM     30  C   UNL     1      46.840   0.900   7.623  0.00  0.00    +0.000 A 
ATOM     31  N   UNL     1      47.831   1.399   6.817  0.00  0.00    +0.000 NA
ATOM     32  C   UNL     1      47.690   2.703   6.857  0.00  0.00    +0.000 A 
ATOM     33  N   UNL     1      46.641   3.068   7.649  0.00  0.00    +0.000 N 
ATOM     34  H   UNL     1      46.348   4.011   7.869  0.00  0.00    +0.000 HD
ENDBRANCH  28  29
ENDBRANCH  26  28
ENDBRANCH  25  26
ENDBRANCH  22  25
ENDBRANCH  18  19
ENDBRANCH   1  18
TORSDOF 9
ENDMDL
MODEL 5
REMARK VINA RESULT:    -7.414      2.788      3.406
REMARK INTER + INTRA:         -11.802
REMARK INTER:                 -10.776
REMARK INTRA:                  -1.026
REMARK UNBOUND:                -0.704
REMARK  Name = 
REMARK  9 active torsions:
REMARK  status: ('A' for Active; 'I' for Inactive)
REMARK    1  A    between atoms: N_1  and  C_2
REMARK    2  A    between atoms: C_2  and  N_3
REMARK    3  A    between atoms: C_2  and  C_19
REMARK    4  A    between atoms: N_3  and  C_4
REMARK    5  A    between atoms: C_4  and  C_5
REMARK    6  A    between atoms: C_8  and  C_9
REMARK    7  A    between atoms: C_9  and  N_10
REMARK    8  A    between atoms: N_10  and  C_11
REMARK    9  A    between atoms: C_11  and  C_12
REMARK                            x       y       z     vdW  Elec       q    Type
REMARK                         _______ _______ _______ _____ _____    ______ ____
ROOT
ATOM      1  N   UNL     1      48.707   6.286  13.926  0.00  0.00    +0.000 NA
ATOM      2  H   UNL     1      48.396   5.343  14.178  0.00  0.00    +0.000 HD
ENDROOT
BRANCH   1   3
ATOM      3  C   UNL     1      49.083   6.941  15.159  0.00  0.00    +0.000 C 
BRANCH   3   4
ATOM      4  C   UNL     1      48.617   6.137  16.369  0.00  0.00    +0.000 A 
ATOM      5  C   UNL     1      48.121   4.839  16.272  0.00  0.00    +0.000 A 
ATOM      6  S   UNL     1      47.553   4.193  17.742  0.00  0.00    +0.000 S 
ATOM      7  C   UNL     1      48.012   5.593  18.588  0.00  0.00    +0.000 A 
ATOM      8  N   UNL     1      47.773   5.707  19.923  0.00  0.00    +0.000 NA
ATOM      9  C   UNL     1      48.182   6.817  20.441  0.00  0.00    +0.000 A 
ATOM     10  N   UNL     1      48.837   7.807  19.753  0.00  0.00    +0.000 N 
ATOM     11  C   UNL     1      49.148   7.713  18.415  0.00  0.00    +0.000 A 
ATOM     12  O   UNL     1      49.833   8.561  17.850  0.00  0.00    +0.000 OA
ATOM     13  C   UNL     1      48.629   6.520  17.768  0.00  0.00    +0.000 A 
ATOM     14  H   UNL     1      49.171   8.626  20.237  0.00  0.00    +0.000 HD
ENDBRANCH   3   4
BRANCH   3  15
ATOM     15  N   UNL     1      50.527   6.912  15.187  0.00  0.00    +0.000 NA
ATOM     16  H   UNL     1      50.884   6.621  14.285  0.00  0.00    +0.000 HD
ATOM     17  H   UNL     1      50.761   6.156  15.832  0.00  0.00    +0.000 HD
ENDBRANCH   3  15
ENDBRANCH   1   3
BRANCH   1  18
ATOM     18  C   UNL     1      47.576   6.924  13.227  0.00  0.00    +0.000 C 
BRANCH  18  19
ATOM     19  C   UNL     1      46.667   5.935  12.520  0.00  0.00    +0.000 A 
ATOM     20  C   UNL     1      46.230   4.787  13.174  0.00  0.00    +0.000 A 
ATOM     21  C   UNL     1      45.361   3.928  12.510  0.00  0.00    +0.000 A 
ATOM     22  C   UNL     1      44.934   4.228  11.213  0.00  0.00    +0.000 A 
ATOM     23  C   UNL     1      45.427   5.390  10.638  0.00  0.00    +0.000 A 
ATOM     24  N   UNL     1      46.274   6.244  11.258  0.00  0.00    +0.000 NA
BRANCH  22  25
ATOM     25  C   UNL     1      43.968   3.336  10.483  0.00  0.00    +0.000 C 
BRANCH  25  26
ATOM     26  N   UNL     1      44.417   3.123   9.107  0.00  0.00    +0.000 NA
ATOM     27  H   UNL     1      45.204   3.748   8.923  0.00  0.00    +0.000 HD
BRANCH  26  28
ATOM     28  C   UNL     1      44.858   1.753   8.891  0.00  0.00    +0.000 C 
BRANCH  28  29
ATOM     29  C   UNL     1      46.078   1.787   8.052  0.00  0.00    +0.000 A 
ATOM     30  C   UNL     1      46.933   0.804   7.604  0.00  0.00    +0.000 A 
ATOM     31  N   UNL     1      47.948   1.342   6.855  0.00  0.00    +0.000 NA
ATOM     32  C   UNL     1      47.728   2.636   6.849  0.00  0.00    +0.000 A 
ATOM     33  N   UNL     1      46.606   2.955   7.555  0.00  0.00    +0.000 N 
ATOM     34  H   UNL     1      46.243   3.884   7.727  0.00  0.00    +0.000 HD
ENDBRANCH  28  29
ENDBRANCH  26  28
ENDBRANCH  25  26
ENDBRANCH  22  25
ENDBRANCH  18  19
ENDBRANCH   1  18
TORSDOF 9
ENDMDL
MODEL 6
REMARK VINA RESULT:    -7.242      3.238      9.010
REMARK INTER + INTRA:         -11.545
REMARK INTER:                 -10.679
REMARK INTRA:                  -0.866
REMARK UNBOUND:                -0.704
REMARK  Name = 
REMARK  9 active torsions:
REMARK  status: ('A' for Active; 'I' for Inactive)
REMARK    1  A    between atoms: N_1  and  C_2
REMARK    2  A    between atoms: C_2  and  N_3
REMARK    3  A    between atoms: C_2  and  C_19
REMARK    4  A    between atoms: N_3  and  C_4
REMARK    5  A    between atoms: C_4  and  C_5
REMARK    6  A    between atoms: C_8  and  C_9
REMARK    7  A    between atoms: C_9  and  N_10
REMARK    8  A    between atoms: N_10  and  C_11
REMARK    9  A    between atoms: C_11  and  C_12
REMARK                            x       y       z     vdW  Elec       q    Type
REMARK                         _______ _______ _______ _____ _____    ______ ____
ROOT
ATOM      1  N   UNL     1      45.647   6.905  12.531  0.00  0.00    +0.000 NA
ATOM      2  H   UNL     1      45.136   6.323  13.202  0.00  0.00    +0.000 HD
ENDROOT
BRANCH   1   3
ATOM      3  C   UNL     1      45.049   6.663  11.236  0.00  0.00    +0.000 C 
BRANCH   3   4
ATOM      4  C   UNL     1      44.550   5.226  11.125  0.00  0.00    +0.000 A 
ATOM      5  C   UNL     1      43.656   4.660  12.031  0.00  0.00    +0.000 A 
ATOM      6  S   UNL     1      43.341   3.008  11.768  0.00  0.00    +0.000 S 
ATOM      7  C   UNL     1      44.329   2.991  10.387  0.00  0.00    +0.000 A 
ATOM      8  N   UNL     1      44.520   1.841   9.684  0.00  0.00    +0.000 NA
ATOM      9  C   UNL     1      45.284   1.974   8.651  0.00  0.00    +0.000 A 
ATOM     10  N   UNL     1      45.846   3.156   8.239  0.00  0.00    +0.000 N 
ATOM     11  C   UNL     1      45.636   4.353   8.887  0.00  0.00    +0.000 A 
ATOM     12  O   UNL     1      46.056   5.414   8.433  0.00  0.00    +0.000 OA
ATOM     13  C   UNL     1      44.855   4.239  10.106  0.00  0.00    +0.000 A 
ATOM     14  H   UNL     1      46.393   3.191   7.392  0.00  0.00    +0.000 HD
ENDBRANCH   3   4
BRANCH   3  15
ATOM     15  N   UNL     1      43.874   7.503  11.191  0.00  0.00    +0.000 NA
ATOM     16  H   UNL     1      43.316   7.360  12.024  0.00  0.00    +0.000 HD
ATOM     17  H   UNL     1      43.317   7.132  10.420  0.00  0.00    +0.000 HD
ENDBRANCH   3  15
ENDBRANCH   1   3
BRANCH   1  18
ATOM     18  C   UNL     1      47.063   6.503  12.623  0.00  0.00    +0.000 C 
BRANCH  18  19
ATOM     19  C   UNL     1      47.424   5.870  13.954  0.00  0.00    +0.000 A 
ATOM     20  C   UNL     1      46.802   4.697  14.370  0.00  0.00    +0.000 A 
ATOM     21  C   UNL     1      47.193   4.122  15.574  0.00  0.00    +0.000 A 
ATOM     22  C   UNL     1      48.202   4.714  16.339  0.00  0.00    +0.000 A 
ATOM     23  C   UNL     1      48.761   5.886  15.849  0.00  0.00    +0.000 A 
ATOM     24  N   UNL     1      48.400   6.470  14.684  0.00  0.00    +0.000 NA
BRANCH  22  25
ATOM     25  C   UNL     1      48.671   4.097  17.628  0.00  0.00    +0.000 C 
BRANCH  25  26
ATOM     26  N   UNL     1      50.069   3.686  17.514  0.00  0.00    +0.000 NA
ATOM     27  H   UNL     1      50.537   3.878  18.401  0.00  0.00    +0.000 HD
BRANCH  26  28
ATOM     28  C   UNL     1      50.190   2.263  17.229  0.00  0.00    +0.000 C 
BRANCH  28  29
ATOM     29  C   UNL     1      51.584   1.852  17.514  0.00  0.00    +0.000 A 
ATOM     30  C   UNL     1      52.674   2.527  18.019  0.00  0.00    +0.000 A 
ATOM     31  N   UNL     1      53.770   1.705  18.086  0.00  0.00    +0.000 NA
ATOM     32  C   UNL     1      53.366   0.546  17.622  0.00  0.00    +0.000 A 
ATOM     33  N   UNL     1      52.049   0.582  17.268  0.00  0.00    +0.000 N 
ATOM     34  H   UNL     1      51.513  -0.170  16.854  0.00  0.00    +0.000 HD
ENDBRANCH  28  29
ENDBRANCH  26  28
ENDBRANCH  25  26
ENDBRANCH  22  25
ENDBRANCH  18  19
ENDBRANCH   1  18
TORSDOF 9
ENDMDL
MODEL 7
REMARK VINA RESULT:    -6.975      3.925      9.756
REMARK INTER + INTRA:         -11.145
REMARK INTER:                 -10.339
REMARK INTRA:                  -0.807
REMARK UNBOUND:                -0.704
REMARK  Name = 
REMARK  9 active torsions:
REMARK  status: ('A' for Active; 'I' for Inactive)
REMARK    1  A    between atoms: N_1  and  C_2
REMARK    2  A    between atoms: C_2  and  N_3
REMARK    3  A    between atoms: C_2  and  C_19
REMARK    4  A    between atoms: N_3  and  C_4
REMARK    5  A    between atoms: C_4  and  C_5
REMARK    6  A    between atoms: C_8  and  C_9
REMARK    7  A    between atoms: C_9  and  N_10
REMARK    8  A    between atoms: N_10  and  C_11
REMARK    9  A    between atoms: C_11  and  C_12
REMARK                            x       y       z     vdW  Elec       q    Type
REMARK                         _______ _______ _______ _____ _____    ______ ____
ROOT
ATOM      1  N   UNL     1      47.855   4.824  15.468  0.00  0.00    +0.000 NA
ATOM      2  H   UNL     1      47.707   5.830  15.596  0.00  0.00    +0.000 HD
ENDROOT
BRANCH   1   3
ATOM      3  C   UNL     1      46.730   4.336  14.701  0.00  0.00    +0.000 C 
BRANCH   3   4
ATOM      4  C   UNL     1      46.279   5.370  13.673  0.00  0.00    +0.000 A 
ATOM      5  C   UNL     1      47.040   6.487  13.336  0.00  0.00    +0.000 A 
ATOM      6  S   UNL     1      46.274   7.557  12.256  0.00  0.00    +0.000 S 
ATOM      7  C   UNL     1      44.920   6.539  12.134  0.00  0.00    +0.000 A 
ATOM      8  N   UNL     1      43.853   6.893  11.366  0.00  0.00    +0.000 NA
ATOM      9  C   UNL     1      42.899   6.023  11.354  0.00  0.00    +0.000 A 
ATOM     10  N   UNL     1      42.928   4.819  12.012  0.00  0.00    +0.000 N 
ATOM     11  C   UNL     1      44.008   4.396  12.756  0.00  0.00    +0.000 A 
ATOM     12  O   UNL     1      44.055   3.268  13.240  0.00  0.00    +0.000 OA
ATOM     13  C   UNL     1      45.071   5.379  12.871  0.00  0.00    +0.000 A 
ATOM     14  H   UNL     1      42.164   4.168  11.916  0.00  0.00    +0.000 HD
ENDBRANCH   3   4
BRANCH   3  15
ATOM     15  N   UNL     1      47.236   3.212  13.946  0.00  0.00    +0.000 NA
ATOM     16  H   UNL     1      47.237   3.433  12.958  0.00  0.00    +0.000 HD
ATOM     17  H   UNL     1      46.534   2.481  14.063  0.00  0.00    +0.000 HD
ENDBRANCH   3  15
ENDBRANCH   1   3
BRANCH   1  18
ATOM     18  C   UNL     1      47.959   4.242  16.819  0.00  0.00    +0.000 C 
BRANCH  18  19
ATOM     19  C   UNL     1      49.322   3.643  17.114  0.00  0.00    +0.000 A 
ATOM     20  C   UNL     1      50.288   4.384  17.786  0.00  0.00    +0.000 A 
ATOM     21  C   UNL     1      51.509   3.784  18.080  0.00  0.00    +0.000 A 
ATOM     22  C   UNL     1      51.743   2.457  17.711  0.00  0.00    +0.000 A 
ATOM     23  C   UNL     1      50.725   1.798  17.037  0.00  0.00    +0.000 A 
ATOM     24  N   UNL     1      49.530   2.355  16.736  0.00  0.00    +0.000 NA
BRANCH  22  25
ATOM     25  C   UNL     1      53.040   1.771  18.044  0.00  0.00    +0.000 C 
BRANCH  25  26
ATOM     26  N   UNL     1      52.829   0.330  18.179  0.00  0.00    +0.000 NA
ATOM     27  H   UNL     1      52.234   0.016  17.411  0.00  0.00    +0.000 HD
BRANCH  26  28
ATOM     28  C   UNL     1      54.084  -0.406  18.117  0.00  0.00    +0.000 C 
BRANCH  28  29
ATOM     29  C   UNL     1      53.889  -1.712  18.786  0.00  0.00    +0.000 A 
ATOM     30  C   UNL     1      54.712  -2.802  18.969  0.00  0.00    +0.000 A 
ATOM     31  N   UNL     1      54.061  -3.797  19.652  0.00  0.00    +0.000 NA
ATOM     32  C   UNL     1      52.854  -3.332  19.879  0.00  0.00    +0.000 A 
ATOM     33  N   UNL     1      52.702  -2.073  19.379  0.00  0.00    +0.000 N 
ATOM     34  H   UNL     1      51.859  -1.513  19.395  0.00  0.00    +0.000 HD
ENDBRANCH  28  29
ENDBRANCH  26  28
ENDBRANCH  25  26
ENDBRANCH  22  25
ENDBRANCH  18  19
ENDBRANCH   1  18
TORSDOF 9
ENDMDL
MODEL 8
REMARK VINA RESULT:    -6.846      2.471      2.907
REMARK INTER + INTRA:         -10.952
REMARK INTER:                 -10.142
REMARK INTRA:                  -0.811
REMARK UNBOUND:                -0.704
REMARK  Name = 
REMARK  9 active torsions:
REMARK  status: ('A' for Active; 'I' for Inactive)
REMARK    1  A    between atoms: N_1  and  C_2
REMARK    2  A    between atoms: C_2  and  N_3
REMARK    3  A    between atoms: C_2  and  C_19
REMARK    4  A    between atoms: N_3  and  C_4
REMARK    5  A    between atoms: C_4  and  C_5
REMARK    6  A    between atoms: C_8  and  C_9
REMARK    7  A    between atoms: C_9  and  N_10
REMARK    8  A    between atoms: N_10  and  C_11
REMARK    9  A    between atoms: C_11  and  C_12
REMARK                            x       y       z     vdW  Elec       q    Type
REMARK                         _______ _______ _______ _____ _____    ______ ____
ROOT
ATOM      1  N   UNL     1      47.964   7.495  13.750  0.00  0.00    +0.000 NA
ATOM      2  H   UNL     1      48.801   7.617  13.169  0.00  0.00    +0.000 HD
ENDROOT
BRANCH   1   3
ATOM      3  C   UNL     1      48.280   8.043  15.050  0.00  0.00    +0.000 C 
BRANCH   3   4
ATOM      4  C   UNL     1      49.713   7.705  15.452  0.00  0.00    +0.000 A 
ATOM      5  C   UNL     1      50.813   8.456  15.044  0.00  0.00    +0.000 A 
ATOM      6  S   UNL     1      52.317   7.814  15.518  0.00  0.00    +0.000 S 
ATOM      7  C   UNL     1      51.562   6.542  16.353  0.00  0.00    +0.000 A 
ATOM      8  N   UNL     1      52.304   5.588  16.981  0.00  0.00    +0.000 NA
ATOM      9  C   UNL     1      51.603   4.688  17.586  0.00  0.00    +0.000 A 
ATOM     10  N   UNL     1      50.232   4.672  17.648  0.00  0.00    +0.000 N 
ATOM     11  C   UNL     1      49.444   5.645  17.074  0.00  0.00    +0.000 A 
ATOM     12  O   UNL     1      48.227   5.671  17.241  0.00  0.00    +0.000 OA
ATOM     13  C   UNL     1      50.183   6.633  16.307  0.00  0.00    +0.000 A 
ATOM     14  H   UNL     1      49.756   3.962  18.181  0.00  0.00    +0.000 HD
ENDBRANCH   3   4
BRANCH   3  15
ATOM     15  N   UNL     1      48.236   9.478  14.886  0.00  0.00    +0.000 NA
ATOM     16  H   UNL     1      47.600   9.882  15.563  0.00  0.00    +0.000 HD
ATOM     17  H   UNL     1      47.797   9.624  13.976  0.00  0.00    +0.000 HD
ENDBRANCH   3  15
ENDBRANCH   1   3
BRANCH   1  18
ATOM     18  C   UNL     1      47.672   6.050  13.761  0.00  0.00    +0.000 C 
BRANCH  18  19
ATOM     19  C   UNL     1      46.635   5.636  12.734  0.00  0.00    +0.000 A 
ATOM     20  C   UNL     1      46.517   6.326  11.532  0.00  0.00    +0.000 A 
ATOM     21  C   UNL     1      45.586   5.888  10.596  0.00  0.00    +0.000 A 
ATOM     22  C   UNL     1      44.796   4.767  10.865  0.00  0.00    +0.000 A 
ATOM     23  C   UNL     1      44.977   4.146  12.093  0.00  0.00    +0.000 A 
ATOM     24  N   UNL     1      45.872   4.549  13.023  0.00  0.00    +0.000 NA
BRANCH  22  25
ATOM     25  C   UNL     1      43.805   4.249   9.859  0.00  0.00    +0.000 C 
BRANCH  25  26
ATOM     26  N   UNL     1      44.501   3.748   8.675  0.00  0.00    +0.000 NA
ATOM     27  H   UNL     1      45.349   4.302   8.539  0.00  0.00    +0.000 HD
BRANCH  26  28
ATOM     28  C   UNL     1      44.883   2.352   8.825  0.00  0.00    +0.000 C 
BRANCH  28  29
ATOM     29  C   UNL     1      46.097   2.114   8.011  0.00  0.00    +0.000 A 
ATOM     30  C   UNL     1      46.811   0.975   7.708  0.00  0.00    +0.000 A 
ATOM     31  N   UNL     1      47.889   1.272   6.913  0.00  0.00    +0.000 NA
ATOM     32  C   UNL     1      47.844   2.571   6.735  0.00  0.00    +0.000 A 
ATOM     33  N   UNL     1      46.775   3.126   7.375  0.00  0.00    +0.000 N 
ATOM     34  H   UNL     1      46.540   4.109   7.419  0.00  0.00    +0.000 HD
ENDBRANCH  28  29
ENDBRANCH  26  28
ENDBRANCH  25  26
ENDBRANCH  22  25
ENDBRANCH  18  19
ENDBRANCH   1  18
TORSDOF 9
ENDMDL
MODEL 9
REMARK VINA RESULT:    -6.798      3.584      8.722
REMARK INTER + INTRA:         -10.880
REMARK INTER:                  -9.683
REMARK INTRA:                  -1.197
REMARK UNBOUND:                -0.704
REMARK  Name = 
REMARK  9 active torsions:
REMARK  status: ('A' for Active; 'I' for Inactive)
REMARK    1  A    between atoms: N_1  and  C_2
REMARK    2  A    between atoms: C_2  and  N_3
REMARK    3  A    between atoms: C_2  and  C_19
REMARK    4  A    between atoms: N_3  and  C_4
REMARK    5  A    between atoms: C_4  and  C_5
REMARK    6  A    between atoms: C_8  and  C_9
REMARK    7  A    between atoms: C_9  and  N_10
REMARK    8  A    between atoms: N_10  and  C_11
REMARK    9  A    between atoms: C_11  and  C_12
REMARK                            x       y       z     vdW  Elec       q    Type
REMARK                         _______ _______ _______ _____ _____    ______ ____
ROOT
ATOM      1  N   UNL     1      47.248   6.695  12.203  0.00  0.00    +0.000 NA
ATOM      2  H   UNL     1      48.017   6.273  11.674  0.00  0.00    +0.000 HD
ENDROOT
BRANCH   1   3
ATOM      3  C   UNL     1      46.209   7.005  11.245  0.00  0.00    +0.000 C 
BRANCH   3   4
ATOM      4  C   UNL     1      45.627   5.731  10.640  0.00  0.00    +0.000 A 
ATOM      5  C   UNL     1      45.729   5.418   9.286  0.00  0.00    +0.000 A 
ATOM      6  S   UNL     1      44.897   4.005   8.828  0.00  0.00    +0.000 S 
ATOM      7  C   UNL     1      44.423   3.707  10.432  0.00  0.00    +0.000 A 
ATOM      8  N   UNL     1      43.642   2.635  10.737  0.00  0.00    +0.000 NA
ATOM      9  C   UNL     1      43.367   2.523  11.994  0.00  0.00    +0.000 A 
ATOM     10  N   UNL     1      43.828   3.363  12.975  0.00  0.00    +0.000 N 
ATOM     11  C   UNL     1      44.663   4.428  12.720  0.00  0.00    +0.000 A 
ATOM     12  O   UNL     1      45.153   5.096  13.627  0.00  0.00    +0.000 OA
ATOM     13  C   UNL     1      44.930   4.649  11.309  0.00  0.00    +0.000 A 
ATOM     14  H   UNL     1      43.610   3.183  13.943  0.00  0.00    +0.000 HD
ENDBRANCH   3   4
BRANCH   3  15
ATOM     15  N   UNL     1      45.144   7.609  12.013  0.00  0.00    +0.000 NA
ATOM     16  H   UNL     1      44.534   6.890  12.382  0.00  0.00    +0.000 HD
ATOM     17  H   UNL     1      44.584   8.119  11.328  0.00  0.00    +0.000 HD
ENDBRANCH   3  15
ENDBRANCH   1   3
BRANCH   1  18
ATOM     18  C   UNL     1      47.810   7.877  12.882  0.00  0.00    +0.000 C 
BRANCH  18  19
ATOM     19  C   UNL     1      48.269   7.596  14.301  0.00  0.00    +0.000 A 
ATOM     20  C   UNL     1      48.269   8.607  15.257  0.00  0.00    +0.000 A 
ATOM     21  C   UNL     1      48.653   8.299  16.558  0.00  0.00    +0.000 A 
ATOM     22  C   UNL     1      49.020   6.992  16.890  0.00  0.00    +0.000 A 
ATOM     23  C   UNL     1      48.997   6.051  15.870  0.00  0.00    +0.000 A 
ATOM     24  N   UNL     1      48.630   6.320  14.597  0.00  0.00    +0.000 NA
BRANCH  22  25
ATOM     25  C   UNL     1      49.407   6.622  18.295  0.00  0.00    +0.000 C 
BRANCH  25  26
ATOM     26  N   UNL     1      48.573   5.520  18.776  0.00  0.00    +0.000 NA
ATOM     27  H   UNL     1      48.033   5.156  17.989  0.00  0.00    +0.000 HD
BRANCH  26  28
ATOM     28  C   UNL     1      49.377   4.436  19.322  0.00  0.00    +0.000 C 
BRANCH  28  29
ATOM     29  C   UNL     1      49.578   3.427  18.257  0.00  0.00    +0.000 A 
ATOM     30  C   UNL     1      48.736   2.888  17.309  0.00  0.00    +0.000 A 
ATOM     31  N   UNL     1      49.393   1.960  16.542  0.00  0.00    +0.000 NA
ATOM     32  C   UNL     1      50.617   1.922  17.014  0.00  0.00    +0.000 A 
ATOM     33  N   UNL     1      50.781   2.795  18.049  0.00  0.00    +0.000 N 
ATOM     34  H   UNL     1      51.618   2.929  18.602  0.00  0.00    +0.000 HD
ENDBRANCH  28  29
ENDBRANCH  26  28
ENDBRANCH  25  26
ENDBRANCH  22  25
ENDBRANCH  18  19
ENDBRANCH   1  18
TORSDOF 9
ENDMDL
