MODEL 1
REMARK VINA RESULT:    -8.123      0.000      0.000
REMARK INTER + INTRA:         -13.495
REMARK INTER:                 -12.634
REMARK INTRA:                  -0.862
REMARK UNBOUND:                -0.862
REMARK  Name = 
REMARK  11 active torsions:
REMARK  status: ('A' for Active; 'I' for Inactive)
REMARK    1  A    between atoms: C_1  and  O_2
REMARK    2  A    between atoms: O_2  and  C_3
REMARK    3  A    between atoms: C_10  and  C_11
REMARK    4  A    between atoms: N_13  and  C_14
REMARK    5  A    between atoms: C_14  and  C_15
REMARK    6  A    between atoms: C_18  and  C_19
REMARK    7  A    between atoms: C_19  and  N_20
REMARK    8  A    between atoms: N_20  and  CA_21
REMARK    9  A    between atoms: CA_21  and  C_22
REMARK   10  A    between atoms: CA_21  and  C_24
REMARK   11  A    between atoms: C_22  and  O_23
REMARK                            x       y       z     vdW  Elec       q    Type
REMARK                         _______ _______ _______ _____ _____    ______ ____
ROOT
ATOM      1  C   UNL     1      46.394   7.514  12.550  0.00  0.00    +0.000 A 
ATOM      2  C   UNL     1      45.150   8.066  12.220  0.00  0.00    +0.000 A 
ATOM      3  C   UNL     1      44.233   7.346  11.445  0.00  0.00    +0.000 A 
ATOM      4  C   UNL     1      44.535   6.056  10.984  0.00  0.00    +0.000 A 
ATOM      5  C   UNL     1      45.799   5.525  11.277  0.00  0.00    +0.000 A 
ATOM      6  C   UNL     1      46.715   6.243  12.056  0.00  0.00    +0.000 A 
ENDROOT
BRANCH   1   7
ATOM      7  C   UNL     1      47.341   8.246  13.469  0.00  0.00    +0.000 C 
BRANCH   7  10
ATOM      8  C   UNL     1      48.847   6.886  14.851  0.00  0.00    +0.000 C 
ATOM      9  O   UNL     1      49.730   6.982  13.995  0.00  0.00    +0.000 OA
ATOM     10  N   UNL     1      47.626   7.478  14.662  0.00  0.00    +0.000 N 
ATOM     11  H   UNL     1      46.905   7.406  15.369  0.00  0.00    +0.000 HD
BRANCH   8  19
ATOM     12  C   UNL     1      47.331   4.166  16.342  0.00  0.00    +0.000 A 
ATOM     13  N   UNL     1      46.915   3.169  17.153  0.00  0.00    +0.000 NA
ATOM     14  C   UNL     1      47.571   2.975  18.300  0.00  0.00    +0.000 A 
ATOM     15  N   UNL     1      48.616   3.663  18.748  0.00  0.00    +0.000 NA
ATOM     16  C   UNL     1      48.987   4.654  17.919  0.00  0.00    +0.000 A 
ATOM     17  S   UNL     1      50.311   5.632  18.333  0.00  0.00    +0.000 S 
ATOM     18  C   UNL     1      50.135   6.550  16.916  0.00  0.00    +0.000 A 
ATOM     19  C   UNL     1      49.082   6.143  16.102  0.00  0.00    +0.000 A 
ATOM     20  C   UNL     1      48.403   4.997  16.702  0.00  0.00    +0.000 A 
BRANCH  12  22
ATOM     21  C   UNL     1      47.052   3.421  14.152  0.00  0.00    +0.000 C 
ATOM     22  O   UNL     1      46.656   4.357  15.154  0.00  0.00    +0.000 OA
ENDBRANCH  12  22
ENDBRANCH   8  19
ENDBRANCH   7  10
ENDBRANCH   1   7
BRANCH   4  23
ATOM     23  C   UNL     1      43.491   5.222  10.264  0.00  0.00    +0.000 C 
BRANCH  23  24
ATOM     24  N   UNL     1      44.065   4.480   9.144  0.00  0.00    +0.000 NA
ATOM     25  H   UNL     1      44.679   5.119   8.634  0.00  0.00    +0.000 HD
BRANCH  24  26
ATOM     26  CA  UNL     1      44.885   3.312   9.557  0.00  0.00    +0.000 C 
BRANCH  26  27
ATOM     27  C   UNL     1      45.768   2.811   8.404  0.00  0.00    +0.000 A 
ATOM     28  C   UNL     1      46.095   3.628   7.321  0.00  0.00    +0.000 A 
ATOM     29  C   UNL     1      46.868   3.106   6.286  0.00  0.00    +0.000 A 
ATOM     30  C   UNL     1      47.283   1.782   6.346  0.00  0.00    +0.000 A 
ATOM     31  C   UNL     1      46.901   1.028   7.440  0.00  0.00    +0.000 A 
ATOM     32  N   UNL     1      46.150   1.505   8.457  0.00  0.00    +0.000 NA
ENDBRANCH  26  27
BRANCH  26  33
ATOM     33  C   UNL     1      44.071   2.098  10.086  0.00  0.00    +0.000 C 
BRANCH  33  34
ATOM     34  O   UNL     1      43.690   2.230  11.461  0.00  0.00    +0.000 OA
ATOM     35  H   UNL     1      44.221   1.585  11.972  0.00  0.00    +0.000 HD
ENDBRANCH  33  34
ENDBRANCH  26  33
ENDBRANCH  24  26
ENDBRANCH  23  24
ENDBRANCH   4  23
TORSDOF 10
ENDMDL
MODEL 2
REMARK VINA RESULT:    -7.902      1.500      1.746
REMARK INTER + INTRA:         -13.152
REMARK INTER:                 -12.114
REMARK INTRA:                  -1.038
REMARK UNBOUND:                -0.862
REMARK  Name = 
REMARK  11 active torsions:
REMARK  status: ('A' for Active; 'I' for Inactive)
REMARK    1  A    between atoms: C_1  and  O_2
REMARK    2  A    between atoms: O_2  and  C_3
REMARK    3  A    between atoms: C_10  and  C_11
REMARK    4  A    between atoms: N_13  and  C_14
REMARK    5  A    between atoms: C_14  and  C_15
REMARK    6  A    between atoms: C_18  and  C_19
REMARK    7  A    between atoms: C_19  and  N_20
REMARK    8  A    between atoms: N_20  and  CA_21
REMARK    9  A    between atoms: CA_21  and  C_22
REMARK   10  A    between atoms: CA_21  and  C_24
REMARK   11  A    between atoms: C_22  and  O_23
REMARK                            x       y       z     vdW  Elec       q    Type
REMARK                         _______ _______ _______ _____ _____    ______ ____
ROOT
ATOM      1  C   UNL     1      46.894   7.867  12.976  0.00  0.00    +0.000 A 
ATOM      2  C   UNL     1      46.072   8.622  12.128  0.00  0.00    +0.000 A 
ATOM      3  C   UNL     1      44.907   8.068  11.585  0.00  0.00    +0.000 A 
ATOM      4  C   UNL     1      44.531   6.749  11.879  0.00  0.00    +0.000 A 
ATOM      5  C   UNL     1      45.378   5.982  12.691  0.00  0.00    +0.000 A 
ATOM      6  C   UNL     1      46.542   6.536  13.238  0.00  0.00    +0.000 A 
ENDROOT
BRANCH   1   7
ATOM      7  C   UNL     1      48.093   8.493  13.642  0.00  0.00    +0.000 C 
BRANCH   7  10
ATOM      8  C   UNL     1      48.973   7.433  15.674  0.00  0.00    +0.000 C 
ATOM      9  O   UNL     1      49.802   6.816  15.002  0.00  0.00    +0.000 OA
ATOM     10  N   UNL     1      48.079   8.280  15.074  0.00  0.00    +0.000 N 
ATOM     11  H   UNL     1      47.405   8.793  15.628  0.00  0.00    +0.000 HD
BRANCH   8  19
ATOM     12  C   UNL     1      48.749   4.721  17.801  0.00  0.00    +0.000 A 
ATOM     13  N   UNL     1      48.629   3.869  18.840  0.00  0.00    +0.000 NA
ATOM     14  C   UNL     1      48.603   4.378  20.074  0.00  0.00    +0.000 A 
ATOM     15  N   UNL     1      48.690   5.662  20.409  0.00  0.00    +0.000 NA
ATOM     16  C   UNL     1      48.792   6.477  19.345  0.00  0.00    +0.000 A 
ATOM     17  S   UNL     1      48.917   8.152  19.589  0.00  0.00    +0.000 S 
ATOM     18  C   UNL     1      48.991   8.437  17.917  0.00  0.00    +0.000 A 
ATOM     19  C   UNL     1      48.924   7.284  17.140  0.00  0.00    +0.000 A 
ATOM     20  C   UNL     1      48.817   6.109  18.002  0.00  0.00    +0.000 A 
BRANCH  12  22
ATOM     21  C   UNL     1      47.479   4.009  15.981  0.00  0.00    +0.000 C 
ATOM     22  O   UNL     1      48.785   4.189  16.527  0.00  0.00    +0.000 OA
ENDBRANCH  12  22
ENDBRANCH   8  19
ENDBRANCH   7  10
ENDBRANCH   1   7
BRANCH   4  23
ATOM     23  C   UNL     1      43.200   6.194  11.405  0.00  0.00    +0.000 C 
BRANCH  23  24
ATOM     24  N   UNL     1      43.368   5.211  10.338  0.00  0.00    +0.000 NA
ATOM     25  H   UNL     1      43.854   5.673   9.568  0.00  0.00    +0.000 HD
BRANCH  24  26
ATOM     26  CA  UNL     1      44.184   4.033  10.734  0.00  0.00    +0.000 C 
BRANCH  26  27
ATOM     27  C   UNL     1      45.023   3.512   9.557  0.00  0.00    +0.000 A 
ATOM     28  C   UNL     1      45.557   4.373   8.598  0.00  0.00    +0.000 A 
ATOM     29  C   UNL     1      46.278   3.839   7.532  0.00  0.00    +0.000 A 
ATOM     30  C   UNL     1      46.437   2.463   7.438  0.00  0.00    +0.000 A 
ATOM     31  C   UNL     1      45.860   1.672   8.415  0.00  0.00    +0.000 A 
ATOM     32  N   UNL     1      45.154   2.161   9.458  0.00  0.00    +0.000 NA
ENDBRANCH  26  27
BRANCH  26  33
ATOM     33  C   UNL     1      43.369   2.835  11.295  0.00  0.00    +0.000 C 
BRANCH  33  34
ATOM     34  O   UNL     1      43.925   2.287  12.497  0.00  0.00    +0.000 OA
ATOM     35  H   UNL     1      43.792   2.950  13.206  0.00  0.00    +0.000 HD
ENDBRANCH  33  34
ENDBRANCH  26  33
ENDBRANCH  24  26
ENDBRANCH  23  24
ENDBRANCH   4  23
TORSDOF 10
ENDMDL
MODEL 3
REMARK VINA RESULT:    -7.220      5.091      9.854
REMARK INTER + INTRA:         -12.092
REMARK INTER:                 -10.938
REMARK INTRA:                  -1.154
REMARK UNBOUND:                -0.862
REMARK  Name = 
REMARK  11 active torsions:
REMARK  status: ('A' for Active; 'I' for Inactive)
REMARK    1  A    between atoms: C_1  and  O_2
REMARK    2  A    between atoms: O_2  and  C_3
REMARK    3  A    between atoms: C_10  and  C_11
REMARK    4  A    between atoms: N_13  and  C_14
REMARK    5  A    between atoms: C_14  and  C_15
REMARK    6  A    between atoms: C_18  and  C_19
REMARK    7  A    between atoms: C_19  and  N_20
REMARK    8  A    between atoms: N_20  and  CA_21
REMARK    9  A    between atoms: CA_21  and  C_22
REMARK   10  A    between atoms: CA_21  and  C_24
REMARK   11  A    between atoms: C_22  and  O_23
REMARK                            x       y       z     vdW  Elec       q    Type
REMARK                         _______ _______ _______ _____ _____    ______ ____
ROOT
ATOM      1  C   UNL     1      48.627   3.267  17.074  0.00  0.00    +0.000 A 
ATOM      2  C   UNL     1      49.295   2.081  16.741  0.00  0.00    +0.000 A 
ATOM      3  C   UNL     1      50.652   1.917  17.043  0.00  0.00    +0.000 A 
ATOM      4  C   UNL     1      51.374   2.933  17.687  0.00  0.00    +0.000 A 
ATOM      5  C   UNL     1      50.716   4.136  17.977  0.00  0.00    +0.000 A 
ATOM      6  C   UNL     1      49.356   4.298  17.680  0.00  0.00    +0.000 A 
ENDROOT
BRANCH   1   7
ATOM      7  C   UNL     1      47.144   3.405  16.843  0.00  0.00    +0.000 C 
BRANCH   7  10
ATOM      8  C   UNL     1      46.867   4.233  14.548  0.00  0.00    +0.000 C 
ATOM      9  O   UNL     1      47.156   3.120  14.104  0.00  0.00    +0.000 OA
ATOM     10  N   UNL     1      46.847   4.462  15.899  0.00  0.00    +0.000 N 
ATOM     11  H   UNL     1      46.602   5.374  16.262  0.00  0.00    +0.000 HD
BRANCH   8  19
ATOM     12  C   UNL     1      44.111   4.987  12.608  0.00  0.00    +0.000 A 
ATOM     13  N   UNL     1      43.207   5.498  11.747  0.00  0.00    +0.000 NA
ATOM     14  C   UNL     1      43.505   6.641  11.124  0.00  0.00    +0.000 A 
ATOM     15  N   UNL     1      44.616   7.357  11.260  0.00  0.00    +0.000 NA
ATOM     16  C   UNL     1      45.495   6.806  12.115  0.00  0.00    +0.000 A 
ATOM     17  S   UNL     1      46.970   7.590  12.412  0.00  0.00    +0.000 S 
ATOM     18  C   UNL     1      47.458   6.367  13.484  0.00  0.00    +0.000 A 
ATOM     19  C   UNL     1      46.527   5.345  13.642  0.00  0.00    +0.000 A 
ATOM     20  C   UNL     1      45.346   5.618  12.827  0.00  0.00    +0.000 A 
BRANCH  12  22
ATOM     21  C   UNL     1      43.638   2.719  12.349  0.00  0.00    +0.000 C 
ATOM     22  O   UNL     1      43.795   3.810  13.257  0.00  0.00    +0.000 OA
ENDBRANCH  12  22
ENDBRANCH   8  19
ENDBRANCH   7  10
ENDBRANCH   1   7
BRANCH   4  23
ATOM     23  C   UNL     1      52.806   2.704  18.138  0.00  0.00    +0.000 C 
BRANCH  23  24
ATOM     24  N   UNL     1      53.026   1.328  18.576  0.00  0.00    +0.000 NA
ATOM     25  H   UNL     1      52.428   0.726  18.008  0.00  0.00    +0.000 HD
BRANCH  24  26
ATOM     26  CA  UNL     1      54.425   0.860  18.398  0.00  0.00    +0.000 C 
BRANCH  26  27
ATOM     27  C   UNL     1      54.498  -0.673  18.333  0.00  0.00    +0.000 A 
ATOM     28  C   UNL     1      55.007  -1.338  17.217  0.00  0.00    +0.000 A 
ATOM     29  C   UNL     1      55.012  -2.730  17.199  0.00  0.00    +0.000 A 
ATOM     30  C   UNL     1      54.499  -3.428  18.285  0.00  0.00    +0.000 A 
ATOM     31  C   UNL     1      53.992  -2.700  19.346  0.00  0.00    +0.000 A 
ATOM     32  N   UNL     1      53.970  -1.350  19.389  0.00  0.00    +0.000 NA
ENDBRANCH  26  27
BRANCH  26  33
ATOM     33  C   UNL     1      55.415   1.330  19.499  0.00  0.00    +0.000 C 
BRANCH  33  34
ATOM     34  O   UNL     1      54.993   0.985  20.824  0.00  0.00    +0.000 OA
ATOM     35  H   UNL     1      54.027   1.141  20.870  0.00  0.00    +0.000 HD
ENDBRANCH  33  34
ENDBRANCH  26  33
ENDBRANCH  24  26
ENDBRANCH  23  24
ENDBRANCH   4  23
TORSDOF 10
ENDMDL
MODEL 4
REMARK VINA RESULT:    -7.205      3.068      4.230
REMARK INTER + INTRA:         -12.069
REMARK INTER:                 -10.753
REMARK INTRA:                  -1.316
REMARK UNBOUND:                -0.862
REMARK  Name = 
REMARK  11 active torsions:
REMARK  status: ('A' for Active; 'I' for Inactive)
REMARK    1  A    between atoms: C_1  and  O_2
REMARK    2  A    between atoms: O_2  and  C_3
REMARK    3  A    between atoms: C_10  and  C_11
REMARK    4  A    between atoms: N_13  and  C_14
REMARK    5  A    between atoms: C_14  and  C_15
REMARK    6  A    between atoms: C_18  and  C_19
REMARK    7  A    between atoms: C_19  and  N_20
REMARK    8  A    between atoms: N_20  and  CA_21
REMARK    9  A    between atoms: CA_21  and  C_22
REMARK   10  A    between atoms: CA_21  and  C_24
REMARK   11  A    between atoms: C_22  and  O_23
REMARK                            x       y       z     vdW  Elec       q    Type
REMARK                         _______ _______ _______ _____ _____    ______ ____
ROOT
ATOM      1  C   UNL     1      49.027   6.589  15.429  0.00  0.00    +0.000 A 
ATOM      2  C   UNL     1      48.235   5.559  15.951  0.00  0.00    +0.000 A 
ATOM      3  C   UNL     1      47.227   4.971  15.178  0.00  0.00    +0.000 A 
ATOM      4  C   UNL     1      46.988   5.396  13.862  0.00  0.00    +0.000 A 
ATOM      5  C   UNL     1      47.752   6.458  13.358  0.00  0.00    +0.000 A 
ATOM      6  C   UNL     1      48.763   7.044  14.130  0.00  0.00    +0.000 A 
ENDROOT
BRANCH   1   7
ATOM      7  C   UNL     1      50.178   7.152  16.224  0.00  0.00    +0.000 C 
BRANCH   7  10
ATOM      8  C   UNL     1      51.242   5.848  18.011  0.00  0.00    +0.000 C 
ATOM      9  O   UNL     1      50.644   6.512  18.861  0.00  0.00    +0.000 OA
ATOM     10  N   UNL     1      51.073   6.109  16.677  0.00  0.00    +0.000 N 
ATOM     11  H   UNL     1      51.558   5.558  15.981  0.00  0.00    +0.000 HD
BRANCH   8  19
ATOM     12  C   UNL     1      51.306   2.452  17.388  0.00  0.00    +0.000 A 
ATOM     13  N   UNL     1      51.551   1.126  17.341  0.00  0.00    +0.000 NA
ATOM     14  C   UNL     1      52.617   0.658  17.996  0.00  0.00    +0.000 A 
ATOM     15  N   UNL     1      53.492   1.366  18.703  0.00  0.00    +0.000 NA
ATOM     16  C   UNL     1      53.203   2.678  18.736  0.00  0.00    +0.000 A 
ATOM     17  S   UNL     1      54.220   3.733  19.593  0.00  0.00    +0.000 S 
ATOM     18  C   UNL     1      53.252   5.068  19.190  0.00  0.00    +0.000 A 
ATOM     19  C   UNL     1      52.147   4.753  18.405  0.00  0.00    +0.000 A 
ATOM     20  C   UNL     1      52.128   3.319  18.126  0.00  0.00    +0.000 A 
BRANCH  12  22
ATOM     21  C   UNL     1      49.193   1.941  16.547  0.00  0.00    +0.000 C 
ATOM     22  O   UNL     1      50.208   2.932  16.702  0.00  0.00    +0.000 OA
ENDBRANCH  12  22
ENDBRANCH   8  19
ENDBRANCH   7  10
ENDBRANCH   1   7
BRANCH   4  23
ATOM     23  C   UNL     1      45.992   4.669  12.977  0.00  0.00    +0.000 C 
BRANCH  23  24
ATOM     24  N   UNL     1      44.756   5.428  12.810  0.00  0.00    +0.000 NA
ATOM     25  H   UNL     1      44.976   6.255  12.252  0.00  0.00    +0.000 HD
BRANCH  24  26
ATOM     26  CA  UNL     1      43.687   4.682  12.096  0.00  0.00    +0.000 C 
BRANCH  26  27
ATOM     27  C   UNL     1      44.201   4.102  10.769  0.00  0.00    +0.000 A 
ATOM     28  C   UNL     1      44.092   2.743  10.471  0.00  0.00    +0.000 A 
ATOM     29  C   UNL     1      44.611   2.269   9.268  0.00  0.00    +0.000 A 
ATOM     30  C   UNL     1      45.237   3.153   8.399  0.00  0.00    +0.000 A 
ATOM     31  C   UNL     1      45.325   4.482   8.773  0.00  0.00    +0.000 A 
ATOM     32  N   UNL     1      44.835   4.970   9.934  0.00  0.00    +0.000 NA
ENDBRANCH  26  27
BRANCH  26  33
ATOM     33  C   UNL     1      42.411   5.511  11.782  0.00  0.00    +0.000 C 
BRANCH  33  34
ATOM     34  O   UNL     1      42.694   6.768  11.154  0.00  0.00    +0.000 OA
ATOM     35  H   UNL     1      43.061   7.360  11.842  0.00  0.00    +0.000 HD
ENDBRANCH  33  34
ENDBRANCH  26  33
ENDBRANCH  24  26
ENDBRANCH  23  24
ENDBRANCH   4  23
TORSDOF 10
ENDMDL
MODEL 5
REMARK VINA RESULT:    -7.184      1.800      2.420
REMARK INTER + INTRA:         -12.035
REMARK INTER:                 -11.407
REMARK INTRA:                  -0.628
REMARK UNBOUND:                -0.862
REMARK  Name = 
REMARK  11 active torsions:
REMARK  status: ('A' for Active; 'I' for Inactive)
REMARK    1  A    between atoms: C_1  and  O_2
REMARK    2  A    between atoms: O_2  and  C_3
REMARK    3  A    between atoms: C_10  and  C_11
REMARK    4  A    between atoms: N_13  and  C_14
REMARK    5  A    between atoms: C_14  and  C_15
REMARK    6  A    between atoms: C_18  and  C_19
REMARK    7  A    between atoms: C_19  and  N_20
REMARK    8  A    between atoms: N_20  and  CA_21
REMARK    9  A    between atoms: CA_21  and  C_22
REMARK   10  A    between atoms: CA_21  and  C_24
REMARK   11  A    between atoms: C_22  and  O_23
REMARK                            x       y       z     vdW  Elec       q    Type
REMARK                         _______ _______ _______ _____ _____    ______ ____
ROOT
ATOM      1  C   UNL     1      46.762   6.498  13.396  0.00  0.00    +0.000 A 
ATOM      2  C   UNL     1      47.170   5.161  13.498  0.00  0.00    +0.000 A 
ATOM      3  C   UNL     1      46.350   4.127  13.029  0.00  0.00    +0.000 A 
ATOM      4  C   UNL     1      45.106   4.404  12.444  0.00  0.00    +0.000 A 
ATOM      5  C   UNL     1      44.681   5.738  12.385  0.00  0.00    +0.000 A 
ATOM      6  C   UNL     1      45.502   6.773  12.850  0.00  0.00    +0.000 A 
ENDROOT
BRANCH   1   7
ATOM      7  C   UNL     1      47.686   7.616  13.807  0.00  0.00    +0.000 C 
BRANCH   7  10
ATOM      8  C   UNL     1      49.074   7.132  15.773  0.00  0.00    +0.000 C 
ATOM      9  O   UNL     1      49.950   6.656  15.047  0.00  0.00    +0.000 OA
ATOM     10  N   UNL     1      47.913   7.622  15.237  0.00  0.00    +0.000 N 
ATOM     11  H   UNL     1      47.199   8.020  15.833  0.00  0.00    +0.000 HD
BRANCH   8  19
ATOM     12  C   UNL     1      48.695   4.845  18.333  0.00  0.00    +0.000 A 
ATOM     13  N   UNL     1      48.593   4.187  19.508  0.00  0.00    +0.000 NA
ATOM     14  C   UNL     1      48.884   4.850  20.630  0.00  0.00    +0.000 A 
ATOM     15  N   UNL     1      49.280   6.115  20.729  0.00  0.00    +0.000 NA
ATOM     16  C   UNL     1      49.354   6.738  19.540  0.00  0.00    +0.000 A 
ATOM     17  S   UNL     1      49.847   8.360  19.479  0.00  0.00    +0.000 S 
ATOM     18  C   UNL     1      49.682   8.396  17.790  0.00  0.00    +0.000 A 
ATOM     19  C   UNL     1      49.254   7.194  17.235  0.00  0.00    +0.000 A 
ATOM     20  C   UNL     1      49.069   6.198  18.287  0.00  0.00    +0.000 A 
BRANCH  12  22
ATOM     21  C   UNL     1      49.179   2.964  17.046  0.00  0.00    +0.000 C 
ATOM     22  O   UNL     1      48.401   4.154  17.176  0.00  0.00    +0.000 OA
ENDBRANCH  12  22
ENDBRANCH   8  19
ENDBRANCH   7  10
ENDBRANCH   1   7
BRANCH   4  23
ATOM     23  C   UNL     1      44.280   3.298  11.811  0.00  0.00    +0.000 C 
BRANCH  23  24
ATOM     24  N   UNL     1      45.028   2.581  10.781  0.00  0.00    +0.000 NA
ATOM     25  H   UNL     1      44.811   1.588  10.880  0.00  0.00    +0.000 HD
BRANCH  24  26
ATOM     26  CA  UNL     1      44.669   2.978   9.395  0.00  0.00    +0.000 C 
BRANCH  26  27
ATOM     27  C   UNL     1      45.700   2.461   8.380  0.00  0.00    +0.000 A 
ATOM     28  C   UNL     1      46.038   1.110   8.300  0.00  0.00    +0.000 A 
ATOM     29  C   UNL     1      47.008   0.705   7.386  0.00  0.00    +0.000 A 
ATOM     30  C   UNL     1      47.628   1.655   6.584  0.00  0.00    +0.000 A 
ATOM     31  C   UNL     1      47.255   2.978   6.735  0.00  0.00    +0.000 A 
ATOM     32  N   UNL     1      46.321   3.401   7.616  0.00  0.00    +0.000 NA
ENDBRANCH  26  27
BRANCH  26  33
ATOM     33  C   UNL     1      44.520   4.509   9.173  0.00  0.00    +0.000 C 
BRANCH  33  34
ATOM     34  O   UNL     1      43.196   4.991   9.434  0.00  0.00    +0.000 OA
ATOM     35  H   UNL     1      42.576   4.261   9.232  0.00  0.00    +0.000 HD
ENDBRANCH  33  34
ENDBRANCH  26  33
ENDBRANCH  24  26
ENDBRANCH  23  24
ENDBRANCH   4  23
TORSDOF 10
ENDMDL
MODEL 6
REMARK VINA RESULT:    -6.788      1.600      2.229
REMARK INTER + INTRA:         -11.420
REMARK INTER:                 -10.520
REMARK INTRA:                  -0.900
REMARK UNBOUND:                -0.862
REMARK  Name = 
REMARK  11 active torsions:
REMARK  status: ('A' for Active; 'I' for Inactive)
REMARK    1  A    between atoms: C_1  and  O_2
REMARK    2  A    between atoms: O_2  and  C_3
REMARK    3  A    between atoms: C_10  and  C_11
REMARK    4  A    between atoms: N_13  and  C_14
REMARK    5  A    between atoms: C_14  and  C_15
REMARK    6  A    between atoms: C_18  and  C_19
REMARK    7  A    between atoms: C_19  and  N_20
REMARK    8  A    between atoms: N_20  and  CA_21
REMARK    9  A    between atoms: CA_21  and  C_22
REMARK   10  A    between atoms: CA_21  and  C_24
REMARK   11  A    between atoms: C_22  and  O_23
REMARK                            x       y       z     vdW  Elec       q    Type
REMARK                         _______ _______ _______ _____ _____    ______ ____
ROOT
ATOM      1  C   UNL     1      46.780   7.793  12.963  0.00  0.00    +0.000 A 
ATOM      2  C   UNL     1      47.180   6.550  12.455  0.00  0.00    +0.000 A 
ATOM      3  C   UNL     1      46.310   5.787  11.667  0.00  0.00    +0.000 A 
ATOM      4  C   UNL     1      45.021   6.249  11.364  0.00  0.00    +0.000 A 
ATOM      5  C   UNL     1      44.607   7.471  11.912  0.00  0.00    +0.000 A 
ATOM      6  C   UNL     1      45.479   8.237  12.697  0.00  0.00    +0.000 A 
ENDROOT
BRANCH   1   7
ATOM      7  C   UNL     1      47.750   8.659  13.726  0.00  0.00    +0.000 C 
BRANCH   7  10
ATOM      8  C   UNL     1      49.356   8.119  15.503  0.00  0.00    +0.000 C 
ATOM      9  O   UNL     1      48.879   9.006  16.214  0.00  0.00    +0.000 OA
ATOM     10  N   UNL     1      48.858   7.887  14.248  0.00  0.00    +0.000 N 
ATOM     11  H   UNL     1      49.245   7.153  13.669  0.00  0.00    +0.000 HD
BRANCH   8  19
ATOM     12  C   UNL     1      49.525   5.146  17.252  0.00  0.00    +0.000 A 
ATOM     13  N   UNL     1      49.881   4.043  17.943  0.00  0.00    +0.000 NA
ATOM     14  C   UNL     1      51.183   3.792  18.104  0.00  0.00    +0.000 A 
ATOM     15  N   UNL     1      52.197   4.518  17.645  0.00  0.00    +0.000 NA
ATOM     16  C   UNL     1      51.800   5.614  16.976  0.00  0.00    +0.000 A 
ATOM     17  S   UNL     1      52.966   6.655  16.317  0.00  0.00    +0.000 S 
ATOM     18  C   UNL     1      51.766   7.689  15.708  0.00  0.00    +0.000 A 
ATOM     19  C   UNL     1      50.466   7.278  15.985  0.00  0.00    +0.000 A 
ATOM     20  C   UNL     1      50.491   6.025  16.737  0.00  0.00    +0.000 A 
BRANCH  12  22
ATOM     21  C   UNL     1      47.645   4.723  15.941  0.00  0.00    +0.000 C 
ATOM     22  O   UNL     1      48.178   5.396  17.081  0.00  0.00    +0.000 OA
ENDBRANCH  12  22
ENDBRANCH   8  19
ENDBRANCH   7  10
ENDBRANCH   1   7
BRANCH   4  23
ATOM     23  C   UNL     1      44.128   5.491  10.398  0.00  0.00    +0.000 C 
BRANCH  23  24
ATOM     24  N   UNL     1      44.887   4.927   9.284  0.00  0.00    +0.000 NA
ATOM     25  H   UNL     1      45.752   5.464   9.198  0.00  0.00    +0.000 HD
BRANCH  24  26
ATOM     26  CA  UNL     1      45.266   3.503   9.478  0.00  0.00    +0.000 C 
BRANCH  26  27
ATOM     27  C   UNL     1      45.954   2.933   8.228  0.00  0.00    +0.000 A 
ATOM     28  C   UNL     1      46.426   1.620   8.184  0.00  0.00    +0.000 A 
ATOM     29  C   UNL     1      47.076   1.171   7.037  0.00  0.00    +0.000 A 
ATOM     30  C   UNL     1      47.255   2.040   5.969  0.00  0.00    +0.000 A 
ATOM     31  C   UNL     1      46.779   3.333   6.095  0.00  0.00    +0.000 A 
ATOM     32  N   UNL     1      46.148   3.798   7.195  0.00  0.00    +0.000 NA
ENDBRANCH  26  27
BRANCH  26  33
ATOM     33  C   UNL     1      44.086   2.558   9.836  0.00  0.00    +0.000 C 
BRANCH  33  34
ATOM     34  O   UNL     1      44.003   2.264  11.235  0.00  0.00    +0.000 OA
ATOM     35  H   UNL     1      44.913   2.087  11.550  0.00  0.00    +0.000 HD
ENDBRANCH  33  34
ENDBRANCH  26  33
ENDBRANCH  24  26
ENDBRANCH  23  24
ENDBRANCH   4  23
TORSDOF 10
ENDMDL
MODEL 7
REMARK VINA RESULT:    -6.710      2.427      3.559
REMARK INTER + INTRA:         -11.298
REMARK INTER:                  -9.910
REMARK INTRA:                  -1.388
REMARK UNBOUND:                -0.862
REMARK  Name = 
REMARK  11 active torsions:
REMARK  status: ('A' for Active; 'I' for Inactive)
REMARK    1  A    between atoms: C_1  and  O_2
REMARK    2  A    between atoms: O_2  and  C_3
REMARK    3  A    between atoms: C_10  and  C_11
REMARK    4  A    between atoms: N_13  and  C_14
REMARK    5  A    between atoms: C_14  and  C_15
REMARK    6  A    between atoms: C_18  and  C_19
REMARK    7  A    between atoms: C_19  and  N_20
REMARK    8  A    between atoms: N_20  and  CA_21
REMARK    9  A    between atoms: CA_21  and  C_22
REMARK   10  A    between atoms: CA_21  and  C_24
REMARK   11  A    between atoms: C_22  and  O_23
REMARK                            x       y       z     vdW  Elec       q    Type
REMARK                         _______ _______ _______ _____ _____    ______ ____
ROOT
ATOM      1  C   UNL     1      49.377   8.440  12.484  0.00  0.00    +0.000 A 
ATOM      2  C   UNL     1      48.484   9.518  12.433  0.00  0.00    +0.000 A 
ATOM      3  C   UNL     1      47.111   9.300  12.267  0.00  0.00    +0.000 A 
ATOM      4  C   UNL     1      46.597   7.999  12.154  0.00  0.00    +0.000 A 
ATOM      5  C   UNL     1      47.498   6.926  12.159  0.00  0.00    +0.000 A 
ATOM      6  C   UNL     1      48.871   7.143  12.329  0.00  0.00    +0.000 A 
ENDROOT
BRANCH   1   7
ATOM      7  C   UNL     1      50.841   8.668  12.764  0.00  0.00    +0.000 C 
BRANCH   7  10
ATOM      8  C   UNL     1      52.088   8.236  14.834  0.00  0.00    +0.000 C 
ATOM      9  O   UNL     1      52.379   9.431  14.917  0.00  0.00    +0.000 OA
ATOM     10  N   UNL     1      51.334   7.772  13.788  0.00  0.00    +0.000 N 
ATOM     11  H   UNL     1      51.089   6.792  13.727  0.00  0.00    +0.000 HD
BRANCH   8  19
ATOM     12  C   UNL     1      50.501   5.773  16.662  0.00  0.00    +0.000 A 
ATOM     13  N   UNL     1      50.139   4.796  17.520  0.00  0.00    +0.000 NA
ATOM     14  C   UNL     1      51.077   4.275  18.315  0.00  0.00    +0.000 A 
ATOM     15  N   UNL     1      52.363   4.610  18.357  0.00  0.00    +0.000 NA
ATOM     16  C   UNL     1      52.678   5.595  17.499  0.00  0.00    +0.000 A 
ATOM     17  S   UNL     1      54.281   6.147  17.416  0.00  0.00    +0.000 S 
ATOM     18  C   UNL     1      53.878   7.284  16.223  0.00  0.00    +0.000 A 
ATOM     19  C   UNL     1      52.534   7.275  15.859  0.00  0.00    +0.000 A 
ATOM     20  C   UNL     1      51.820   6.252  16.619  0.00  0.00    +0.000 A 
BRANCH  12  22
ATOM     21  C   UNL     1      48.825   7.378  16.454  0.00  0.00    +0.000 C 
ATOM     22  O   UNL     1      49.530   6.302  15.836  0.00  0.00    +0.000 OA
ENDBRANCH  12  22
ENDBRANCH   8  19
ENDBRANCH   7  10
ENDBRANCH   1   7
BRANCH   4  23
ATOM     23  C   UNL     1      45.099   7.754  12.114  0.00  0.00    +0.000 C 
BRANCH  23  24
ATOM     24  N   UNL     1      44.719   6.876  11.010  0.00  0.00    +0.000 NA
ATOM     25  H   UNL     1      45.525   6.800  10.387  0.00  0.00    +0.000 HD
BRANCH  24  26
ATOM     26  CA  UNL     1      44.357   5.500  11.438  0.00  0.00    +0.000 C 
BRANCH  26  27
ATOM     27  C   UNL     1      44.641   4.476  10.328  0.00  0.00    +0.000 A 
ATOM     28  C   UNL     1      44.238   3.145  10.437  0.00  0.00    +0.000 A 
ATOM     29  C   UNL     1      44.558   2.253   9.415  0.00  0.00    +0.000 A 
ATOM     30  C   UNL     1      45.282   2.704   8.319  0.00  0.00    +0.000 A 
ATOM     31  C   UNL     1      45.665   4.032   8.292  0.00  0.00    +0.000 A 
ATOM     32  N   UNL     1      45.372   4.919   9.269  0.00  0.00    +0.000 NA
ENDBRANCH  26  27
BRANCH  26  33
ATOM     33  C   UNL     1      42.876   5.322  11.873  0.00  0.00    +0.000 C 
BRANCH  33  34
ATOM     34  O   UNL     1      42.679   5.470  13.284  0.00  0.00    +0.000 OA
ATOM     35  H   UNL     1      43.565   5.463  13.703  0.00  0.00    +0.000 HD
ENDBRANCH  33  34
ENDBRANCH  26  33
ENDBRANCH  24  26
ENDBRANCH  23  24
ENDBRANCH   4  23
TORSDOF 10
ENDMDL
MODEL 8
REMARK VINA RESULT:    -6.387      2.715      4.067
REMARK INTER + INTRA:         -10.795
REMARK INTER:                 -10.614
REMARK INTRA:                  -0.181
REMARK UNBOUND:                -0.862
REMARK  Name = 
REMARK  11 active torsions:
REMARK  status: ('A' for Active; 'I' for Inactive)
REMARK    1  A    between atoms: C_1  and  O_2
REMARK    2  A    between atoms: O_2  and  C_3
REMARK    3  A    between atoms: C_10  and  C_11
REMARK    4  A    between atoms: N_13  and  C_14
REMARK    5  A    between atoms: C_14  and  C_15
REMARK    6  A    between atoms: C_18  and  C_19
REMARK    7  A    between atoms: C_19  and  N_20
REMARK    8  A    between atoms: N_20  and  CA_21
REMARK    9  A    between atoms: CA_21  and  C_22
REMARK   10  A    between atoms: CA_21  and  C_24
REMARK   11  A    between atoms: C_22  and  O_23
REMARK                            x       y       z     vdW  Elec       q    Type
REMARK                         _______ _______ _______ _____ _____    ______ ____
ROOT
ATOM      1  C   UNL     1      45.665   6.476  12.894  0.00  0.00    +0.000 A 
ATOM      2  C   UNL     1      46.343   5.250  12.885  0.00  0.00    +0.000 A 
ATOM      3  C   UNL     1      45.724   4.096  12.389  0.00  0.00    +0.000 A 
ATOM      4  C   UNL     1      44.414   4.140  11.888  0.00  0.00    +0.000 A 
ATOM      5  C   UNL     1      43.723   5.358  11.941  0.00  0.00    +0.000 A 
ATOM      6  C   UNL     1      44.343   6.514  12.433  0.00  0.00    +0.000 A 
ENDROOT
BRANCH   1   7
ATOM      7  C   UNL     1      46.365   7.738  13.332  0.00  0.00    +0.000 C 
BRANCH   7  10
ATOM      8  C   UNL     1      48.529   8.441  14.254  0.00  0.00    +0.000 C 
ATOM      9  O   UNL     1      48.299   9.607  13.924  0.00  0.00    +0.000 OA
ATOM     10  N   UNL     1      47.623   7.449  13.988  0.00  0.00    +0.000 N 
ATOM     11  H   UNL     1      47.810   6.494  14.266  0.00  0.00    +0.000 HD
BRANCH   8  19
ATOM     12  C   UNL     1      51.865   8.480  13.361  0.00  0.00    +0.000 A 
ATOM     13  N   UNL     1      53.206   8.356  13.270  0.00  0.00    +0.000 NA
ATOM     14  C   UNL     1      53.870   7.892  14.332  0.00  0.00    +0.000 A 
ATOM     15  N   UNL     1      53.351   7.532  15.502  0.00  0.00    +0.000 NA
ATOM     16  C   UNL     1      52.013   7.656  15.544  0.00  0.00    +0.000 A 
ATOM     17  S   UNL     1      51.185   7.244  16.967  0.00  0.00    +0.000 S 
ATOM     18  C   UNL     1      49.690   7.636  16.265  0.00  0.00    +0.000 A 
ATOM     19  C   UNL     1      49.779   8.084  14.950  0.00  0.00    +0.000 A 
ATOM     20  C   UNL     1      51.176   8.106  14.526  0.00  0.00    +0.000 A 
BRANCH  12  22
ATOM     21  C   UNL     1      51.176  10.396  12.226  0.00  0.00    +0.000 C 
ATOM     22  O   UNL     1      51.184   8.969  12.264  0.00  0.00    +0.000 OA
ENDBRANCH  12  22
ENDBRANCH   8  19
ENDBRANCH   7  10
ENDBRANCH   1   7
BRANCH   4  23
ATOM     23  C   UNL     1      43.793   2.924  11.225  0.00  0.00    +0.000 C 
BRANCH  23  24
ATOM     24  N   UNL     1      44.688   2.326  10.237  0.00  0.00    +0.000 NA
ATOM     25  H   UNL     1      44.497   1.323  10.217  0.00  0.00    +0.000 HD
BRANCH  24  26
ATOM     26  CA  UNL     1      44.489   2.843   8.858  0.00  0.00    +0.000 C 
BRANCH  26  27
ATOM     27  C   UNL     1      45.667   2.470   7.945  0.00  0.00    +0.000 A 
ATOM     28  C   UNL     1      45.994   3.230   6.821  0.00  0.00    +0.000 A 
ATOM     29  C   UNL     1      47.049   2.820   6.009  0.00  0.00    +0.000 A 
ATOM     30  C   UNL     1      47.743   1.660   6.325  0.00  0.00    +0.000 A 
ATOM     31  C   UNL     1      47.347   0.948   7.443  0.00  0.00    +0.000 A 
ATOM     32  N   UNL     1      46.326   1.318   8.247  0.00  0.00    +0.000 NA
ENDBRANCH  26  27
BRANCH  26  33
ATOM     33  C   UNL     1      44.290   4.381   8.762  0.00  0.00    +0.000 C 
BRANCH  33  34
ATOM     34  O   UNL     1      45.513   5.118   8.873  0.00  0.00    +0.000 OA
ATOM     35  H   UNL     1      46.241   4.465   8.939  0.00  0.00    +0.000 HD
ENDBRANCH  33  34
ENDBRANCH  26  33
ENDBRANCH  24  26
ENDBRANCH  23  24
ENDBRANCH   4  23
TORSDOF 10
ENDMDL
MODEL 9
REMARK VINA RESULT:    -6.016      4.038      9.952
REMARK INTER + INTRA:         -10.219
REMARK INTER:                  -8.266
REMARK INTRA:                  -1.953
REMARK UNBOUND:                -0.862
REMARK  Name = 
REMARK  11 active torsions:
REMARK  status: ('A' for Active; 'I' for Inactive)
REMARK    1  A    between atoms: C_1  and  O_2
REMARK    2  A    between atoms: O_2  and  C_3
REMARK    3  A    between atoms: C_10  and  C_11
REMARK    4  A    between atoms: N_13  and  C_14
REMARK    5  A    between atoms: C_14  and  C_15
REMARK    6  A    between atoms: C_18  and  C_19
REMARK    7  A    between atoms: C_19  and  N_20
REMARK    8  A    between atoms: N_20  and  CA_21
REMARK    9  A    between atoms: CA_21  and  C_22
REMARK   10  A    between atoms: CA_21  and  C_24
REMARK   11  A    between atoms: C_22  and  O_23
REMARK                            x       y       z     vdW  Elec       q    Type
REMARK                         _______ _______ _______ _____ _____    ______ ____
ROOT
ATOM      1  C   UNL     1      48.914   3.351  17.057  0.00  0.00    +0.000 A 
ATOM      2  C   UNL     1      49.598   2.130  16.992  0.00  0.00    +0.000 A 
ATOM      3  C   UNL     1      50.947   2.046  17.356  0.00  0.00    +0.000 A 
ATOM      4  C   UNL     1      51.645   3.180  17.798  0.00  0.00    +0.000 A 
ATOM      5  C   UNL     1      50.972   4.409  17.818  0.00  0.00    +0.000 A 
ATOM      6  C   UNL     1      49.621   4.492  17.458  0.00  0.00    +0.000 A 
ENDROOT
BRANCH   1   7
ATOM      7  C   UNL     1      47.437   3.422  16.763  0.00  0.00    +0.000 C 
BRANCH   7  10
ATOM      8  C   UNL     1      47.000   4.307  14.515  0.00  0.00    +0.000 C 
ATOM      9  O   UNL     1      47.169   3.185  14.033  0.00  0.00    +0.000 OA
ATOM     10  N   UNL     1      47.124   4.513  15.864  0.00  0.00    +0.000 N 
ATOM     11  H   UNL     1      46.977   5.432  16.259  0.00  0.00    +0.000 HD
BRANCH   8  19
ATOM     12  C   UNL     1      48.574   7.280  13.735  0.00  0.00    +0.000 A 
ATOM     13  N   UNL     1      48.932   8.506  13.296  0.00  0.00    +0.000 NA
ATOM     14  C   UNL     1      48.099   9.151  12.476  0.00  0.00    +0.000 A 
ATOM     15  N   UNL     1      46.929   8.714  12.023  0.00  0.00    +0.000 NA
ATOM     16  C   UNL     1      46.603   7.498  12.495  0.00  0.00    +0.000 A 
ATOM     17  S   UNL     1      45.140   6.784  12.016  0.00  0.00    +0.000 S 
ATOM     18  C   UNL     1      45.447   5.409  12.963  0.00  0.00    +0.000 A 
ATOM     19  C   UNL     1      46.651   5.455  13.658  0.00  0.00    +0.000 A 
ATOM     20  C   UNL     1      47.347   6.705  13.366  0.00  0.00    +0.000 A 
BRANCH  12  22
ATOM     21  C   UNL     1      50.154   7.505  15.433  0.00  0.00    +0.000 C 
ATOM     22  O   UNL     1      49.442   6.614  14.576  0.00  0.00    +0.000 OA
ENDBRANCH  12  22
ENDBRANCH   8  19
ENDBRANCH   7  10
ENDBRANCH   1   7
BRANCH   4  23
ATOM     23  C   UNL     1      53.065   3.065  18.324  0.00  0.00    +0.000 C 
BRANCH  23  24
ATOM     24  N   UNL     1      53.418   4.188  19.189  0.00  0.00    +0.000 NA
ATOM     25  H   UNL     1      53.775   3.800  20.064  0.00  0.00    +0.000 HD
BRANCH  24  26
ATOM     26  CA  UNL     1      54.477   5.066  18.627  0.00  0.00    +0.000 C 
BRANCH  26  27
ATOM     27  C   UNL     1      54.191   6.546  18.921  0.00  0.00    +0.000 A 
ATOM     28  C   UNL     1      53.027   6.954  19.573  0.00  0.00    +0.000 A 
ATOM     29  C   UNL     1      52.804   8.314  19.778  0.00  0.00    +0.000 A 
ATOM     30  C   UNL     1      53.736   9.234  19.318  0.00  0.00    +0.000 A 
ATOM     31  C   UNL     1      54.856   8.756  18.662  0.00  0.00    +0.000 A 
ATOM     32  N   UNL     1      55.097   7.444  18.446  0.00  0.00    +0.000 NA
ENDBRANCH  26  27
BRANCH  26  33
ATOM     33  C   UNL     1      54.695   4.926  17.095  0.00  0.00    +0.000 C 
BRANCH  33  34
ATOM     34  O   UNL     1      53.919   5.852  16.327  0.00  0.00    +0.000 OA
ATOM     35  H   UNL     1      54.517   6.250  15.661  0.00  0.00    +0.000 HD
ENDBRANCH  33  34
ENDBRANCH  26  33
ENDBRANCH  24  26
ENDBRANCH  23  24
ENDBRANCH   4  23
TORSDOF 10
ENDMDL
