MODEL 1
REMARK VINA RESULT:    -7.621      0.000      0.000
REMARK INTER + INTRA:         -10.142
REMARK INTER:                  -9.403
REMARK INTRA:                  -0.739
REMARK UNBOUND:                -0.739
REMARK  Name = 
REMARK  4 active torsions:
REMARK  status: ('A' for Active; 'I' for Inactive)
REMARK    1  A    between atoms: C_2  and  C_4
REMARK    2  A    between atoms: N_8  and  C_9
REMARK    3  A    between atoms: C_9  and  C_10
REMARK    4  A    between atoms: C_14  and  N_15
REMARK                            x       y       z     vdW  Elec       q    Type
REMARK                         _______ _______ _______ _____ _____    ______ ____
ROOT
ATOM      1  C   UNL     1      46.430   2.219   7.494  0.00  0.00    +0.000 A 
ATOM      2  C   UNL     1      46.043   1.922   8.796  0.00  0.00    +0.000 A 
ATOM      3  C   UNL     1      45.244   2.829   9.492  0.00  0.00    +0.000 A 
ATOM      4  C   UNL     1      44.848   4.015   8.883  0.00  0.00    +0.000 A 
ATOM      5  N   UNL     1      44.001   4.919   9.458  0.00  0.00    +0.000 N 
ATOM      6  N   UNL     1      45.251   4.328   7.634  0.00  0.00    +0.000 NA
ATOM      7  C   UNL     1      46.035   3.438   6.970  0.00  0.00    +0.000 A 
ATOM      8  H   UNL     1      43.891   5.762   8.913  0.00  0.00    +0.000 HD
ENDROOT
BRANCH   1  10
ATOM      9  N   UNL     1      48.301   1.829   6.002  0.00  0.00    +0.000 N 
ATOM     10  C   UNL     1      47.231   1.295   6.670  0.00  0.00    +0.000 C 
ATOM     11  O   UNL     1      46.982   0.099   6.613  0.00  0.00    +0.000 OA
ATOM     12  H   UNL     1      48.910   1.172   5.530  0.00  0.00    +0.000 HD
ATOM     13  H   UNL     1      48.684   2.736   6.230  0.00  0.00    +0.000 HD
ENDBRANCH   1  10
BRANCH   5  14
ATOM     14  C   UNL     1      43.432   4.854  10.780  0.00  0.00    +0.000 C 
BRANCH  14  15
ATOM     15  C   UNL     1      44.460   5.100  11.857  0.00  0.00    +0.000 A 
ATOM     16  C   UNL     1      44.563   4.238  12.954  0.00  0.00    +0.000 A 
ATOM     17  C   UNL     1      45.543   4.457  13.917  0.00  0.00    +0.000 A 
ATOM     18  C   UNL     1      46.430   5.525  13.782  0.00  0.00    +0.000 A 
ATOM     19  C   UNL     1      46.378   6.404  12.688  0.00  0.00    +0.000 A 
ATOM     20  C   UNL     1      45.365   6.173  11.745  0.00  0.00    +0.000 A 
BRANCH  19  21
ATOM     21  N   UNL     1      47.266   7.464  12.592  0.00  0.00    +0.000 N 
ATOM     22  C   UNL     1      46.841   8.808  13.001  0.00  0.00    +0.000 C 
ATOM     23  C   UNL     1      47.405   9.826  12.010  0.00  0.00    +0.000 C 
ATOM     24  C   UNL     1      48.918   9.678  11.850  0.00  0.00    +0.000 C 
ATOM     25  C   UNL     1      49.306   8.233  11.540  0.00  0.00    +0.000 C 
ATOM     26  C   UNL     1      48.714   7.265  12.562  0.00  0.00    +0.000 C 
ENDBRANCH  19  21
ENDBRANCH  14  15
ENDBRANCH   5  14
TORSDOF 4
ENDMDL
MODEL 2
REMARK VINA RESULT:    -7.561      2.893      6.931
REMARK INTER + INTRA:         -10.068
REMARK INTER:                  -9.255
REMARK INTRA:                  -0.813
REMARK UNBOUND:                -0.739
REMARK  Name = 
REMARK  4 active torsions:
REMARK  status: ('A' for Active; 'I' for Inactive)
REMARK    1  A    between atoms: C_2  and  C_4
REMARK    2  A    between atoms: N_8  and  C_9
REMARK    3  A    between atoms: C_9  and  C_10
REMARK    4  A    between atoms: C_14  and  N_15
REMARK                            x       y       z     vdW  Elec       q    Type
REMARK                         _______ _______ _______ _____ _____    ______ ____
ROOT
ATOM      1  C   UNL     1      49.902   7.994  12.480  0.00  0.00    +0.000 A 
ATOM      2  C   UNL     1      48.898   8.076  11.522  0.00  0.00    +0.000 A 
ATOM      3  C   UNL     1      47.634   7.568  11.817  0.00  0.00    +0.000 A 
ATOM      4  C   UNL     1      47.391   6.986  13.056  0.00  0.00    +0.000 A 
ATOM      5  N   UNL     1      46.165   6.538  13.459  0.00  0.00    +0.000 N 
ATOM      6  N   UNL     1      48.370   6.868  13.977  0.00  0.00    +0.000 NA
ATOM      7  C   UNL     1      49.600   7.361  13.673  0.00  0.00    +0.000 A 
ATOM      8  H   UNL     1      46.189   6.066  14.352  0.00  0.00    +0.000 HD
ENDROOT
BRANCH   1  10
ATOM      9  N   UNL     1      52.238   8.122  13.119  0.00  0.00    +0.000 N 
ATOM     10  C   UNL     1      51.252   8.551  12.270  0.00  0.00    +0.000 C 
ATOM     11  O   UNL     1      51.496   9.327  11.357  0.00  0.00    +0.000 OA
ATOM     12  H   UNL     1      53.181   8.420  12.901  0.00  0.00    +0.000 HD
ATOM     13  H   UNL     1      52.133   7.302  13.701  0.00  0.00    +0.000 HD
ENDBRANCH   1  10
BRANCH   5  14
ATOM     14  C   UNL     1      44.950   6.522  12.685  0.00  0.00    +0.000 C 
BRANCH  14  15
ATOM     15  C   UNL     1      44.639   5.149  12.140  0.00  0.00    +0.000 A 
ATOM     16  C   UNL     1      43.826   4.265  12.857  0.00  0.00    +0.000 A 
ATOM     17  C   UNL     1      43.518   3.019  12.322  0.00  0.00    +0.000 A 
ATOM     18  C   UNL     1      44.006   2.657  11.067  0.00  0.00    +0.000 A 
ATOM     19  C   UNL     1      44.808   3.518  10.301  0.00  0.00    +0.000 A 
ATOM     20  C   UNL     1      45.123   4.759  10.877  0.00  0.00    +0.000 A 
BRANCH  19  21
ATOM     21  N   UNL     1      45.289   3.121   9.063  0.00  0.00    +0.000 N 
ATOM     22  C   UNL     1      45.235   1.705   8.683  0.00  0.00    +0.000 C 
ATOM     23  C   UNL     1      46.525   1.343   7.946  0.00  0.00    +0.000 C 
ATOM     24  C   UNL     1      46.789   2.289   6.774  0.00  0.00    +0.000 C 
ATOM     25  C   UNL     1      46.717   3.751   7.213  0.00  0.00    +0.000 C 
ATOM     26  C   UNL     1      45.408   4.051   7.941  0.00  0.00    +0.000 C 
ENDBRANCH  19  21
ENDBRANCH  14  15
ENDBRANCH   5  14
TORSDOF 4
ENDMDL
MODEL 3
REMARK VINA RESULT:    -7.466      4.546      8.378
REMARK INTER + INTRA:          -9.951
REMARK INTER:                  -9.441
REMARK INTRA:                  -0.509
REMARK UNBOUND:                -0.739
REMARK  Name = 
REMARK  4 active torsions:
REMARK  status: ('A' for Active; 'I' for Inactive)
REMARK    1  A    between atoms: C_2  and  C_4
REMARK    2  A    between atoms: N_8  and  C_9
REMARK    3  A    between atoms: C_9  and  C_10
REMARK    4  A    between atoms: C_14  and  N_15
REMARK                            x       y       z     vdW  Elec       q    Type
REMARK                         _______ _______ _______ _____ _____    ______ ____
ROOT
ATOM      1  C   UNL     1      48.638   4.418  18.224  0.00  0.00    +0.000 A 
ATOM      2  C   UNL     1      48.625   5.496  17.346  0.00  0.00    +0.000 A 
ATOM      3  C   UNL     1      47.925   5.386  16.145  0.00  0.00    +0.000 A 
ATOM      4  C   UNL     1      47.255   4.208  15.837  0.00  0.00    +0.000 A 
ATOM      5  N   UNL     1      46.480   4.043  14.724  0.00  0.00    +0.000 N 
ATOM      6  N   UNL     1      47.294   3.145  16.665  0.00  0.00    +0.000 NA
ATOM      7  C   UNL     1      47.986   3.262  17.829  0.00  0.00    +0.000 A 
ATOM      8  H   UNL     1      46.140   3.098  14.614  0.00  0.00    +0.000 HD
ENDROOT
BRANCH   1  10
ATOM      9  N   UNL     1      48.595   4.009  20.614  0.00  0.00    +0.000 N 
ATOM     10  C   UNL     1      49.308   4.466  19.537  0.00  0.00    +0.000 C 
ATOM     11  O   UNL     1      50.461   4.854  19.659  0.00  0.00    +0.000 OA
ATOM     12  H   UNL     1      49.099   3.940  21.490  0.00  0.00    +0.000 HD
ATOM     13  H   UNL     1      47.761   3.449  20.512  0.00  0.00    +0.000 HD
ENDBRANCH   1  10
BRANCH   5  14
ATOM     14  C   UNL     1      46.270   4.996  13.665  0.00  0.00    +0.000 C 
BRANCH  14  15
ATOM     15  C   UNL     1      45.288   4.495  12.633  0.00  0.00    +0.000 A 
ATOM     16  C   UNL     1      43.913   4.517  12.887  0.00  0.00    +0.000 A 
ATOM     17  C   UNL     1      43.021   4.088  11.910  0.00  0.00    +0.000 A 
ATOM     18  C   UNL     1      43.496   3.650  10.673  0.00  0.00    +0.000 A 
ATOM     19  C   UNL     1      44.866   3.630  10.365  0.00  0.00    +0.000 A 
ATOM     20  C   UNL     1      45.743   4.045  11.379  0.00  0.00    +0.000 A 
BRANCH  19  21
ATOM     21  N   UNL     1      45.305   3.175   9.132  0.00  0.00    +0.000 N 
ATOM     22  C   UNL     1      45.185   1.751   8.797  0.00  0.00    +0.000 C 
ATOM     23  C   UNL     1      46.444   1.312   8.048  0.00  0.00    +0.000 C 
ATOM     24  C   UNL     1      46.724   2.210   6.842  0.00  0.00    +0.000 C 
ATOM     25  C   UNL     1      46.720   3.686   7.235  0.00  0.00    +0.000 C 
ATOM     26  C   UNL     1      45.440   4.064   7.978  0.00  0.00    +0.000 C 
ENDBRANCH  19  21
ENDBRANCH  14  15
ENDBRANCH   5  14
TORSDOF 4
ENDMDL
MODEL 4
REMARK VINA RESULT:    -6.917      2.997      7.135
REMARK INTER + INTRA:          -9.274
REMARK INTER:                  -8.828
REMARK INTRA:                  -0.446
REMARK UNBOUND:                -0.739
REMARK  Name = 
REMARK  4 active torsions:
REMARK  status: ('A' for Active; 'I' for Inactive)
REMARK    1  A    between atoms: C_2  and  C_4
REMARK    2  A    between atoms: N_8  and  C_9
REMARK    3  A    between atoms: C_9  and  C_10
REMARK    4  A    between atoms: C_14  and  N_15
REMARK                            x       y       z     vdW  Elec       q    Type
REMARK                         _______ _______ _______ _____ _____    ______ ____
ROOT
ATOM      1  C   UNL     1      46.364   9.481  12.124  0.00  0.00    +0.000 A 
ATOM      2  C   UNL     1      45.282   8.661  12.423  0.00  0.00    +0.000 A 
ATOM      3  C   UNL     1      45.517   7.353  12.847  0.00  0.00    +0.000 A 
ATOM      4  C   UNL     1      46.821   6.884  12.963  0.00  0.00    +0.000 A 
ATOM      5  N   UNL     1      47.144   5.648  13.447  0.00  0.00    +0.000 N 
ATOM      6  N   UNL     1      47.874   7.661  12.639  0.00  0.00    +0.000 NA
ATOM      7  C   UNL     1      47.631   8.931  12.220  0.00  0.00    +0.000 A 
ATOM      8  H   UNL     1      48.130   5.442  13.379  0.00  0.00    +0.000 HD
ENDROOT
BRANCH   1  10
ATOM      9  N   UNL     1      45.045  11.516  12.085  0.00  0.00    +0.000 N 
ATOM     10  C   UNL     1      46.209  10.891  11.719  0.00  0.00    +0.000 C 
ATOM     11  O   UNL     1      47.090  11.492  11.122  0.00  0.00    +0.000 OA
ATOM     12  H   UNL     1      44.994  12.511  11.903  0.00  0.00    +0.000 HD
ATOM     13  H   UNL     1      44.427  11.139  12.790  0.00  0.00    +0.000 HD
ENDBRANCH   1  10
BRANCH   5  14
ATOM     14  C   UNL     1      46.231   4.610  13.852  0.00  0.00    +0.000 C 
BRANCH  14  15
ATOM     15  C   UNL     1      45.249   4.257  12.762  0.00  0.00    +0.000 A 
ATOM     16  C   UNL     1      43.872   4.378  12.975  0.00  0.00    +0.000 A 
ATOM     17  C   UNL     1      42.983   4.086  11.946  0.00  0.00    +0.000 A 
ATOM     18  C   UNL     1      43.464   3.686  10.699  0.00  0.00    +0.000 A 
ATOM     19  C   UNL     1      44.837   3.569  10.431  0.00  0.00    +0.000 A 
ATOM     20  C   UNL     1      45.710   3.847  11.495  0.00  0.00    +0.000 A 
BRANCH  19  21
ATOM     21  N   UNL     1      45.281   3.155   9.186  0.00  0.00    +0.000 N 
ATOM     22  C   UNL     1      45.189   1.738   8.815  0.00  0.00    +0.000 C 
ATOM     23  C   UNL     1      46.453   1.344   8.051  0.00  0.00    +0.000 C 
ATOM     24  C   UNL     1      46.711   2.278   6.868  0.00  0.00    +0.000 C 
ATOM     25  C   UNL     1      46.679   3.743   7.299  0.00  0.00    +0.000 C 
ATOM     26  C   UNL     1      45.394   4.076   8.055  0.00  0.00    +0.000 C 
ENDBRANCH  19  21
ENDBRANCH  14  15
ENDBRANCH   5  14
TORSDOF 4
ENDMDL
MODEL 5
REMARK VINA RESULT:    -6.731      5.341      8.269
REMARK INTER + INTRA:          -9.044
REMARK INTER:                  -8.284
REMARK INTRA:                  -0.760
REMARK UNBOUND:                -0.739
REMARK  Name = 
REMARK  4 active torsions:
REMARK  status: ('A' for Active; 'I' for Inactive)
REMARK    1  A    between atoms: C_2  and  C_4
REMARK    2  A    between atoms: N_8  and  C_9
REMARK    3  A    between atoms: C_9  and  C_10
REMARK    4  A    between atoms: C_14  and  N_15
REMARK                            x       y       z     vdW  Elec       q    Type
REMARK                         _______ _______ _______ _____ _____    ______ ____
ROOT
ATOM      1  C   UNL     1      51.639   2.653  17.769  0.00  0.00    +0.000 A 
ATOM      2  C   UNL     1      50.982   3.872  17.892  0.00  0.00    +0.000 A 
ATOM      3  C   UNL     1      49.715   4.021  17.328  0.00  0.00    +0.000 A 
ATOM      4  C   UNL     1      49.127   2.959  16.650  0.00  0.00    +0.000 A 
ATOM      5  N   UNL     1      47.860   2.991  16.140  0.00  0.00    +0.000 N 
ATOM      6  N   UNL     1      49.774   1.786  16.494  0.00  0.00    +0.000 NA
ATOM      7  C   UNL     1      51.011   1.656  17.042  0.00  0.00    +0.000 A 
ATOM      8  H   UNL     1      47.628   2.166  15.604  0.00  0.00    +0.000 HD
ENDROOT
BRANCH   1  10
ATOM      9  N   UNL     1      53.180   2.924  19.621  0.00  0.00    +0.000 N 
ATOM     10  C   UNL     1      52.956   2.393  18.378  0.00  0.00    +0.000 C 
ATOM     11  O   UNL     1      53.799   1.701  17.824  0.00  0.00    +0.000 OA
ATOM     12  H   UNL     1      54.041   2.648  20.079  0.00  0.00    +0.000 HD
ATOM     13  H   UNL     1      52.432   3.267  20.206  0.00  0.00    +0.000 HD
ENDBRANCH   1  10
BRANCH   5  14
ATOM     14  C   UNL     1      46.951   4.108  16.146  0.00  0.00    +0.000 C 
BRANCH  14  15
ATOM     15  C   UNL     1      47.027   4.912  14.871  0.00  0.00    +0.000 A 
ATOM     16  C   UNL     1      47.901   5.999  14.764  0.00  0.00    +0.000 A 
ATOM     17  C   UNL     1      47.987   6.705  13.569  0.00  0.00    +0.000 A 
ATOM     18  C   UNL     1      47.213   6.321  12.473  0.00  0.00    +0.000 A 
ATOM     19  C   UNL     1      46.337   5.225  12.526  0.00  0.00    +0.000 A 
ATOM     20  C   UNL     1      46.253   4.547  13.752  0.00  0.00    +0.000 A 
BRANCH  19  21
ATOM     21  N   UNL     1      45.572   4.880  11.423  0.00  0.00    +0.000 N 
ATOM     22  C   UNL     1      44.419   3.987  11.588  0.00  0.00    +0.000 C 
ATOM     23  C   UNL     1      44.370   3.020  10.406  0.00  0.00    +0.000 C 
ATOM     24  C   UNL     1      44.391   3.762   9.069  0.00  0.00    +0.000 C 
ATOM     25  C   UNL     1      45.546   4.760   9.005  0.00  0.00    +0.000 C 
ATOM     26  C   UNL     1      45.541   5.698  10.211  0.00  0.00    +0.000 C 
ENDBRANCH  19  21
ENDBRANCH  14  15
ENDBRANCH   5  14
TORSDOF 4
ENDMDL
MODEL 6
REMARK VINA RESULT:    -6.550      3.385      6.078
REMARK INTER + INTRA:          -8.821
REMARK INTER:                  -8.040
REMARK INTRA:                  -0.781
REMARK UNBOUND:                -0.739
REMARK  Name = 
REMARK  4 active torsions:
REMARK  status: ('A' for Active; 'I' for Inactive)
REMARK    1  A    between atoms: C_2  and  C_4
REMARK    2  A    between atoms: N_8  and  C_9
REMARK    3  A    between atoms: C_9  and  C_10
REMARK    4  A    between atoms: C_14  and  N_15
REMARK                            x       y       z     vdW  Elec       q    Type
REMARK                         _______ _______ _______ _____ _____    ______ ____
ROOT
ATOM      1  C   UNL     1      44.681   5.192  10.919  0.00  0.00    +0.000 A 
ATOM      2  C   UNL     1      45.893   5.771  10.562  0.00  0.00    +0.000 A 
ATOM      3  C   UNL     1      46.479   6.704  11.416  0.00  0.00    +0.000 A 
ATOM      4  C   UNL     1      45.849   7.047  12.607  0.00  0.00    +0.000 A 
ATOM      5  N   UNL     1      46.389   7.888  13.539  0.00  0.00    +0.000 N 
ATOM      6  N   UNL     1      44.654   6.519  12.943  0.00  0.00    +0.000 NA
ATOM      7  C   UNL     1      44.091   5.616  12.097  0.00  0.00    +0.000 A 
ATOM      8  H   UNL     1      45.757   8.094  14.300  0.00  0.00    +0.000 HD
ENDROOT
BRANCH   1  10
ATOM      9  N   UNL     1      44.162   4.259   8.741  0.00  0.00    +0.000 N 
ATOM     10  C   UNL     1      44.018   4.160  10.100  0.00  0.00    +0.000 C 
ATOM     11  O   UNL     1      43.403   3.231  10.605  0.00  0.00    +0.000 OA
ATOM     12  H   UNL     1      43.801   3.488   8.193  0.00  0.00    +0.000 HD
ATOM     13  H   UNL     1      44.866   4.845   8.314  0.00  0.00    +0.000 HD
ENDBRANCH   1  10
BRANCH   5  14
ATOM     14  C   UNL     1      47.635   8.604  13.441  0.00  0.00    +0.000 C 
BRANCH  14  15
ATOM     15  C   UNL     1      48.713   7.992  14.301  0.00  0.00    +0.000 A 
ATOM     16  C   UNL     1      50.013   8.507  14.290  0.00  0.00    +0.000 A 
ATOM     17  C   UNL     1      50.985   7.955  15.118  0.00  0.00    +0.000 A 
ATOM     18  C   UNL     1      50.661   6.899  15.969  0.00  0.00    +0.000 A 
ATOM     19  C   UNL     1      49.365   6.362  16.031  0.00  0.00    +0.000 A 
ATOM     20  C   UNL     1      48.411   6.922  15.167  0.00  0.00    +0.000 A 
BRANCH  19  21
ATOM     21  N   UNL     1      49.080   5.303  16.878  0.00  0.00    +0.000 N 
ATOM     22  C   UNL     1      50.177   4.570  17.521  0.00  0.00    +0.000 C 
ATOM     23  C   UNL     1      49.841   3.079  17.520  0.00  0.00    +0.000 C 
ATOM     24  C   UNL     1      48.470   2.809  18.141  0.00  0.00    +0.000 C 
ATOM     25  C   UNL     1      47.391   3.686  17.507  0.00  0.00    +0.000 C 
ATOM     26  C   UNL     1      47.782   5.163  17.538  0.00  0.00    +0.000 C 
ENDBRANCH  19  21
ENDBRANCH  14  15
ENDBRANCH   5  14
TORSDOF 4
ENDMDL
MODEL 7
REMARK VINA RESULT:    -6.499      3.094      5.335
REMARK INTER + INTRA:          -8.758
REMARK INTER:                  -7.981
REMARK INTRA:                  -0.776
REMARK UNBOUND:                -0.739
REMARK  Name = 
REMARK  4 active torsions:
REMARK  status: ('A' for Active; 'I' for Inactive)
REMARK    1  A    between atoms: C_2  and  C_4
REMARK    2  A    between atoms: N_8  and  C_9
REMARK    3  A    between atoms: C_9  and  C_10
REMARK    4  A    between atoms: C_14  and  N_15
REMARK                            x       y       z     vdW  Elec       q    Type
REMARK                         _______ _______ _______ _____ _____    ______ ____
ROOT
ATOM      1  C   UNL     1      44.205   4.161  11.439  0.00  0.00    +0.000 A 
ATOM      2  C   UNL     1      45.101   4.965  10.744  0.00  0.00    +0.000 A 
ATOM      3  C   UNL     1      45.447   6.210  11.269  0.00  0.00    +0.000 A 
ATOM      4  C   UNL     1      44.893   6.634  12.472  0.00  0.00    +0.000 A 
ATOM      5  N   UNL     1      45.236   7.799  13.098  0.00  0.00    +0.000 N 
ATOM      6  N   UNL     1      43.994   5.878  13.133  0.00  0.00    +0.000 NA
ATOM      7  C   UNL     1      43.660   4.669  12.607  0.00  0.00    +0.000 A 
ATOM      8  H   UNL     1      44.673   7.991  13.915  0.00  0.00    +0.000 HD
ENDROOT
BRANCH   1  10
ATOM      9  N   UNL     1      44.530   2.292   9.930  0.00  0.00    +0.000 N 
ATOM     10  C   UNL     1      43.825   2.812  10.984  0.00  0.00    +0.000 C 
ATOM     11  O   UNL     1      42.951   2.163  11.542  0.00  0.00    +0.000 OA
ATOM     12  H   UNL     1      44.340   1.325   9.695  0.00  0.00    +0.000 HD
ATOM     13  H   UNL     1      45.410   2.680   9.624  0.00  0.00    +0.000 HD
ENDBRANCH   1  10
BRANCH   5  14
ATOM     14  C   UNL     1      46.151   8.804  12.619  0.00  0.00    +0.000 C 
BRANCH  14  15
ATOM     15  C   UNL     1      47.593   8.401  12.814  0.00  0.00    +0.000 A 
ATOM     16  C   UNL     1      48.532   8.595  11.796  0.00  0.00    +0.000 A 
ATOM     17  C   UNL     1      49.864   8.254  12.006  0.00  0.00    +0.000 A 
ATOM     18  C   UNL     1      50.266   7.734  13.237  0.00  0.00    +0.000 A 
ATOM     19  C   UNL     1      49.364   7.541  14.296  0.00  0.00    +0.000 A 
ATOM     20  C   UNL     1      48.023   7.870  14.046  0.00  0.00    +0.000 A 
BRANCH  19  21
ATOM     21  N   UNL     1      49.794   7.008  15.500  0.00  0.00    +0.000 N 
ATOM     22  C   UNL     1      51.111   7.380  16.032  0.00  0.00    +0.000 C 
ATOM     23  C   UNL     1      51.767   6.141  16.640  0.00  0.00    +0.000 C 
ATOM     24  C   UNL     1      50.854   5.465  17.664  0.00  0.00    +0.000 C 
ATOM     25  C   UNL     1      49.463   5.209  17.087  0.00  0.00    +0.000 C 
ATOM     26  C   UNL     1      48.860   6.483  16.496  0.00  0.00    +0.000 C 
ENDBRANCH  19  21
ENDBRANCH  14  15
ENDBRANCH   5  14
TORSDOF 4
ENDMDL
MODEL 8
REMARK VINA RESULT:    -6.032      4.840      8.637
REMARK INTER + INTRA:          -8.182
REMARK INTER:                  -7.471
REMARK INTRA:                  -0.711
REMARK UNBOUND:                -0.739
REMARK  Name = 
REMARK  4 active torsions:
REMARK  status: ('A' for Active; 'I' for Inactive)
REMARK    1  A    between atoms: C_2  and  C_4
REMARK    2  A    between atoms: N_8  and  C_9
REMARK    3  A    between atoms: C_9  and  C_10
REMARK    4  A    between atoms: C_14  and  N_15
REMARK                            x       y       z     vdW  Elec       q    Type
REMARK                         _______ _______ _______ _____ _____    ______ ____
ROOT
ATOM      1  C   UNL     1      48.764   5.440  18.769  0.00  0.00    +0.000 A 
ATOM      2  C   UNL     1      48.668   6.779  18.407  0.00  0.00    +0.000 A 
ATOM      3  C   UNL     1      48.642   7.117  17.054  0.00  0.00    +0.000 A 
ATOM      4  C   UNL     1      48.716   6.120  16.088  0.00  0.00    +0.000 A 
ATOM      5  N   UNL     1      48.616   6.353  14.745  0.00  0.00    +0.000 N 
ATOM      6  N   UNL     1      48.848   4.823  16.431  0.00  0.00    +0.000 NA
ATOM      7  C   UNL     1      48.879   4.507  17.753  0.00  0.00    +0.000 A 
ATOM      8  H   UNL     1      48.779   5.527  14.186  0.00  0.00    +0.000 HD
ENDROOT
BRANCH   1  10
ATOM      9  N   UNL     1      48.632   3.643  20.392  0.00  0.00    +0.000 N 
ATOM     10  C   UNL     1      48.745   4.991  20.174  0.00  0.00    +0.000 C 
ATOM     11  O   UNL     1      48.868   5.775  21.104  0.00  0.00    +0.000 OA
ATOM     12  H   UNL     1      48.733   3.333  21.351  0.00  0.00    +0.000 HD
ATOM     13  H   UNL     1      48.792   2.962  19.664  0.00  0.00    +0.000 HD
ENDBRANCH   1  10
BRANCH   5  14
ATOM     14  C   UNL     1      48.486   7.632  14.095  0.00  0.00    +0.000 C 
BRANCH  14  15
ATOM     15  C   UNL     1      47.213   7.736  13.291  0.00  0.00    +0.000 A 
ATOM     16  C   UNL     1      46.760   8.977  12.831  0.00  0.00    +0.000 A 
ATOM     17  C   UNL     1      45.605   9.050  12.059  0.00  0.00    +0.000 A 
ATOM     18  C   UNL     1      44.909   7.887  11.731  0.00  0.00    +0.000 A 
ATOM     19  C   UNL     1      45.337   6.617  12.151  0.00  0.00    +0.000 A 
ATOM     20  C   UNL     1      46.490   6.577  12.950  0.00  0.00    +0.000 A 
BRANCH  19  21
ATOM     21  N   UNL     1      44.613   5.483  11.820  0.00  0.00    +0.000 N 
ATOM     22  C   UNL     1      43.495   5.059  12.670  0.00  0.00    +0.000 C 
ATOM     23  C   UNL     1      43.514   3.535  12.789  0.00  0.00    +0.000 C 
ATOM     24  C   UNL     1      43.536   2.864  11.415  0.00  0.00    +0.000 C 
ATOM     25  C   UNL     1      44.650   3.430  10.536  0.00  0.00    +0.000 C 
ATOM     26  C   UNL     1      44.577   4.954  10.456  0.00  0.00    +0.000 C 
ENDBRANCH  19  21
ENDBRANCH  14  15
ENDBRANCH   5  14
TORSDOF 4
ENDMDL
MODEL 9
REMARK VINA RESULT:    -5.734      5.255      8.834
REMARK INTER + INTRA:          -7.814
REMARK INTER:                  -7.180
REMARK INTRA:                  -0.634
REMARK UNBOUND:                -0.739
REMARK  Name = 
REMARK  4 active torsions:
REMARK  status: ('A' for Active; 'I' for Inactive)
REMARK    1  A    between atoms: C_2  and  C_4
REMARK    2  A    between atoms: N_8  and  C_9
REMARK    3  A    between atoms: C_9  and  C_10
REMARK    4  A    between atoms: C_14  and  N_15
REMARK                            x       y       z     vdW  Elec       q    Type
REMARK                         _______ _______ _______ _____ _____    ______ ____
ROOT
ATOM      1  C   UNL     1      50.317   5.028  18.989  0.00  0.00    +0.000 A 
ATOM      2  C   UNL     1      50.417   4.168  17.902  0.00  0.00    +0.000 A 
ATOM      3  C   UNL     1      49.331   4.037  17.037  0.00  0.00    +0.000 A 
ATOM      4  C   UNL     1      48.167   4.759  17.269  0.00  0.00    +0.000 A 
ATOM      5  N   UNL     1      47.088   4.754  16.430  0.00  0.00    +0.000 N 
ATOM      6  N   UNL     1      48.048   5.566  18.343  0.00  0.00    +0.000 NA
ATOM      7  C   UNL     1      49.111   5.680  19.183  0.00  0.00    +0.000 A 
ATOM      8  H   UNL     1      46.298   5.265  16.798  0.00  0.00    +0.000 HD
ENDROOT
BRANCH   1  10
ATOM      9  N   UNL     1      51.943   4.171  20.571  0.00  0.00    +0.000 N 
ATOM     10  C   UNL     1      51.433   5.266  19.924  0.00  0.00    +0.000 C 
ATOM     11  O   UNL     1      51.913   6.378  20.087  0.00  0.00    +0.000 OA
ATOM     12  H   UNL     1      52.778   4.324  21.123  0.00  0.00    +0.000 HD
ATOM     13  H   UNL     1      51.752   3.226  20.269  0.00  0.00    +0.000 HD
ENDBRANCH   1  10
BRANCH   5  14
ATOM     14  C   UNL     1      46.930   3.979  15.227  0.00  0.00    +0.000 C 
BRANCH  14  15
ATOM     15  C   UNL     1      46.679   4.847  14.018  0.00  0.00    +0.000 A 
ATOM     16  C   UNL     1      47.052   6.195  14.019  0.00  0.00    +0.000 A 
ATOM     17  C   UNL     1      46.848   6.971  12.882  0.00  0.00    +0.000 A 
ATOM     18  C   UNL     1      46.287   6.403  11.739  0.00  0.00    +0.000 A 
ATOM     19  C   UNL     1      45.917   5.049  11.684  0.00  0.00    +0.000 A 
ATOM     20  C   UNL     1      46.111   4.297  12.853  0.00  0.00    +0.000 A 
BRANCH  19  21
ATOM     21  N   UNL     1      45.348   4.520  10.536  0.00  0.00    +0.000 N 
ATOM     22  C   UNL     1      44.216   3.592  10.646  0.00  0.00    +0.000 C 
ATOM     23  C   UNL     1      44.389   2.477   9.616  0.00  0.00    +0.000 C 
ATOM     24  C   UNL     1      44.595   3.037   8.208  0.00  0.00    +0.000 C 
ATOM     25  C   UNL     1      45.709   4.082   8.182  0.00  0.00    +0.000 C 
ATOM     26  C   UNL     1      45.481   5.169   9.232  0.00  0.00    +0.000 C 
ENDBRANCH  19  21
ENDBRANCH  14  15
ENDBRANCH   5  14
TORSDOF 4
ENDMDL
