MODEL 1
REMARK VINA RESULT:    -8.262      0.000      0.000
REMARK INTER + INTRA:         -10.867
REMARK INTER:                 -10.193
REMARK INTRA:                  -0.673
REMARK UNBOUND:                -0.673
REMARK  Name = 
REMARK  4 active torsions:
REMARK  status: ('A' for Active; 'I' for Inactive)
REMARK    1  A    between atoms: C_2  and  C_4
REMARK    2  A    between atoms: C_7  and  C_8
REMARK    3  A    between atoms: C_8  and  N_9
REMARK    4  A    between atoms: C_14  and  C_15
REMARK                            x       y       z     vdW  Elec       q    Type
REMARK                         _______ _______ _______ _____ _____    ______ ____
ROOT
ATOM      1  N   UNL     1      45.950   6.554  13.314  0.00  0.00    +0.000 N 
ATOM      2  C   UNL     1      45.053   5.782  12.549  0.00  0.00    +0.000 A 
ATOM      3  C   UNL     1      43.699   5.864  12.848  0.00  0.00    +0.000 A 
ATOM      4  C   UNL     1      42.787   5.140  12.091  0.00  0.00    +0.000 A 
ATOM      5  C   UNL     1      43.247   4.398  11.010  0.00  0.00    +0.000 A 
ATOM      6  C   UNL     1      44.606   4.392  10.720  0.00  0.00    +0.000 A 
ATOM      7  N   UNL     1      45.501   5.068  11.495  0.00  0.00    +0.000 NA
ATOM      8  H   UNL     1      45.941   7.491  12.915  0.00  0.00    +0.000 HD
ENDROOT
BRANCH   6   9
ATOM      9  C   UNL     1      45.166   3.730   9.522  0.00  0.00    +0.000 A 
ATOM     10  C   UNL     1      45.206   2.322   9.430  0.00  0.00    +0.000 A 
ATOM     11  C   UNL     1      45.794   1.678   8.338  0.00  0.00    +0.000 A 
ATOM     12  C   UNL     1      46.346   2.436   7.317  0.00  0.00    +0.000 A 
ATOM     13  F   UNL     1      46.926   1.822   6.277  0.00  0.00    +0.000 F 
ATOM     14  C   UNL     1      46.306   3.821   7.357  0.00  0.00    +0.000 A 
ATOM     15  C   UNL     1      45.714   4.462   8.451  0.00  0.00    +0.000 A 
ENDBRANCH   6   9
BRANCH   1  16
ATOM     16  C   UNL     1      47.301   6.005  13.320  0.00  0.00    +0.000 C 
BRANCH  16  20
ATOM     17  C   UNL     1      48.487   4.558  17.228  0.00  0.00    +0.000 A 
ATOM     18  C   UNL     1      47.544   3.844  16.477  0.00  0.00    +0.000 A 
ATOM     19  C   UNL     1      47.143   4.319  15.223  0.00  0.00    +0.000 A 
ATOM     20  C   UNL     1      47.671   5.512  14.706  0.00  0.00    +0.000 A 
ATOM     21  C   UNL     1      48.599   6.230  15.477  0.00  0.00    +0.000 A 
ATOM     22  C   UNL     1      48.999   5.760  16.731  0.00  0.00    +0.000 A 
BRANCH  17  24
ATOM     23  N   UNL     1      48.241   3.087  19.153  0.00  0.00    +0.000 N 
ATOM     24  C   UNL     1      48.962   4.083  18.554  0.00  0.00    +0.000 C 
ATOM     25  O   UNL     1      49.979   4.525  19.070  0.00  0.00    +0.000 OA
ATOM     26  H   UNL     1      48.643   2.690  19.993  0.00  0.00    +0.000 HD
ATOM     27  H   UNL     1      47.575   2.526  18.643  0.00  0.00    +0.000 HD
ENDBRANCH  17  24
ENDBRANCH  16  20
ENDBRANCH   1  16
TORSDOF 4
ENDMDL
MODEL 2
REMARK VINA RESULT:    -8.142      4.001      8.005
REMARK INTER + INTRA:         -10.720
REMARK INTER:                 -10.147
REMARK INTRA:                  -0.572
REMARK UNBOUND:                -0.673
REMARK  Name = 
REMARK  4 active torsions:
REMARK  status: ('A' for Active; 'I' for Inactive)
REMARK    1  A    between atoms: C_2  and  C_4
REMARK    2  A    between atoms: C_7  and  C_8
REMARK    3  A    between atoms: C_8  and  N_9
REMARK    4  A    between atoms: C_14  and  C_15
REMARK                            x       y       z     vdW  Elec       q    Type
REMARK                         _______ _______ _______ _____ _____    ______ ____
ROOT
ATOM      1  N   UNL     1      43.875   5.326  10.908  0.00  0.00    +0.000 N 
ATOM      2  C   UNL     1      44.920   5.989  11.582  0.00  0.00    +0.000 A 
ATOM      3  C   UNL     1      45.143   7.328  11.288  0.00  0.00    +0.000 A 
ATOM      4  C   UNL     1      46.144   8.018  11.959  0.00  0.00    +0.000 A 
ATOM      5  C   UNL     1      46.860   7.366  12.956  0.00  0.00    +0.000 A 
ATOM      6  C   UNL     1      46.562   6.040  13.249  0.00  0.00    +0.000 A 
ATOM      7  N   UNL     1      45.608   5.356  12.555  0.00  0.00    +0.000 NA
ATOM      8  H   UNL     1      43.017   5.556  11.406  0.00  0.00    +0.000 HD
ENDROOT
BRANCH   6   9
ATOM      9  C   UNL     1      47.189   5.308  14.371  0.00  0.00    +0.000 A 
ATOM     10  C   UNL     1      47.014   3.915  14.509  0.00  0.00    +0.000 A 
ATOM     11  C   UNL     1      47.540   3.217  15.599  0.00  0.00    +0.000 A 
ATOM     12  C   UNL     1      48.256   3.906  16.568  0.00  0.00    +0.000 A 
ATOM     13  F   UNL     1      48.746   3.245  17.624  0.00  0.00    +0.000 F 
ATOM     14  C   UNL     1      48.470   5.271  16.457  0.00  0.00    +0.000 A 
ATOM     15  C   UNL     1      47.944   5.965  15.362  0.00  0.00    +0.000 A 
ENDBRANCH   6   9
BRANCH   1  16
ATOM     16  C   UNL     1      44.071   3.883  10.849  0.00  0.00    +0.000 C 
BRANCH  16  20
ATOM     17  C   UNL     1      46.525   2.779   7.454  0.00  0.00    +0.000 A 
ATOM     18  C   UNL     1      46.186   4.122   7.661  0.00  0.00    +0.000 A 
ATOM     19  C   UNL     1      45.376   4.480   8.746  0.00  0.00    +0.000 A 
ATOM     20  C   UNL     1      44.891   3.504   9.630  0.00  0.00    +0.000 A 
ATOM     21  C   UNL     1      45.221   2.160   9.400  0.00  0.00    +0.000 A 
ATOM     22  C   UNL     1      46.026   1.799   8.317  0.00  0.00    +0.000 A 
BRANCH  17  24
ATOM     23  N   UNL     1      47.278   3.032   5.152  0.00  0.00    +0.000 N 
ATOM     24  C   UNL     1      47.401   2.351   6.332  0.00  0.00    +0.000 C 
ATOM     25  O   UNL     1      48.231   1.462   6.464  0.00  0.00    +0.000 OA
ATOM     26  H   UNL     1      47.962   2.813   4.438  0.00  0.00    +0.000 HD
ATOM     27  H   UNL     1      46.810   3.925   5.094  0.00  0.00    +0.000 HD
ENDBRANCH  17  24
ENDBRANCH  16  20
ENDBRANCH   1  16
TORSDOF 4
ENDMDL
MODEL 3
REMARK VINA RESULT:    -8.128      2.222      2.953
REMARK INTER + INTRA:         -10.701
REMARK INTER:                 -10.215
REMARK INTRA:                  -0.486
REMARK UNBOUND:                -0.673
REMARK  Name = 
REMARK  4 active torsions:
REMARK  status: ('A' for Active; 'I' for Inactive)
REMARK    1  A    between atoms: C_2  and  C_4
REMARK    2  A    between atoms: C_7  and  C_8
REMARK    3  A    between atoms: C_8  and  N_9
REMARK    4  A    between atoms: C_14  and  C_15
REMARK                            x       y       z     vdW  Elec       q    Type
REMARK                         _______ _______ _______ _____ _____    ______ ____
ROOT
ATOM      1  N   UNL     1      44.017   6.523  11.418  0.00  0.00    +0.000 N 
ATOM      2  C   UNL     1      44.084   5.142  11.144  0.00  0.00    +0.000 A 
ATOM      3  C   UNL     1      43.271   4.289  11.880  0.00  0.00    +0.000 A 
ATOM      4  C   UNL     1      43.290   2.926  11.612  0.00  0.00    +0.000 A 
ATOM      5  C   UNL     1      44.078   2.456  10.568  0.00  0.00    +0.000 A 
ATOM      6  C   UNL     1      44.833   3.359   9.827  0.00  0.00    +0.000 A 
ATOM      7  N   UNL     1      44.844   4.689  10.126  0.00  0.00    +0.000 NA
ATOM      8  H   UNL     1      43.214   6.882  10.906  0.00  0.00    +0.000 HD
ENDROOT
BRANCH   6   9
ATOM      9  C   UNL     1      45.604   2.962   8.629  0.00  0.00    +0.000 A 
ATOM     10  C   UNL     1      46.029   1.628   8.455  0.00  0.00    +0.000 A 
ATOM     11  C   UNL     1      46.817   1.249   7.365  0.00  0.00    +0.000 A 
ATOM     12  C   UNL     1      47.187   2.202   6.427  0.00  0.00    +0.000 A 
ATOM     13  F   UNL     1      47.957   1.847   5.391  0.00  0.00    +0.000 F 
ATOM     14  C   UNL     1      46.770   3.518   6.550  0.00  0.00    +0.000 A 
ATOM     15  C   UNL     1      45.979   3.893   7.641  0.00  0.00    +0.000 A 
ENDBRANCH   6   9
BRANCH   1  16
ATOM     16  C   UNL     1      45.235   7.230  11.038  0.00  0.00    +0.000 C 
BRANCH  16  20
ATOM     17  C   UNL     1      47.997   7.137  14.374  0.00  0.00    +0.000 A 
ATOM     18  C   UNL     1      47.424   8.352  13.978  0.00  0.00    +0.000 A 
ATOM     19  C   UNL     1      46.547   8.389  12.888  0.00  0.00    +0.000 A 
ATOM     20  C   UNL     1      46.237   7.219  12.177  0.00  0.00    +0.000 A 
ATOM     21  C   UNL     1      46.834   6.012  12.571  0.00  0.00    +0.000 A 
ATOM     22  C   UNL     1      47.713   5.972  13.656  0.00  0.00    +0.000 A 
BRANCH  17  24
ATOM     23  N   UNL     1      48.437   7.473  16.746  0.00  0.00    +0.000 N 
ATOM     24  C   UNL     1      48.916   7.041  15.539  0.00  0.00    +0.000 C 
ATOM     25  O   UNL     1      50.033   6.554  15.441  0.00  0.00    +0.000 OA
ATOM     26  H   UNL     1      49.025   7.290  17.549  0.00  0.00    +0.000 HD
ATOM     27  H   UNL     1      47.452   7.621  16.910  0.00  0.00    +0.000 HD
ENDBRANCH  17  24
ENDBRANCH  16  20
ENDBRANCH   1  16
TORSDOF 4
ENDMDL
MODEL 4
REMARK VINA RESULT:    -7.599      2.985      4.250
REMARK INTER + INTRA:         -10.050
REMARK INTER:                  -9.347
REMARK INTRA:                  -0.703
REMARK UNBOUND:                -0.673
REMARK  Name = 
REMARK  4 active torsions:
REMARK  status: ('A' for Active; 'I' for Inactive)
REMARK    1  A    between atoms: C_2  and  C_4
REMARK    2  A    between atoms: C_7  and  C_8
REMARK    3  A    between atoms: C_8  and  N_9
REMARK    4  A    between atoms: C_14  and  C_15
REMARK                            x       y       z     vdW  Elec       q    Type
REMARK                         _______ _______ _______ _____ _____    ______ ____
ROOT
ATOM      1  N   UNL     1      45.877   6.352  13.467  0.00  0.00    +0.000 N 
ATOM      2  C   UNL     1      44.985   5.635  12.644  0.00  0.00    +0.000 A 
ATOM      3  C   UNL     1      43.624   5.751  12.896  0.00  0.00    +0.000 A 
ATOM      4  C   UNL     1      42.718   5.083  12.083  0.00  0.00    +0.000 A 
ATOM      5  C   UNL     1      43.195   4.363  10.994  0.00  0.00    +0.000 A 
ATOM      6  C   UNL     1      44.563   4.323  10.753  0.00  0.00    +0.000 A 
ATOM      7  N   UNL     1      45.449   4.943  11.582  0.00  0.00    +0.000 NA
ATOM      8  H   UNL     1      45.912   7.301  13.100  0.00  0.00    +0.000 HD
ENDROOT
BRANCH   6   9
ATOM      9  C   UNL     1      45.146   3.683   9.553  0.00  0.00    +0.000 A 
ATOM     10  C   UNL     1      45.195   2.277   9.440  0.00  0.00    +0.000 A 
ATOM     11  C   UNL     1      45.804   1.654   8.347  0.00  0.00    +0.000 A 
ATOM     12  C   UNL     1      46.368   2.431   7.347  0.00  0.00    +0.000 A 
ATOM     13  F   UNL     1      46.969   1.838   6.307  0.00  0.00    +0.000 F 
ATOM     14  C   UNL     1      46.320   3.815   7.409  0.00  0.00    +0.000 A 
ATOM     15  C   UNL     1      45.707   4.435   8.504  0.00  0.00    +0.000 A 
ENDBRANCH   6   9
BRANCH   1  16
ATOM     16  C   UNL     1      47.209   5.759  13.501  0.00  0.00    +0.000 C 
BRANCH  16  20
ATOM     17  C   UNL     1      50.266   8.575  12.278  0.00  0.00    +0.000 A 
ATOM     18  C   UNL     1      50.296   8.031  13.568  0.00  0.00    +0.000 A 
ATOM     19  C   UNL     1      49.298   7.137  13.974  0.00  0.00    +0.000 A 
ATOM     20  C   UNL     1      48.258   6.780  13.102  0.00  0.00    +0.000 A 
ATOM     21  C   UNL     1      48.227   7.349  11.819  0.00  0.00    +0.000 A 
ATOM     22  C   UNL     1      49.219   8.244  11.413  0.00  0.00    +0.000 A 
BRANCH  17  24
ATOM     23  N   UNL     1      51.967   9.168  10.640  0.00  0.00    +0.000 N 
ATOM     24  C   UNL     1      51.314   9.510  11.792  0.00  0.00    +0.000 C 
ATOM     25  O   UNL     1      51.554  10.564  12.365  0.00  0.00    +0.000 OA
ATOM     26  H   UNL     1      52.589   9.869  10.256  0.00  0.00    +0.000 HD
ATOM     27  H   UNL     1      51.613   8.462  10.012  0.00  0.00    +0.000 HD
ENDBRANCH  17  24
ENDBRANCH  16  20
ENDBRANCH   1  16
TORSDOF 4
ENDMDL
MODEL 5
REMARK VINA RESULT:    -7.584      4.307      7.918
REMARK INTER + INTRA:         -10.031
REMARK INTER:                  -9.329
REMARK INTRA:                  -0.702
REMARK UNBOUND:                -0.673
REMARK  Name = 
REMARK  4 active torsions:
REMARK  status: ('A' for Active; 'I' for Inactive)
REMARK    1  A    between atoms: C_2  and  C_4
REMARK    2  A    between atoms: C_7  and  C_8
REMARK    3  A    between atoms: C_8  and  N_9
REMARK    4  A    between atoms: C_14  and  C_15
REMARK                            x       y       z     vdW  Elec       q    Type
REMARK                         _______ _______ _______ _____ _____    ______ ____
ROOT
ATOM      1  N   UNL     1      45.356   3.121  12.203  0.00  0.00    +0.000 N 
ATOM      2  C   UNL     1      46.058   4.043  13.006  0.00  0.00    +0.000 A 
ATOM      3  C   UNL     1      46.413   3.654  14.291  0.00  0.00    +0.000 A 
ATOM      4  C   UNL     1      47.133   4.528  15.095  0.00  0.00    +0.000 A 
ATOM      5  C   UNL     1      47.536   5.750  14.570  0.00  0.00    +0.000 A 
ATOM      6  C   UNL     1      47.200   6.069  13.259  0.00  0.00    +0.000 A 
ATOM      7  N   UNL     1      46.454   5.226  12.491  0.00  0.00    +0.000 NA
ATOM      8  H   UNL     1      46.053   2.499  11.798  0.00  0.00    +0.000 HD
ENDROOT
BRANCH   6   9
ATOM      9  C   UNL     1      47.688   7.292  12.584  0.00  0.00    +0.000 A 
ATOM     10  C   UNL     1      49.028   7.389  12.151  0.00  0.00    +0.000 A 
ATOM     11  C   UNL     1      49.525   8.560  11.574  0.00  0.00    +0.000 A 
ATOM     12  C   UNL     1      48.684   9.652  11.416  0.00  0.00    +0.000 A 
ATOM     13  F   UNL     1      49.162  10.784  10.881  0.00  0.00    +0.000 F 
ATOM     14  C   UNL     1      47.356   9.589  11.807  0.00  0.00    +0.000 A 
ATOM     15  C   UNL     1      46.861   8.413  12.382  0.00  0.00    +0.000 A 
ENDBRANCH   6   9
BRANCH   1  16
ATOM     16  C   UNL     1      44.570   3.769  11.159  0.00  0.00    +0.000 C 
BRANCH  16  20
ATOM     17  C   UNL     1      46.495   3.090   7.338  0.00  0.00    +0.000 A 
ATOM     18  C   UNL     1      46.279   4.400   7.787  0.00  0.00    +0.000 A 
ATOM     19  C   UNL     1      45.639   4.623   9.011  0.00  0.00    +0.000 A 
ATOM     20  C   UNL     1      45.202   3.546   9.798  0.00  0.00    +0.000 A 
ATOM     21  C   UNL     1      45.405   2.240   9.328  0.00  0.00    +0.000 A 
ATOM     22  C   UNL     1      46.040   2.013   8.104  0.00  0.00    +0.000 A 
BRANCH  17  24
ATOM     23  N   UNL     1      48.500   2.414   6.133  0.00  0.00    +0.000 N 
ATOM     24  C   UNL     1      47.190   2.800   6.057  0.00  0.00    +0.000 C 
ATOM     25  O   UNL     1      46.611   2.857   4.981  0.00  0.00    +0.000 OA
ATOM     26  H   UNL     1      48.924   2.103   5.268  0.00  0.00    +0.000 HD
ATOM     27  H   UNL     1      48.917   2.101   6.997  0.00  0.00    +0.000 HD
ENDBRANCH  17  24
ENDBRANCH  16  20
ENDBRANCH   1  16
TORSDOF 4
ENDMDL
MODEL 6
REMARK VINA RESULT:    -7.508      4.036      8.199
REMARK INTER + INTRA:          -9.936
REMARK INTER:                  -9.241
REMARK INTRA:                  -0.695
REMARK UNBOUND:                -0.673
REMARK  Name = 
REMARK  4 active torsions:
REMARK  status: ('A' for Active; 'I' for Inactive)
REMARK    1  A    between atoms: C_2  and  C_4
REMARK    2  A    between atoms: C_7  and  C_8
REMARK    3  A    between atoms: C_8  and  N_9
REMARK    4  A    between atoms: C_14  and  C_15
REMARK                            x       y       z     vdW  Elec       q    Type
REMARK                         _______ _______ _______ _____ _____    ______ ____
ROOT
ATOM      1  N   UNL     1      44.793   6.227  11.176  0.00  0.00    +0.000 N 
ATOM      2  C   UNL     1      45.949   6.553  11.914  0.00  0.00    +0.000 A 
ATOM      3  C   UNL     1      46.627   7.720  11.586  0.00  0.00    +0.000 A 
ATOM      4  C   UNL     1      47.750   8.086  12.315  0.00  0.00    +0.000 A 
ATOM      5  C   UNL     1      48.133   7.306  13.400  0.00  0.00    +0.000 A 
ATOM      6  C   UNL     1      47.388   6.177  13.720  0.00  0.00    +0.000 A 
ATOM      7  N   UNL     1      46.314   5.799  12.972  0.00  0.00    +0.000 NA
ATOM      8  H   UNL     1      44.027   6.761  11.584  0.00  0.00    +0.000 HD
ENDROOT
BRANCH   6   9
ATOM      9  C   UNL     1      47.652   5.359  14.924  0.00  0.00    +0.000 A 
ATOM     10  C   UNL     1      48.377   5.892  16.011  0.00  0.00    +0.000 A 
ATOM     11  C   UNL     1      48.697   5.115  17.128  0.00  0.00    +0.000 A 
ATOM     12  C   UNL     1      48.288   3.790  17.174  0.00  0.00    +0.000 A 
ATOM     13  F   UNL     1      48.608   3.035  18.234  0.00  0.00    +0.000 F 
ATOM     14  C   UNL     1      47.554   3.235  16.137  0.00  0.00    +0.000 A 
ATOM     15  C   UNL     1      47.234   4.018  15.023  0.00  0.00    +0.000 A 
ENDBRANCH   6   9
BRANCH   1  16
ATOM     16  C   UNL     1      44.499   4.799  11.196  0.00  0.00    +0.000 C 
BRANCH  16  20
ATOM     17  C   UNL     1      46.219   2.818   7.749  0.00  0.00    +0.000 A 
ATOM     18  C   UNL     1      46.235   4.217   7.829  0.00  0.00    +0.000 A 
ATOM     19  C   UNL     1      45.661   4.861   8.931  0.00  0.00    +0.000 A 
ATOM     20  C   UNL     1      45.062   4.120   9.962  0.00  0.00    +0.000 A 
ATOM     21  C   UNL     1      45.035   2.721   9.860  0.00  0.00    +0.000 A 
ATOM     22  C   UNL     1      45.603   2.075   8.759  0.00  0.00    +0.000 A 
BRANCH  17  24
ATOM     23  N   UNL     1      46.944   2.759   5.425  0.00  0.00    +0.000 N 
ATOM     24  C   UNL     1      46.836   2.087   6.611  0.00  0.00    +0.000 C 
ATOM     25  O   UNL     1      47.272   0.951   6.735  0.00  0.00    +0.000 OA
ATOM     26  H   UNL     1      47.473   2.295   4.697  0.00  0.00    +0.000 HD
ATOM     27  H   UNL     1      46.847   3.762   5.366  0.00  0.00    +0.000 HD
ENDBRANCH  17  24
ENDBRANCH  16  20
ENDBRANCH   1  16
TORSDOF 4
ENDMDL
MODEL 7
REMARK VINA RESULT:    -7.049      4.106      8.394
REMARK INTER + INTRA:          -9.371
REMARK INTER:                  -8.729
REMARK INTRA:                  -0.642
REMARK UNBOUND:                -0.673
REMARK  Name = 
REMARK  4 active torsions:
REMARK  status: ('A' for Active; 'I' for Inactive)
REMARK    1  A    between atoms: C_2  and  C_4
REMARK    2  A    between atoms: C_7  and  C_8
REMARK    3  A    between atoms: C_8  and  N_9
REMARK    4  A    between atoms: C_14  and  C_15
REMARK                            x       y       z     vdW  Elec       q    Type
REMARK                         _______ _______ _______ _____ _____    ______ ____
ROOT
ATOM      1  N   UNL     1      47.868   7.339  14.729  0.00  0.00    +0.000 N 
ATOM      2  C   UNL     1      48.631   7.097  15.889  0.00  0.00    +0.000 A 
ATOM      3  C   UNL     1      48.659   8.081  16.870  0.00  0.00    +0.000 A 
ATOM      4  C   UNL     1      49.376   7.859  18.039  0.00  0.00    +0.000 A 
ATOM      5  C   UNL     1      49.996   6.630  18.226  0.00  0.00    +0.000 A 
ATOM      6  C   UNL     1      49.892   5.659  17.237  0.00  0.00    +0.000 A 
ATOM      7  N   UNL     1      49.225   5.900  16.072  0.00  0.00    +0.000 NA
ATOM      8  H   UNL     1      46.904   7.106  14.960  0.00  0.00    +0.000 HD
ENDROOT
BRANCH   6   9
ATOM      9  C   UNL     1      50.417   4.287  17.404  0.00  0.00    +0.000 A 
ATOM     10  C   UNL     1      51.745   4.071  17.832  0.00  0.00    +0.000 A 
ATOM     11  C   UNL     1      52.281   2.785  17.929  0.00  0.00    +0.000 A 
ATOM     12  C   UNL     1      51.492   1.691  17.604  0.00  0.00    +0.000 A 
ATOM     13  F   UNL     1      52.007   0.457  17.678  0.00  0.00    +0.000 F 
ATOM     14  C   UNL     1      50.176   1.859  17.202  0.00  0.00    +0.000 A 
ATOM     15  C   UNL     1      49.642   3.149  17.108  0.00  0.00    +0.000 A 
ENDBRANCH   6   9
BRANCH   1  16
ATOM     16  C   UNL     1      48.328   6.564  13.582  0.00  0.00    +0.000 C 
BRANCH  16  20
ATOM     17  C   UNL     1      45.044   4.904  11.297  0.00  0.00    +0.000 A 
ATOM     18  C   UNL     1      45.714   6.041  10.828  0.00  0.00    +0.000 A 
ATOM     19  C   UNL     1      46.763   6.592  11.574  0.00  0.00    +0.000 A 
ATOM     20  C   UNL     1      47.150   6.021  12.796  0.00  0.00    +0.000 A 
ATOM     21  C   UNL     1      46.456   4.895  13.265  0.00  0.00    +0.000 A 
ATOM     22  C   UNL     1      45.407   4.344  12.525  0.00  0.00    +0.000 A 
BRANCH  17  24
ATOM     23  N   UNL     1      43.926   4.468   9.177  0.00  0.00    +0.000 N 
ATOM     24  C   UNL     1      43.941   4.267  10.530  0.00  0.00    +0.000 C 
ATOM     25  O   UNL     1      43.107   3.555  11.072  0.00  0.00    +0.000 OA
ATOM     26  H   UNL     1      43.245   3.932   8.655  0.00  0.00    +0.000 HD
ATOM     27  H   UNL     1      44.732   4.814   8.678  0.00  0.00    +0.000 HD
ENDBRANCH  17  24
ENDBRANCH  16  20
ENDBRANCH   1  16
TORSDOF 4
ENDMDL
MODEL 8
REMARK VINA RESULT:    -6.580      2.913      4.579
REMARK INTER + INTRA:          -8.791
REMARK INTER:                  -8.128
REMARK INTRA:                  -0.663
REMARK UNBOUND:                -0.673
REMARK  Name = 
REMARK  4 active torsions:
REMARK  status: ('A' for Active; 'I' for Inactive)
REMARK    1  A    between atoms: C_2  and  C_4
REMARK    2  A    between atoms: C_7  and  C_8
REMARK    3  A    between atoms: C_8  and  N_9
REMARK    4  A    between atoms: C_14  and  C_15
REMARK                            x       y       z     vdW  Elec       q    Type
REMARK                         _______ _______ _______ _____ _____    ______ ____
ROOT
ATOM      1  N   UNL     1      49.417   6.501  16.203  0.00  0.00    +0.000 N 
ATOM      2  C   UNL     1      48.673   6.965  15.099  0.00  0.00    +0.000 A 
ATOM      3  C   UNL     1      48.890   8.266  14.664  0.00  0.00    +0.000 A 
ATOM      4  C   UNL     1      48.197   8.742  13.559  0.00  0.00    +0.000 A 
ATOM      5  C   UNL     1      47.346   7.881  12.876  0.00  0.00    +0.000 A 
ATOM      6  C   UNL     1      47.205   6.572  13.320  0.00  0.00    +0.000 A 
ATOM      7  N   UNL     1      47.854   6.125  14.432  0.00  0.00    +0.000 NA
ATOM      8  H   UNL     1      50.321   6.206  15.841  0.00  0.00    +0.000 HD
ENDROOT
BRANCH   6   9
ATOM      9  C   UNL     1      46.417   5.558  12.585  0.00  0.00    +0.000 A 
ATOM     10  C   UNL     1      45.846   5.860  11.330  0.00  0.00    +0.000 A 
ATOM     11  C   UNL     1      45.041   4.940  10.654  0.00  0.00    +0.000 A 
ATOM     12  C   UNL     1      44.800   3.699  11.222  0.00  0.00    +0.000 A 
ATOM     13  F   UNL     1      44.014   2.820  10.586  0.00  0.00    +0.000 F 
ATOM     14  C   UNL     1      45.361   3.354  12.442  0.00  0.00    +0.000 A 
ATOM     15  C   UNL     1      46.169   4.277  13.115  0.00  0.00    +0.000 A 
ENDBRANCH   6   9
BRANCH   1  16
ATOM     16  C   UNL     1      48.756   5.407  16.905  0.00  0.00    +0.000 C 
BRANCH  16  20
ATOM     17  C   UNL     1      51.640   2.262  17.653  0.00  0.00    +0.000 A 
ATOM     18  C   UNL     1      50.332   1.932  17.276  0.00  0.00    +0.000 A 
ATOM     19  C   UNL     1      49.392   2.945  17.054  0.00  0.00    +0.000 A 
ATOM     20  C   UNL     1      49.742   4.295  17.210  0.00  0.00    +0.000 A 
ATOM     21  C   UNL     1      51.051   4.611  17.608  0.00  0.00    +0.000 A 
ATOM     22  C   UNL     1      51.990   3.603  17.835  0.00  0.00    +0.000 A 
BRANCH  17  24
ATOM     23  N   UNL     1      52.751   0.206  16.967  0.00  0.00    +0.000 N 
ATOM     24  C   UNL     1      52.681   1.224  17.878  0.00  0.00    +0.000 C 
ATOM     25  O   UNL     1      53.474   1.297  18.807  0.00  0.00    +0.000 OA
ATOM     26  H   UNL     1      53.539  -0.423  17.063  0.00  0.00    +0.000 HD
ATOM     27  H   UNL     1      52.305   0.263  16.064  0.00  0.00    +0.000 HD
ENDBRANCH  17  24
ENDBRANCH  16  20
ENDBRANCH   1  16
TORSDOF 4
ENDMDL
MODEL 9
REMARK VINA RESULT:    -6.438      1.802      2.272
REMARK INTER + INTRA:          -8.617
REMARK INTER:                  -7.980
REMARK INTRA:                  -0.637
REMARK UNBOUND:                -0.673
REMARK  Name = 
REMARK  4 active torsions:
REMARK  status: ('A' for Active; 'I' for Inactive)
REMARK    1  A    between atoms: C_2  and  C_4
REMARK    2  A    between atoms: C_7  and  C_8
REMARK    3  A    between atoms: C_8  and  N_9
REMARK    4  A    between atoms: C_14  and  C_15
REMARK                            x       y       z     vdW  Elec       q    Type
REMARK                         _______ _______ _______ _____ _____    ______ ____
ROOT
ATOM      1  N   UNL     1      48.269   8.112  12.611  0.00  0.00    +0.000 N 
ATOM      2  C   UNL     1      46.951   7.826  12.200  0.00  0.00    +0.000 A 
ATOM      3  C   UNL     1      45.996   8.828  12.320  0.00  0.00    +0.000 A 
ATOM      4  C   UNL     1      44.696   8.588  11.894  0.00  0.00    +0.000 A 
ATOM      5  C   UNL     1      44.397   7.368  11.299  0.00  0.00    +0.000 A 
ATOM      6  C   UNL     1      45.402   6.419  11.153  0.00  0.00    +0.000 A 
ATOM      7  N   UNL     1      46.665   6.645  11.615  0.00  0.00    +0.000 NA
ATOM      8  H   UNL     1      48.715   8.600  11.837  0.00  0.00    +0.000 HD
ENDROOT
BRANCH   6   9
ATOM      9  C   UNL     1      45.202   5.147  10.426  0.00  0.00    +0.000 A 
ATOM     10  C   UNL     1      44.624   4.032  11.071  0.00  0.00    +0.000 A 
ATOM     11  C   UNL     1      44.490   2.802  10.422  0.00  0.00    +0.000 A 
ATOM     12  C   UNL     1      44.929   2.671   9.113  0.00  0.00    +0.000 A 
ATOM     13  F   UNL     1      44.820   1.488   8.493  0.00  0.00    +0.000 F 
ATOM     14  C   UNL     1      45.481   3.748   8.437  0.00  0.00    +0.000 A 
ATOM     15  C   UNL     1      45.610   4.979   9.089  0.00  0.00    +0.000 A 
ENDBRANCH   6   9
BRANCH   1  16
ATOM     16  C   UNL     1      49.018   6.914  12.970  0.00  0.00    +0.000 C 
BRANCH  16  20
ATOM     17  C   UNL     1      48.003   5.471  16.928  0.00  0.00    +0.000 A 
ATOM     18  C   UNL     1      47.493   4.820  15.797  0.00  0.00    +0.000 A 
ATOM     19  C   UNL     1      47.802   5.296  14.517  0.00  0.00    +0.000 A 
ATOM     20  C   UNL     1      48.616   6.427  14.350  0.00  0.00    +0.000 A 
ATOM     21  C   UNL     1      49.104   7.082  15.492  0.00  0.00    +0.000 A 
ATOM     22  C   UNL     1      48.795   6.612  16.770  0.00  0.00    +0.000 A 
BRANCH  17  24
ATOM     23  N   UNL     1      46.607   5.484  18.923  0.00  0.00    +0.000 N 
ATOM     24  C   UNL     1      47.724   4.990  18.306  0.00  0.00    +0.000 C 
ATOM     25  O   UNL     1      48.430   4.155  18.854  0.00  0.00    +0.000 OA
ATOM     26  H   UNL     1      46.362   5.058  19.808  0.00  0.00    +0.000 HD
ATOM     27  H   UNL     1      45.874   5.951  18.410  0.00  0.00    +0.000 HD
ENDBRANCH  17  24
ENDBRANCH  16  20
ENDBRANCH   1  16
TORSDOF 4
ENDMDL
