MODEL 1
REMARK VINA RESULT:    -8.566      0.000      0.000
REMARK INTER + INTRA:         -11.160
REMARK INTER:                 -10.819
REMARK INTRA:                  -0.341
REMARK UNBOUND:                -0.341
REMARK  Name = 
REMARK  5 active torsions:
REMARK  status: ('A' for Active; 'I' for Inactive)
REMARK    1  A    between atoms: N_1  and  C_2
REMARK    2  A    between atoms: C_2  and  C_3
REMARK    3  A    between atoms: C_3  and  C_4
REMARK    4  A    between atoms: C_7  and  C_8
REMARK    5  A    between atoms: C_8  and  C_9
REMARK                            x       y       z     vdW  Elec       q    Type
REMARK                         _______ _______ _______ _____ _____    ______ ____
ROOT
ATOM      1  C   UNL     1      45.736   3.057   7.734  0.00  0.00    +0.000 A 
ATOM      2  C   UNL     1      45.102   4.202   8.237  0.00  0.00    +0.000 A 
ATOM      3  C   UNL     1      44.305   4.133   9.387  0.00  0.00    +0.000 A 
ATOM      4  C   UNL     1      44.135   2.919  10.070  0.00  0.00    +0.000 A 
ATOM      5  C   UNL     1      44.727   1.765   9.537  0.00  0.00    +0.000 A 
ATOM      6  C   UNL     1      45.514   1.845   8.389  0.00  0.00    +0.000 A 
ATOM      7  F   UNL     1      46.124   0.729   7.955  0.00  0.00    +0.000 F 
ENDROOT
BRANCH   1   8
ATOM      8  C   UNL     1      46.699   3.157   6.575  0.00  0.00    +0.000 C 
BRANCH   8   9
ATOM      9  C   UNL     1      48.053   2.491   6.838  0.00  0.00    +0.000 C 
BRANCH   9  10
ATOM     10  N   UNL     1      48.513   1.761   5.654  0.00  0.00    +0.000 NA
ATOM     11  H   UNL     1      48.494   2.389   4.850  0.00  0.00    +0.000 HD
ATOM     12  H   UNL     1      47.853   1.012   5.440  0.00  0.00    +0.000 HD
ENDBRANCH   9  10
ENDBRANCH   8   9
ENDBRANCH   1   8
BRANCH   4  13
ATOM     13  C   UNL     1      43.538   2.897  11.453  0.00  0.00    +0.000 C 
BRANCH  13  14
ATOM     14  C   UNL     1      43.700   4.196  12.173  0.00  0.00    +0.000 A 
ATOM     15  N   UNL     1      42.716   5.105  12.097  0.00  0.00    +0.000 NA
ATOM     16  N   UNL     1      43.305   6.256  12.448  0.00  0.00    +0.000 N 
ATOM     17  C   UNL     1      44.642   6.142  12.721  0.00  0.00    +0.000 A 
ATOM     18  C   UNL     1      45.625   7.109  12.953  0.00  0.00    +0.000 A 
ATOM     19  C   UNL     1      46.906   6.636  13.228  0.00  0.00    +0.000 A 
ATOM     20  F   UNL     1      47.896   7.520  13.417  0.00  0.00    +0.000 F 
ATOM     21  C   UNL     1      47.190   5.278  13.305  0.00  0.00    +0.000 A 
ATOM     22  C   UNL     1      46.197   4.329  13.022  0.00  0.00    +0.000 A 
ATOM     23  C   UNL     1      44.900   4.776  12.694  0.00  0.00    +0.000 A 
ATOM     24  H   UNL     1      42.750   7.106  12.428  0.00  0.00    +0.000 HD
ENDBRANCH  13  14
ENDBRANCH   4  13
TORSDOF 5
ENDMDL
MODEL 2
REMARK VINA RESULT:    -8.486      2.268      6.507
REMARK INTER + INTRA:         -11.059
REMARK INTER:                 -10.329
REMARK INTRA:                  -0.730
REMARK UNBOUND:                -0.341
REMARK  Name = 
REMARK  5 active torsions:
REMARK  status: ('A' for Active; 'I' for Inactive)
REMARK    1  A    between atoms: N_1  and  C_2
REMARK    2  A    between atoms: C_2  and  C_3
REMARK    3  A    between atoms: C_3  and  C_4
REMARK    4  A    between atoms: C_7  and  C_8
REMARK    5  A    between atoms: C_8  and  C_9
REMARK                            x       y       z     vdW  Elec       q    Type
REMARK                         _______ _______ _______ _____ _____    ______ ____
ROOT
ATOM      1  C   UNL     1      47.378   6.213  13.360  0.00  0.00    +0.000 A 
ATOM      2  C   UNL     1      47.268   6.789  12.087  0.00  0.00    +0.000 A 
ATOM      3  C   UNL     1      46.302   6.337  11.178  0.00  0.00    +0.000 A 
ATOM      4  C   UNL     1      45.413   5.309  11.526  0.00  0.00    +0.000 A 
ATOM      5  C   UNL     1      45.559   4.699  12.781  0.00  0.00    +0.000 A 
ATOM      6  C   UNL     1      46.526   5.153  13.676  0.00  0.00    +0.000 A 
ATOM      7  F   UNL     1      46.581   4.591  14.895  0.00  0.00    +0.000 F 
ENDROOT
BRANCH   1   8
ATOM      8  C   UNL     1      48.328   6.787  14.385  0.00  0.00    +0.000 C 
BRANCH   8   9
ATOM      9  C   UNL     1      48.472   8.310  14.309  0.00  0.00    +0.000 C 
BRANCH   9  10
ATOM     10  N   UNL     1      47.486   8.970  15.167  0.00  0.00    +0.000 NA
ATOM     11  H   UNL     1      46.901   8.260  15.607  0.00  0.00    +0.000 HD
ATOM     12  H   UNL     1      46.859   9.533  14.591  0.00  0.00    +0.000 HD
ENDBRANCH   9  10
ENDBRANCH   8   9
ENDBRANCH   1   8
BRANCH   4  13
ATOM     13  C   UNL     1      44.198   5.031  10.682  0.00  0.00    +0.000 C 
BRANCH  13  14
ATOM     14  C   UNL     1      44.318   3.766   9.895  0.00  0.00    +0.000 A 
ATOM     15  N   UNL     1      43.782   2.641  10.394  0.00  0.00    +0.000 NA
ATOM     16  N   UNL     1      44.400   1.659   9.722  0.00  0.00    +0.000 N 
ATOM     17  C   UNL     1      45.339   2.096   8.827  0.00  0.00    +0.000 A 
ATOM     18  C   UNL     1      46.291   1.403   8.073  0.00  0.00    +0.000 A 
ATOM     19  C   UNL     1      47.088   2.171   7.226  0.00  0.00    +0.000 A 
ATOM     20  F   UNL     1      48.046   1.563   6.512  0.00  0.00    +0.000 F 
ATOM     21  C   UNL     1      46.924   3.545   7.105  0.00  0.00    +0.000 A 
ATOM     22  C   UNL     1      45.993   4.222   7.906  0.00  0.00    +0.000 A 
ATOM     23  C   UNL     1      45.203   3.480   8.809  0.00  0.00    +0.000 A 
ATOM     24  H   UNL     1      44.176   0.699   9.963  0.00  0.00    +0.000 HD
ENDBRANCH  13  14
ENDBRANCH   4  13
TORSDOF 5
ENDMDL
MODEL 3
REMARK VINA RESULT:    -8.437      1.667      2.128
REMARK INTER + INTRA:         -10.998
REMARK INTER:                 -10.343
REMARK INTRA:                  -0.656
REMARK UNBOUND:                -0.341
REMARK  Name = 
REMARK  5 active torsions:
REMARK  status: ('A' for Active; 'I' for Inactive)
REMARK    1  A    between atoms: N_1  and  C_2
REMARK    2  A    between atoms: C_2  and  C_3
REMARK    3  A    between atoms: C_3  and  C_4
REMARK    4  A    between atoms: C_7  and  C_8
REMARK    5  A    between atoms: C_8  and  C_9
REMARK                            x       y       z     vdW  Elec       q    Type
REMARK                         _______ _______ _______ _____ _____    ______ ____
ROOT
ATOM      1  C   UNL     1      45.791   3.073   7.869  0.00  0.00    +0.000 A 
ATOM      2  C   UNL     1      45.792   4.447   8.150  0.00  0.00    +0.000 A 
ATOM      3  C   UNL     1      45.289   4.930   9.365  0.00  0.00    +0.000 A 
ATOM      4  C   UNL     1      44.785   4.050  10.335  0.00  0.00    +0.000 A 
ATOM      5  C   UNL     1      44.737   2.681  10.031  0.00  0.00    +0.000 A 
ATOM      6  C   UNL     1      45.236   2.211   8.818  0.00  0.00    +0.000 A 
ATOM      7  F   UNL     1      45.239   0.886   8.600  0.00  0.00    +0.000 F 
ENDROOT
BRANCH   1   8
ATOM      8  C   UNL     1      46.453   2.542   6.621  0.00  0.00    +0.000 C 
BRANCH   8   9
ATOM      9  C   UNL     1      47.805   1.868   6.876  0.00  0.00    +0.000 C 
BRANCH   9  10
ATOM     10  N   UNL     1      48.606   1.826   5.651  0.00  0.00    +0.000 NA
ATOM     11  H   UNL     1      49.594   1.868   5.900  0.00  0.00    +0.000 HD
ATOM     12  H   UNL     1      48.421   2.663   5.097  0.00  0.00    +0.000 HD
ENDBRANCH   9  10
ENDBRANCH   8   9
ENDBRANCH   1   8
BRANCH   4  13
ATOM     13  C   UNL     1      44.528   4.527  11.740  0.00  0.00    +0.000 C 
BRANCH  13  14
ATOM     14  C   UNL     1      45.761   4.535  12.583  0.00  0.00    +0.000 A 
ATOM     15  N   UNL     1      45.875   3.634  13.571  0.00  0.00    +0.000 NA
ATOM     16  N   UNL     1      46.818   4.146  14.374  0.00  0.00    +0.000 N 
ATOM     17  C   UNL     1      47.302   5.360  13.968  0.00  0.00    +0.000 A 
ATOM     18  C   UNL     1      48.149   6.278  14.598  0.00  0.00    +0.000 A 
ATOM     19  C   UNL     1      48.465   7.427  13.877  0.00  0.00    +0.000 A 
ATOM     20  F   UNL     1      49.238   8.359  14.451  0.00  0.00    +0.000 F 
ATOM     21  C   UNL     1      47.999   7.637  12.585  0.00  0.00    +0.000 A 
ATOM     22  C   UNL     1      47.115   6.724  11.992  0.00  0.00    +0.000 A 
ATOM     23  C   UNL     1      46.736   5.573  12.715  0.00  0.00    +0.000 A 
ATOM     24  H   UNL     1      47.049   3.643  15.224  0.00  0.00    +0.000 HD
ENDBRANCH  13  14
ENDBRANCH   4  13
TORSDOF 5
ENDMDL
MODEL 4
REMARK VINA RESULT:    -7.374      1.566      2.005
REMARK INTER + INTRA:          -9.655
REMARK INTER:                  -9.308
REMARK INTRA:                  -0.347
REMARK UNBOUND:                -0.341
REMARK  Name = 
REMARK  5 active torsions:
REMARK  status: ('A' for Active; 'I' for Inactive)
REMARK    1  A    between atoms: N_1  and  C_2
REMARK    2  A    between atoms: C_2  and  C_3
REMARK    3  A    between atoms: C_3  and  C_4
REMARK    4  A    between atoms: C_7  and  C_8
REMARK    5  A    between atoms: C_8  and  C_9
REMARK                            x       y       z     vdW  Elec       q    Type
REMARK                         _______ _______ _______ _____ _____    ______ ____
ROOT
ATOM      1  C   UNL     1      45.751   2.981   7.940  0.00  0.00    +0.000 A 
ATOM      2  C   UNL     1      45.007   1.999   8.609  0.00  0.00    +0.000 A 
ATOM      3  C   UNL     1      44.432   2.263   9.859  0.00  0.00    +0.000 A 
ATOM      4  C   UNL     1      44.575   3.521  10.464  0.00  0.00    +0.000 A 
ATOM      5  C   UNL     1      45.363   4.485   9.818  0.00  0.00    +0.000 A 
ATOM      6  C   UNL     1      45.935   4.210   8.577  0.00  0.00    +0.000 A 
ATOM      7  F   UNL     1      46.619   5.187   7.959  0.00  0.00    +0.000 F 
ENDROOT
BRANCH   1   8
ATOM      8  C   UNL     1      46.257   2.741   6.538  0.00  0.00    +0.000 C 
BRANCH   8   9
ATOM      9  C   UNL     1      47.693   2.208   6.482  0.00  0.00    +0.000 C 
BRANCH   9  10
ATOM     10  N   UNL     1      48.298   2.478   5.176  0.00  0.00    +0.000 NA
ATOM     11  H   UNL     1      47.656   3.047   4.624  0.00  0.00    +0.000 HD
ATOM     12  H   UNL     1      48.406   1.601   4.665  0.00  0.00    +0.000 HD
ENDBRANCH   9  10
ENDBRANCH   8   9
ENDBRANCH   1   8
BRANCH   4  13
ATOM     13  C   UNL     1      43.721   3.904  11.644  0.00  0.00    +0.000 C 
BRANCH  13  14
ATOM     14  C   UNL     1      43.562   5.383  11.786  0.00  0.00    +0.000 A 
ATOM     15  N   UNL     1      42.539   5.986  11.161  0.00  0.00    +0.000 NA
ATOM     16  N   UNL     1      42.899   7.277  11.116  0.00  0.00    +0.000 N 
ATOM     17  C   UNL     1      44.129   7.536  11.658  0.00  0.00    +0.000 A 
ATOM     18  C   UNL     1      44.917   8.692  11.656  0.00  0.00    +0.000 A 
ATOM     19  C   UNL     1      46.130   8.615  12.336  0.00  0.00    +0.000 A 
ATOM     20  F   UNL     1      46.943   9.681  12.330  0.00  0.00    +0.000 F 
ATOM     21  C   UNL     1      46.524   7.468  13.014  0.00  0.00    +0.000 A 
ATOM     22  C   UNL     1      45.738   6.308  12.962  0.00  0.00    +0.000 A 
ATOM     23  C   UNL     1      44.526   6.337  12.241  0.00  0.00    +0.000 A 
ATOM     24  H   UNL     1      42.282   7.931  10.645  0.00  0.00    +0.000 HD
ENDBRANCH  13  14
ENDBRANCH   4  13
TORSDOF 5
ENDMDL
MODEL 5
REMARK VINA RESULT:    -6.452      2.435      6.746
REMARK INTER + INTRA:          -8.490
REMARK INTER:                  -7.883
REMARK INTRA:                  -0.607
REMARK UNBOUND:                -0.341
REMARK  Name = 
REMARK  5 active torsions:
REMARK  status: ('A' for Active; 'I' for Inactive)
REMARK    1  A    between atoms: N_1  and  C_2
REMARK    2  A    between atoms: C_2  and  C_3
REMARK    3  A    between atoms: C_3  and  C_4
REMARK    4  A    between atoms: C_7  and  C_8
REMARK    5  A    between atoms: C_8  and  C_9
REMARK                            x       y       z     vdW  Elec       q    Type
REMARK                         _______ _______ _______ _____ _____    ______ ____
ROOT
ATOM      1  C   UNL     1      48.490   7.296  13.811  0.00  0.00    +0.000 A 
ATOM      2  C   UNL     1      48.197   6.214  12.969  0.00  0.00    +0.000 A 
ATOM      3  C   UNL     1      46.991   6.167  12.257  0.00  0.00    +0.000 A 
ATOM      4  C   UNL     1      46.056   7.208  12.358  0.00  0.00    +0.000 A 
ATOM      5  C   UNL     1      46.328   8.264  13.240  0.00  0.00    +0.000 A 
ATOM      6  C   UNL     1      47.528   8.299  13.948  0.00  0.00    +0.000 A 
ATOM      7  F   UNL     1      47.781   9.366  14.724  0.00  0.00    +0.000 F 
ENDROOT
BRANCH   1   8
ATOM      8  C   UNL     1      49.842   7.411  14.473  0.00  0.00    +0.000 C 
BRANCH   8   9
ATOM      9  C   UNL     1      49.830   7.066  15.966  0.00  0.00    +0.000 C 
BRANCH   9  10
ATOM     10  N   UNL     1      49.381   5.689  16.179  0.00  0.00    +0.000 NA
ATOM     11  H   UNL     1      49.865   5.077  15.522  0.00  0.00    +0.000 HD
ATOM     12  H   UNL     1      48.389   5.618  15.951  0.00  0.00    +0.000 HD
ENDBRANCH   9  10
ENDBRANCH   8   9
ENDBRANCH   1   8
BRANCH   4  13
ATOM     13  C   UNL     1      44.915   7.309  11.380  0.00  0.00    +0.000 C 
BRANCH  13  14
ATOM     14  C   UNL     1      44.168   6.024  11.230  0.00  0.00    +0.000 A 
ATOM     15  N   UNL     1      43.356   5.628  12.222  0.00  0.00    +0.000 NA
ATOM     16  N   UNL     1      43.188   4.316  12.003  0.00  0.00    +0.000 N 
ATOM     17  C   UNL     1      43.881   3.833  10.926  0.00  0.00    +0.000 A 
ATOM     18  C   UNL     1      44.099   2.528  10.475  0.00  0.00    +0.000 A 
ATOM     19  C   UNL     1      44.848   2.392   9.307  0.00  0.00    +0.000 A 
ATOM     20  F   UNL     1      45.122   1.161   8.854  0.00  0.00    +0.000 F 
ATOM     21  C   UNL     1      45.321   3.493   8.604  0.00  0.00    +0.000 A 
ATOM     22  C   UNL     1      45.129   4.790   9.102  0.00  0.00    +0.000 A 
ATOM     23  C   UNL     1      44.416   4.958  10.308  0.00  0.00    +0.000 A 
ATOM     24  H   UNL     1      42.628   3.787  12.664  0.00  0.00    +0.000 HD
ENDBRANCH  13  14
ENDBRANCH   4  13
TORSDOF 5
ENDMDL
MODEL 6
REMARK VINA RESULT:    -6.252      2.754      7.106
REMARK INTER + INTRA:          -8.238
REMARK INTER:                  -7.965
REMARK INTRA:                  -0.273
REMARK UNBOUND:                -0.341
REMARK  Name = 
REMARK  5 active torsions:
REMARK  status: ('A' for Active; 'I' for Inactive)
REMARK    1  A    between atoms: N_1  and  C_2
REMARK    2  A    between atoms: C_2  and  C_3
REMARK    3  A    between atoms: C_3  and  C_4
REMARK    4  A    between atoms: C_7  and  C_8
REMARK    5  A    between atoms: C_8  and  C_9
REMARK                            x       y       z     vdW  Elec       q    Type
REMARK                         _______ _______ _______ _____ _____    ______ ____
ROOT
ATOM      1  C   UNL     1      48.410   5.898  15.819  0.00  0.00    +0.000 A 
ATOM      2  C   UNL     1      48.792   7.144  15.300  0.00  0.00    +0.000 A 
ATOM      3  C   UNL     1      48.345   7.562  14.040  0.00  0.00    +0.000 A 
ATOM      4  C   UNL     1      47.492   6.751  13.275  0.00  0.00    +0.000 A 
ATOM      5  C   UNL     1      47.153   5.484  13.773  0.00  0.00    +0.000 A 
ATOM      6  C   UNL     1      47.608   5.076  15.026  0.00  0.00    +0.000 A 
ATOM      7  F   UNL     1      47.198   3.887  15.497  0.00  0.00    +0.000 F 
ENDROOT
BRANCH   1   8
ATOM      8  C   UNL     1      48.782   5.506  17.229  0.00  0.00    +0.000 C 
BRANCH   8   9
ATOM      9  C   UNL     1      47.839   6.068  18.297  0.00  0.00    +0.000 C 
BRANCH   9  10
ATOM     10  N   UNL     1      46.676   5.197  18.477  0.00  0.00    +0.000 NA
ATOM     11  H   UNL     1      45.844   5.774  18.594  0.00  0.00    +0.000 HD
ATOM     12  H   UNL     1      46.778   4.672  19.347  0.00  0.00    +0.000 HD
ENDBRANCH   9  10
ENDBRANCH   8   9
ENDBRANCH   1   8
BRANCH   4  13
ATOM     13  C   UNL     1      46.776   7.312  12.075  0.00  0.00    +0.000 C 
BRANCH  13  14
ATOM     14  C   UNL     1      45.500   6.594  11.775  0.00  0.00    +0.000 A 
ATOM     15  N   UNL     1      44.553   6.536  12.724  0.00  0.00    +0.000 NA
ATOM     16  N   UNL     1      43.770   5.518  12.343  0.00  0.00    +0.000 N 
ATOM     17  C   UNL     1      44.185   4.888  11.200  0.00  0.00    +0.000 A 
ATOM     18  C   UNL     1      43.751   3.710  10.582  0.00  0.00    +0.000 A 
ATOM     19  C   UNL     1      44.389   3.363   9.394  0.00  0.00    +0.000 A 
ATOM     20  F   UNL     1      44.041   2.223   8.782  0.00  0.00    +0.000 F 
ATOM     21  C   UNL     1      45.377   4.160   8.827  0.00  0.00    +0.000 A 
ATOM     22  C   UNL     1      45.826   5.311   9.490  0.00  0.00    +0.000 A 
ATOM     23  C   UNL     1      45.234   5.665  10.721  0.00  0.00    +0.000 A 
ATOM     24  H   UNL     1      42.991   5.260  12.941  0.00  0.00    +0.000 HD
ENDBRANCH  13  14
ENDBRANCH   4  13
TORSDOF 5
ENDMDL
MODEL 7
REMARK VINA RESULT:    -6.228      2.671      6.473
REMARK INTER + INTRA:          -8.208
REMARK INTER:                  -7.656
REMARK INTRA:                  -0.552
REMARK UNBOUND:                -0.341
REMARK  Name = 
REMARK  5 active torsions:
REMARK  status: ('A' for Active; 'I' for Inactive)
REMARK    1  A    between atoms: N_1  and  C_2
REMARK    2  A    between atoms: C_2  and  C_3
REMARK    3  A    between atoms: C_3  and  C_4
REMARK    4  A    between atoms: C_7  and  C_8
REMARK    5  A    between atoms: C_8  and  C_9
REMARK                            x       y       z     vdW  Elec       q    Type
REMARK                         _______ _______ _______ _____ _____    ______ ____
ROOT
ATOM      1  C   UNL     1      49.040   7.400  12.696  0.00  0.00    +0.000 A 
ATOM      2  C   UNL     1      48.178   7.532  11.597  0.00  0.00    +0.000 A 
ATOM      3  C   UNL     1      46.892   6.977  11.625  0.00  0.00    +0.000 A 
ATOM      4  C   UNL     1      46.432   6.289  12.759  0.00  0.00    +0.000 A 
ATOM      5  C   UNL     1      47.313   6.114  13.836  0.00  0.00    +0.000 A 
ATOM      6  C   UNL     1      48.592   6.666  13.795  0.00  0.00    +0.000 A 
ATOM      7  F   UNL     1      49.376   6.539  14.878  0.00  0.00    +0.000 F 
ENDROOT
BRANCH   1   8
ATOM      8  C   UNL     1      50.373   8.110  12.718  0.00  0.00    +0.000 C 
BRANCH   8   9
ATOM      9  C   UNL     1      50.280   9.587  13.113  0.00  0.00    +0.000 C 
BRANCH   9  10
ATOM     10  N   UNL     1      50.455   9.752  14.558  0.00  0.00    +0.000 NA
ATOM     11  H   UNL     1      50.876  10.663  14.739  0.00  0.00    +0.000 HD
ATOM     12  H   UNL     1      51.125   9.061  14.898  0.00  0.00    +0.000 HD
ENDBRANCH   9  10
ENDBRANCH   8   9
ENDBRANCH   1   8
BRANCH   4  13
ATOM     13  C   UNL     1      44.970   5.959  12.910  0.00  0.00    +0.000 C 
BRANCH  13  14
ATOM     14  C   UNL     1      44.589   4.693  12.215  0.00  0.00    +0.000 A 
ATOM     15  N   UNL     1      44.354   3.596  12.951  0.00  0.00    +0.000 NA
ATOM     16  N   UNL     1      44.466   2.585  12.078  0.00  0.00    +0.000 N 
ATOM     17  C   UNL     1      44.795   2.975  10.807  0.00  0.00    +0.000 A 
ATOM     18  C   UNL     1      45.159   2.236   9.677  0.00  0.00    +0.000 A 
ATOM     19  C   UNL     1      45.411   2.963   8.516  0.00  0.00    +0.000 A 
ATOM     20  F   UNL     1      45.804   2.308   7.415  0.00  0.00    +0.000 F 
ATOM     21  C   UNL     1      45.272   4.345   8.467  0.00  0.00    +0.000 A 
ATOM     22  C   UNL     1      44.951   5.067   9.626  0.00  0.00    +0.000 A 
ATOM     23  C   UNL     1      44.737   4.364  10.830  0.00  0.00    +0.000 A 
ATOM     24  H   UNL     1      44.362   1.637  12.425  0.00  0.00    +0.000 HD
ENDBRANCH  13  14
ENDBRANCH   4  13
TORSDOF 5
ENDMDL
MODEL 8
REMARK VINA RESULT:    -6.170      5.285      8.132
REMARK INTER + INTRA:          -8.134
REMARK INTER:                  -7.792
REMARK INTRA:                  -0.342
REMARK UNBOUND:                -0.341
REMARK  Name = 
REMARK  5 active torsions:
REMARK  status: ('A' for Active; 'I' for Inactive)
REMARK    1  A    between atoms: N_1  and  C_2
REMARK    2  A    between atoms: C_2  and  C_3
REMARK    3  A    between atoms: C_3  and  C_4
REMARK    4  A    between atoms: C_7  and  C_8
REMARK    5  A    between atoms: C_8  and  C_9
REMARK                            x       y       z     vdW  Elec       q    Type
REMARK                         _______ _______ _______ _____ _____    ______ ____
ROOT
ATOM      1  C   UNL     1      50.925   2.789  17.585  0.00  0.00    +0.000 A 
ATOM      2  C   UNL     1      49.998   1.966  16.929  0.00  0.00    +0.000 A 
ATOM      3  C   UNL     1      48.735   2.455  16.572  0.00  0.00    +0.000 A 
ATOM      4  C   UNL     1      48.374   3.783  16.848  0.00  0.00    +0.000 A 
ATOM      5  C   UNL     1      49.283   4.588  17.549  0.00  0.00    +0.000 A 
ATOM      6  C   UNL     1      50.535   4.091  17.905  0.00  0.00    +0.000 A 
ATOM      7  F   UNL     1      51.403   4.919  18.509  0.00  0.00    +0.000 F 
ENDROOT
BRANCH   1   8
ATOM      8  C   UNL     1      52.330   2.304  17.851  0.00  0.00    +0.000 C 
BRANCH   8   9
ATOM      9  C   UNL     1      52.596   0.877  17.360  0.00  0.00    +0.000 C 
BRANCH   9  10
ATOM     10  N   UNL     1      52.351  -0.095  18.427  0.00  0.00    +0.000 NA
ATOM     11  H   UNL     1      52.329  -1.032  18.024  0.00  0.00    +0.000 HD
ATOM     12  H   UNL     1      51.423   0.062  18.822  0.00  0.00    +0.000 HD
ENDBRANCH   9  10
ENDBRANCH   8   9
ENDBRANCH   1   8
BRANCH   4  13
ATOM     13  C   UNL     1      47.155   4.393  16.207  0.00  0.00    +0.000 C 
BRANCH  13  14
ATOM     14  C   UNL     1      47.434   4.952  14.850  0.00  0.00    +0.000 A 
ATOM     15  N   UNL     1      48.215   6.038  14.746  0.00  0.00    +0.000 NA
ATOM     16  N   UNL     1      47.932   6.530  13.532  0.00  0.00    +0.000 N 
ATOM     17  C   UNL     1      46.975   5.827  12.851  0.00  0.00    +0.000 A 
ATOM     18  C   UNL     1      46.298   6.102  11.658  0.00  0.00    +0.000 A 
ATOM     19  C   UNL     1      45.384   5.141  11.229  0.00  0.00    +0.000 A 
ATOM     20  F   UNL     1      44.677   5.373  10.115  0.00  0.00    +0.000 F 
ATOM     21  C   UNL     1      45.181   3.955  11.923  0.00  0.00    +0.000 A 
ATOM     22  C   UNL     1      45.839   3.724  13.141  0.00  0.00    +0.000 A 
ATOM     23  C   UNL     1      46.735   4.699  13.628  0.00  0.00    +0.000 A 
ATOM     24  H   UNL     1      48.388   7.390  13.244  0.00  0.00    +0.000 HD
ENDBRANCH  13  14
ENDBRANCH   4  13
TORSDOF 5
ENDMDL
MODEL 9
REMARK VINA RESULT:    -6.115      3.531      4.801
REMARK INTER + INTRA:          -8.065
REMARK INTER:                  -7.504
REMARK INTRA:                  -0.561
REMARK UNBOUND:                -0.341
REMARK  Name = 
REMARK  5 active torsions:
REMARK  status: ('A' for Active; 'I' for Inactive)
REMARK    1  A    between atoms: N_1  and  C_2
REMARK    2  A    between atoms: C_2  and  C_3
REMARK    3  A    between atoms: C_3  and  C_4
REMARK    4  A    between atoms: C_7  and  C_8
REMARK    5  A    between atoms: C_8  and  C_9
REMARK                            x       y       z     vdW  Elec       q    Type
REMARK                         _______ _______ _______ _____ _____    ______ ____
ROOT
ATOM      1  C   UNL     1      44.765   3.743  10.510  0.00  0.00    +0.000 A 
ATOM      2  C   UNL     1      45.349   4.871   9.914  0.00  0.00    +0.000 A 
ATOM      3  C   UNL     1      45.777   5.953  10.695  0.00  0.00    +0.000 A 
ATOM      4  C   UNL     1      45.646   5.927  12.091  0.00  0.00    +0.000 A 
ATOM      5  C   UNL     1      45.016   4.821  12.681  0.00  0.00    +0.000 A 
ATOM      6  C   UNL     1      44.589   3.752  11.895  0.00  0.00    +0.000 A 
ATOM      7  F   UNL     1      44.058   2.682  12.508  0.00  0.00    +0.000 F 
ENDROOT
BRANCH   1   8
ATOM      8  C   UNL     1      44.426   2.526   9.685  0.00  0.00    +0.000 C 
BRANCH   8   9
ATOM      9  C   UNL     1      45.257   2.395   8.404  0.00  0.00    +0.000 C 
BRANCH   9  10
ATOM     10  N   UNL     1      46.059   1.170   8.426  0.00  0.00    +0.000 NA
ATOM     11  H   UNL     1      46.705   1.183   7.637  0.00  0.00    +0.000 HD
ATOM     12  H   UNL     1      45.450   0.365   8.276  0.00  0.00    +0.000 HD
ENDBRANCH   9  10
ENDBRANCH   8   9
ENDBRANCH   1   8
BRANCH   4  13
ATOM     13  C   UNL     1      46.368   6.935  12.946  0.00  0.00    +0.000 C 
BRANCH  13  14
ATOM     14  C   UNL     1      47.780   7.156  12.512  0.00  0.00    +0.000 A 
ATOM     15  N   UNL     1      48.709   6.246  12.846  0.00  0.00    +0.000 NA
ATOM     16  N   UNL     1      49.871   6.900  12.711  0.00  0.00    +0.000 N 
ATOM     17  C   UNL     1      49.738   8.209  12.332  0.00  0.00    +0.000 A 
ATOM     18  C   UNL     1      50.671   9.248  12.247  0.00  0.00    +0.000 A 
ATOM     19  C   UNL     1      50.192  10.475  11.794  0.00  0.00    +0.000 A 
ATOM     20  F   UNL     1      51.034  11.516  11.733  0.00  0.00    +0.000 F 
ATOM     21  C   UNL     1      48.869  10.653  11.408  0.00  0.00    +0.000 A 
ATOM     22  C   UNL     1      47.943   9.608  11.546  0.00  0.00    +0.000 A 
ATOM     23  C   UNL     1      48.386   8.366  12.048  0.00  0.00    +0.000 A 
ATOM     24  H   UNL     1      50.728   6.411  12.950  0.00  0.00    +0.000 HD
ENDBRANCH  13  14
ENDBRANCH   4  13
TORSDOF 5
ENDMDL
