MODEL 1
REMARK VINA RESULT:    -8.459      0.000      0.000
REMARK INTER + INTRA:         -12.492
REMARK INTER:                 -11.426
REMARK INTRA:                  -1.066
REMARK UNBOUND:                -1.066
REMARK  Name = 
REMARK  6 active torsions:
REMARK  status: ('A' for Active; 'I' for Inactive)
REMARK    1  A    between atoms: C_2  and  C_20
REMARK    2  A    between atoms: N_3  and  C_4
REMARK    3  A    between atoms: C_4  and  C_5
REMARK    4  A    between atoms: C_8  and  C_9
REMARK    5  A    between atoms: C_9  and  C_10
REMARK    6  A    between atoms: C_10  and  C_11
REMARK                            x       y       z     vdW  Elec       q    Type
REMARK                         _______ _______ _______ _____ _____    ______ ____
ROOT
ATOM      1  C   UNL     1      47.121   8.023  13.250  0.00  0.00    +0.000 C 
ENDROOT
BRANCH   1   2
ATOM      2  C   UNL     1      46.237   7.133  12.414  0.00  0.00    +0.000 A 
ATOM      3  C   UNL     1      44.975   6.753  12.885  0.00  0.00    +0.000 A 
ATOM      4  C   UNL     1      44.157   5.911  12.125  0.00  0.00    +0.000 A 
ATOM      5  C   UNL     1      44.583   5.434  10.879  0.00  0.00    +0.000 A 
ATOM      6  C   UNL     1      45.856   5.795  10.421  0.00  0.00    +0.000 A 
ATOM      7  C   UNL     1      46.677   6.631  11.183  0.00  0.00    +0.000 A 
BRANCH   5   8
ATOM      8  C   UNL     1      43.713   4.506  10.060  0.00  0.00    +0.000 C 
BRANCH   8   9
ATOM      9  C   UNL     1      44.335   4.138   8.712  0.00  0.00    +0.000 C 
BRANCH   9  10
ATOM     10  C   UNL     1      44.966   2.757   8.731  0.00  0.00    +0.000 C 
ATOM     11  O   UNL     1      44.524   1.846   9.434  0.00  0.00    +0.000 OA
ATOM     12  N   UNL     1      46.048   2.572   7.898  0.00  0.00    +0.000 N 
ATOM     13  C   UNL     1      46.713   3.560   7.068  0.00  0.00    +0.000 C 
ATOM     14  C   UNL     1      47.233   2.736   5.905  0.00  0.00    +0.000 C 
ATOM     15  C   UNL     1      47.624   1.413   6.559  0.00  0.00    +0.000 C 
ATOM     16  C   UNL     1      46.654   1.264   7.730  0.00  0.00    +0.000 C 
ENDBRANCH   9  10
ENDBRANCH   8   9
ENDBRANCH   5   8
ENDBRANCH   1   2
BRANCH   1  19
ATOM     17  O   UNL     1      49.645   6.933  13.867  0.00  0.00    +0.000 OA
ATOM     18  C   UNL     1      48.765   6.922  14.724  0.00  0.00    +0.000 C 
ATOM     19  N   UNL     1      47.492   7.377  14.480  0.00  0.00    +0.000 N 
ATOM     20  H   UNL     1      46.871   7.532  15.266  0.00  0.00    +0.000 HD
BRANCH  18  21
ATOM     21  C   UNL     1      49.005   6.356  16.059  0.00  0.00    +0.000 A 
ATOM     22  C   UNL     1      49.821   7.031  16.956  0.00  0.00    +0.000 A 
ATOM     23  S   UNL     1      50.019   6.218  18.443  0.00  0.00    +0.000 S 
ATOM     24  C   UNL     1      48.983   4.960  17.958  0.00  0.00    +0.000 A 
ATOM     25  N   UNL     1      48.697   3.927  18.794  0.00  0.00    +0.000 NA
ATOM     26  C   UNL     1      47.857   3.069  18.316  0.00  0.00    +0.000 A 
ATOM     27  N   UNL     1      47.285   3.147  17.074  0.00  0.00    +0.000 N 
ATOM     28  C   UNL     1      47.603   4.129  16.166  0.00  0.00    +0.000 A 
ATOM     29  O   UNL     1      47.177   4.091  15.017  0.00  0.00    +0.000 OA
ATOM     30  C   UNL     1      48.508   5.145  16.671  0.00  0.00    +0.000 A 
ATOM     31  H   UNL     1      46.655   2.429  16.748  0.00  0.00    +0.000 HD
ENDBRANCH  18  21
ENDBRANCH   1  19
TORSDOF 6
ENDMDL
MODEL 2
REMARK VINA RESULT:    -8.085      1.677      1.929
REMARK INTER + INTRA:         -11.986
REMARK INTER:                 -11.132
REMARK INTRA:                  -0.855
REMARK UNBOUND:                -1.066
REMARK  Name = 
REMARK  6 active torsions:
REMARK  status: ('A' for Active; 'I' for Inactive)
REMARK    1  A    between atoms: C_2  and  C_20
REMARK    2  A    between atoms: N_3  and  C_4
REMARK    3  A    between atoms: C_4  and  C_5
REMARK    4  A    between atoms: C_8  and  C_9
REMARK    5  A    between atoms: C_9  and  C_10
REMARK    6  A    between atoms: C_10  and  C_11
REMARK                            x       y       z     vdW  Elec       q    Type
REMARK                         _______ _______ _______ _____ _____    ______ ____
ROOT
ATOM      1  C   UNL     1      48.464   6.625  13.763  0.00  0.00    +0.000 C 
ENDROOT
BRANCH   1   2
ATOM      2  C   UNL     1      47.264   6.132  12.996  0.00  0.00    +0.000 A 
ATOM      3  C   UNL     1      46.444   5.137  13.539  0.00  0.00    +0.000 A 
ATOM      4  C   UNL     1      45.341   4.659  12.824  0.00  0.00    +0.000 A 
ATOM      5  C   UNL     1      45.033   5.169  11.556  0.00  0.00    +0.000 A 
ATOM      6  C   UNL     1      45.871   6.147  11.005  0.00  0.00    +0.000 A 
ATOM      7  C   UNL     1      46.978   6.620  11.715  0.00  0.00    +0.000 A 
BRANCH   5   8
ATOM      8  C   UNL     1      43.854   4.642  10.769  0.00  0.00    +0.000 C 
BRANCH   8   9
ATOM      9  C   UNL     1      44.209   4.293   9.323  0.00  0.00    +0.000 C 
BRANCH   9  10
ATOM     10  C   UNL     1      44.794   2.897   9.199  0.00  0.00    +0.000 C 
ATOM     11  O   UNL     1      44.376   1.951   9.869  0.00  0.00    +0.000 OA
ATOM     12  N   UNL     1      45.804   2.742   8.274  0.00  0.00    +0.000 N 
ATOM     13  C   UNL     1      46.438   3.768   7.465  0.00  0.00    +0.000 C 
ATOM     14  C   UNL     1      46.842   3.014   6.212  0.00  0.00    +0.000 C 
ATOM     15  C   UNL     1      47.237   1.638   6.742  0.00  0.00    +0.000 C 
ATOM     16  C   UNL     1      46.353   1.433   7.970  0.00  0.00    +0.000 C 
ENDBRANCH   9  10
ENDBRANCH   8   9
ENDBRANCH   5   8
ENDBRANCH   1   2
BRANCH   1  19
ATOM     17  O   UNL     1      50.297   6.269  15.875  0.00  0.00    +0.000 OA
ATOM     18  C   UNL     1      49.142   6.597  16.136  0.00  0.00    +0.000 C 
ATOM     19  N   UNL     1      48.176   6.729  15.168  0.00  0.00    +0.000 N 
ATOM     20  H   UNL     1      47.306   7.190  15.408  0.00  0.00    +0.000 HD
BRANCH  18  21
ATOM     21  C   UNL     1      48.702   6.808  17.522  0.00  0.00    +0.000 A 
ATOM     22  C   UNL     1      48.234   8.054  17.913  0.00  0.00    +0.000 A 
ATOM     23  S   UNL     1      47.799   8.135  19.561  0.00  0.00    +0.000 S 
ATOM     24  C   UNL     1      48.175   6.493  19.797  0.00  0.00    +0.000 A 
ATOM     25  N   UNL     1      48.002   5.903  21.011  0.00  0.00    +0.000 NA
ATOM     26  C   UNL     1      48.279   4.641  21.035  0.00  0.00    +0.000 A 
ATOM     27  N   UNL     1      48.722   3.919  19.959  0.00  0.00    +0.000 N 
ATOM     28  C   UNL     1      48.986   4.488  18.736  0.00  0.00    +0.000 A 
ATOM     29  O   UNL     1      49.511   3.841  17.836  0.00  0.00    +0.000 OA
ATOM     30  C   UNL     1      48.647   5.896  18.641  0.00  0.00    +0.000 A 
ATOM     31  H   UNL     1      48.948   2.939  20.050  0.00  0.00    +0.000 HD
ENDBRANCH  18  21
ENDBRANCH   1  19
TORSDOF 6
ENDMDL
MODEL 3
REMARK VINA RESULT:    -8.026      1.900      2.347
REMARK INTER + INTRA:         -11.907
REMARK INTER:                 -11.034
REMARK INTRA:                  -0.873
REMARK UNBOUND:                -1.066
REMARK  Name = 
REMARK  6 active torsions:
REMARK  status: ('A' for Active; 'I' for Inactive)
REMARK    1  A    between atoms: C_2  and  C_20
REMARK    2  A    between atoms: N_3  and  C_4
REMARK    3  A    between atoms: C_4  and  C_5
REMARK    4  A    between atoms: C_8  and  C_9
REMARK    5  A    between atoms: C_9  and  C_10
REMARK    6  A    between atoms: C_10  and  C_11
REMARK                            x       y       z     vdW  Elec       q    Type
REMARK                         _______ _______ _______ _____ _____    ______ ____
ROOT
ATOM      1  C   UNL     1      47.961   6.800  13.708  0.00  0.00    +0.000 C 
ENDROOT
BRANCH   1   2
ATOM      2  C   UNL     1      46.881   6.200  12.845  0.00  0.00    +0.000 A 
ATOM      3  C   UNL     1      46.129   5.115  13.312  0.00  0.00    +0.000 A 
ATOM      4  C   UNL     1      45.140   4.539  12.509  0.00  0.00    +0.000 A 
ATOM      5  C   UNL     1      44.880   5.036  11.226  0.00  0.00    +0.000 A 
ATOM      6  C   UNL     1      45.651   6.105  10.751  0.00  0.00    +0.000 A 
ATOM      7  C   UNL     1      46.645   6.677  11.550  0.00  0.00    +0.000 A 
BRANCH   5   8
ATOM      8  C   UNL     1      43.825   4.405  10.344  0.00  0.00    +0.000 C 
BRANCH   8   9
ATOM      9  C   UNL     1      44.333   4.094   8.935  0.00  0.00    +0.000 C 
BRANCH   9  10
ATOM     10  C   UNL     1      44.977   2.722   8.848  0.00  0.00    +0.000 C 
ATOM     11  O   UNL     1      44.572   1.766   9.513  0.00  0.00    +0.000 OA
ATOM     12  N   UNL     1      46.026   2.598   7.963  0.00  0.00    +0.000 N 
ATOM     13  C   UNL     1      46.648   3.640   7.166  0.00  0.00    +0.000 C 
ATOM     14  C   UNL     1      47.128   2.890   5.937  0.00  0.00    +0.000 C 
ATOM     15  C   UNL     1      47.556   1.537   6.497  0.00  0.00    +0.000 C 
ATOM     16  C   UNL     1      46.637   1.308   7.694  0.00  0.00    +0.000 C 
ENDBRANCH   9  10
ENDBRANCH   8   9
ENDBRANCH   5   8
ENDBRANCH   1   2
BRANCH   1  19
ATOM     17  O   UNL     1      50.113   6.643  15.521  0.00  0.00    +0.000 OA
ATOM     18  C   UNL     1      48.997   6.282  15.887  0.00  0.00    +0.000 C 
ATOM     19  N   UNL     1      47.913   6.269  15.044  0.00  0.00    +0.000 N 
ATOM     20  H   UNL     1      46.987   6.158  15.442  0.00  0.00    +0.000 HD
BRANCH  18  21
ATOM     21  C   UNL     1      48.765   5.775  17.246  0.00  0.00    +0.000 A 
ATOM     22  C   UNL     1      49.004   4.439  17.533  0.00  0.00    +0.000 A 
ATOM     23  S   UNL     1      48.650   4.011  19.145  0.00  0.00    +0.000 S 
ATOM     24  C   UNL     1      48.210   5.608  19.531  0.00  0.00    +0.000 A 
ATOM     25  N   UNL     1      47.818   5.942  20.789  0.00  0.00    +0.000 NA
ATOM     26  C   UNL     1      47.561   7.198  20.953  0.00  0.00    +0.000 A 
ATOM     27  N   UNL     1      47.652   8.147  19.970  0.00  0.00    +0.000 N 
ATOM     28  C   UNL     1      47.967   7.844  18.667  0.00  0.00    +0.000 A 
ATOM     29  O   UNL     1      47.905   8.695  17.786  0.00  0.00    +0.000 OA
ATOM     30  C   UNL     1      48.310   6.452  18.438  0.00  0.00    +0.000 A 
ATOM     31  H   UNL     1      47.411   9.110  20.156  0.00  0.00    +0.000 HD
ENDBRANCH  18  21
ENDBRANCH   1  19
TORSDOF 6
ENDMDL
MODEL 4
REMARK VINA RESULT:    -7.432      2.093      2.710
REMARK INTER + INTRA:         -11.104
REMARK INTER:                  -9.853
REMARK INTRA:                  -1.252
REMARK UNBOUND:                -1.066
REMARK  Name = 
REMARK  6 active torsions:
REMARK  status: ('A' for Active; 'I' for Inactive)
REMARK    1  A    between atoms: C_2  and  C_20
REMARK    2  A    between atoms: N_3  and  C_4
REMARK    3  A    between atoms: C_4  and  C_5
REMARK    4  A    between atoms: C_8  and  C_9
REMARK    5  A    between atoms: C_9  and  C_10
REMARK    6  A    between atoms: C_10  and  C_11
REMARK                            x       y       z     vdW  Elec       q    Type
REMARK                         _______ _______ _______ _____ _____    ______ ____
ROOT
ATOM      1  C   UNL     1      48.857   7.804  12.846  0.00  0.00    +0.000 C 
ENDROOT
BRANCH   1   2
ATOM      2  C   UNL     1      47.511   7.126  12.842  0.00  0.00    +0.000 A 
ATOM      3  C   UNL     1      46.362   7.846  12.496  0.00  0.00    +0.000 A 
ATOM      4  C   UNL     1      45.107   7.229  12.511  0.00  0.00    +0.000 A 
ATOM      5  C   UNL     1      44.976   5.881  12.869  0.00  0.00    +0.000 A 
ATOM      6  C   UNL     1      46.124   5.170  13.240  0.00  0.00    +0.000 A 
ATOM      7  C   UNL     1      47.378   5.787  13.232  0.00  0.00    +0.000 A 
BRANCH   5   8
ATOM      8  C   UNL     1      43.619   5.213  12.907  0.00  0.00    +0.000 C 
BRANCH   8   9
ATOM      9  C   UNL     1      43.082   4.871  11.516  0.00  0.00    +0.000 C 
BRANCH   9  10
ATOM     10  C   UNL     1      43.483   3.474  11.076  0.00  0.00    +0.000 C 
ATOM     11  O   UNL     1      42.974   2.463  11.564  0.00  0.00    +0.000 OA
ATOM     12  N   UNL     1      44.432   3.400  10.079  0.00  0.00    +0.000 N 
ATOM     13  C   UNL     1      45.159   4.492   9.458  0.00  0.00    +0.000 C 
ATOM     14  C   UNL     1      45.420   3.975   8.055  0.00  0.00    +0.000 C 
ATOM     15  C   UNL     1      45.658   2.483   8.270  0.00  0.00    +0.000 C 
ATOM     16  C   UNL     1      44.800   2.129   9.483  0.00  0.00    +0.000 C 
ENDBRANCH   9  10
ENDBRANCH   8   9
ENDBRANCH   5   8
ENDBRANCH   1   2
BRANCH   1  19
ATOM     17  O   UNL     1      50.573   9.146  14.635  0.00  0.00    +0.000 OA
ATOM     18  C   UNL     1      50.509   7.920  14.676  0.00  0.00    +0.000 C 
ATOM     19  N   UNL     1      49.745   7.191  13.797  0.00  0.00    +0.000 N 
ATOM     20  H   UNL     1      49.570   6.213  13.999  0.00  0.00    +0.000 HD
BRANCH  18  21
ATOM     21  C   UNL     1      51.305   7.144  15.637  0.00  0.00    +0.000 A 
ATOM     22  C   UNL     1      52.683   7.300  15.674  0.00  0.00    +0.000 A 
ATOM     23  S   UNL     1      53.454   6.300  16.821  0.00  0.00    +0.000 S 
ATOM     24  C   UNL     1      51.967   5.659  17.343  0.00  0.00    +0.000 A 
ATOM     25  N   UNL     1      51.914   4.742  18.346  0.00  0.00    +0.000 NA
ATOM     26  C   UNL     1      50.718   4.379  18.675  0.00  0.00    +0.000 A 
ATOM     27  N   UNL     1      49.572   4.842  18.084  0.00  0.00    +0.000 N 
ATOM     28  C   UNL     1      49.581   5.708  17.016  0.00  0.00    +0.000 A 
ATOM     29  O   UNL     1      48.545   5.994  16.424  0.00  0.00    +0.000 OA
ATOM     30  C   UNL     1      50.899   6.183  16.637  0.00  0.00    +0.000 A 
ATOM     31  H   UNL     1      48.667   4.498  18.369  0.00  0.00    +0.000 HD
ENDBRANCH  18  21
ENDBRANCH   1  19
TORSDOF 6
ENDMDL
MODEL 5
REMARK VINA RESULT:    -6.968      1.941      2.607
REMARK INTER + INTRA:         -10.478
REMARK INTER:                 -10.181
REMARK INTRA:                  -0.297
REMARK UNBOUND:                -1.066
REMARK  Name = 
REMARK  6 active torsions:
REMARK  status: ('A' for Active; 'I' for Inactive)
REMARK    1  A    between atoms: C_2  and  C_20
REMARK    2  A    between atoms: N_3  and  C_4
REMARK    3  A    between atoms: C_4  and  C_5
REMARK    4  A    between atoms: C_8  and  C_9
REMARK    5  A    between atoms: C_9  and  C_10
REMARK    6  A    between atoms: C_10  and  C_11
REMARK                            x       y       z     vdW  Elec       q    Type
REMARK                         _______ _______ _______ _____ _____    ______ ____
ROOT
ATOM      1  C   UNL     1      47.732   7.034  13.784  0.00  0.00    +0.000 C 
ENDROOT
BRANCH   1   2
ATOM      2  C   UNL     1      46.791   6.152  13.004  0.00  0.00    +0.000 A 
ATOM      3  C   UNL     1      46.302   4.970  13.573  0.00  0.00    +0.000 A 
ATOM      4  C   UNL     1      45.446   4.135  12.848  0.00  0.00    +0.000 A 
ATOM      5  C   UNL     1      45.059   4.465  11.543  0.00  0.00    +0.000 A 
ATOM      6  C   UNL     1      45.570   5.635  10.967  0.00  0.00    +0.000 A 
ATOM      7  C   UNL     1      46.431   6.467  11.688  0.00  0.00    +0.000 A 
BRANCH   5   8
ATOM      8  C   UNL     1      44.150   3.556  10.746  0.00  0.00    +0.000 C 
BRANCH   8   9
ATOM      9  C   UNL     1      44.911   2.649   9.778  0.00  0.00    +0.000 C 
BRANCH   9  10
ATOM     10  C   UNL     1      45.086   3.289   8.412  0.00  0.00    +0.000 C 
ATOM     11  O   UNL     1      44.492   4.320   8.092  0.00  0.00    +0.000 OA
ATOM     12  N   UNL     1      45.968   2.664   7.557  0.00  0.00    +0.000 N 
ATOM     13  C   UNL     1      46.686   1.420   7.770  0.00  0.00    +0.000 C 
ATOM     14  C   UNL     1      47.960   1.618   6.969  0.00  0.00    +0.000 C 
ATOM     15  C   UNL     1      47.490   2.418   5.757  0.00  0.00    +0.000 C 
ATOM     16  C   UNL     1      46.319   3.250   6.276  0.00  0.00    +0.000 C 
ENDBRANCH   9  10
ENDBRANCH   8   9
ENDBRANCH   5   8
ENDBRANCH   1   2
BRANCH   1  19
ATOM     17  O   UNL     1      50.095   7.538  15.234  0.00  0.00    +0.000 OA
ATOM     18  C   UNL     1      49.267   6.757  15.696  0.00  0.00    +0.000 C 
ATOM     19  N   UNL     1      48.121   6.413  15.021  0.00  0.00    +0.000 N 
ATOM     20  H   UNL     1      47.385   5.931  15.525  0.00  0.00    +0.000 HD
BRANCH  18  21
ATOM     21  C   UNL     1      49.484   6.087  16.985  0.00  0.00    +0.000 A 
ATOM     22  C   UNL     1      48.399   5.794  17.800  0.00  0.00    +0.000 A 
ATOM     23  S   UNL     1      48.832   5.049  19.272  0.00  0.00    +0.000 S 
ATOM     24  C   UNL     1      50.480   5.048  18.851  0.00  0.00    +0.000 A 
ATOM     25  N   UNL     1      51.414   4.517  19.685  0.00  0.00    +0.000 NA
ATOM     26  C   UNL     1      52.620   4.537  19.217  0.00  0.00    +0.000 A 
ATOM     27  N   UNL     1      52.974   5.049  17.997  0.00  0.00    +0.000 N 
ATOM     28  C   UNL     1      52.078   5.665  17.157  0.00  0.00    +0.000 A 
ATOM     29  O   UNL     1      52.453   6.232  16.136  0.00  0.00    +0.000 OA
ATOM     30  C   UNL     1      50.701   5.628  17.614  0.00  0.00    +0.000 A 
ATOM     31  H   UNL     1      53.939   5.060  17.701  0.00  0.00    +0.000 HD
ENDBRANCH  18  21
ENDBRANCH   1  19
TORSDOF 6
ENDMDL
MODEL 6
REMARK VINA RESULT:    -6.809      2.492      3.697
REMARK INTER + INTRA:         -10.263
REMARK INTER:                  -9.724
REMARK INTRA:                  -0.539
REMARK UNBOUND:                -1.066
REMARK  Name = 
REMARK  6 active torsions:
REMARK  status: ('A' for Active; 'I' for Inactive)
REMARK    1  A    between atoms: C_2  and  C_20
REMARK    2  A    between atoms: N_3  and  C_4
REMARK    3  A    between atoms: C_4  and  C_5
REMARK    4  A    between atoms: C_8  and  C_9
REMARK    5  A    between atoms: C_9  and  C_10
REMARK    6  A    between atoms: C_10  and  C_11
REMARK                            x       y       z     vdW  Elec       q    Type
REMARK                         _______ _______ _______ _____ _____    ______ ____
ROOT
ATOM      1  C   UNL     1      47.275   4.992  14.646  0.00  0.00    +0.000 C 
ENDROOT
BRANCH   1   2
ATOM      2  C   UNL     1      46.322   4.798  13.495  0.00  0.00    +0.000 A 
ATOM      3  C   UNL     1      45.918   3.510  13.126  0.00  0.00    +0.000 A 
ATOM      4  C   UNL     1      45.050   3.320  12.046  0.00  0.00    +0.000 A 
ATOM      5  C   UNL     1      44.567   4.413  11.316  0.00  0.00    +0.000 A 
ATOM      6  C   UNL     1      44.993   5.699  11.671  0.00  0.00    +0.000 A 
ATOM      7  C   UNL     1      45.866   5.890  12.746  0.00  0.00    +0.000 A 
BRANCH   5   8
ATOM      8  C   UNL     1      43.644   4.215  10.133  0.00  0.00    +0.000 C 
BRANCH   8   9
ATOM      9  C   UNL     1      44.394   4.075   8.807  0.00  0.00    +0.000 C 
BRANCH   9  10
ATOM     10  C   UNL     1      45.006   2.696   8.639  0.00  0.00    +0.000 C 
ATOM     11  O   UNL     1      44.543   1.701   9.200  0.00  0.00    +0.000 OA
ATOM     12  N   UNL     1      46.097   2.614   7.801  0.00  0.00    +0.000 N 
ATOM     13  C   UNL     1      46.787   3.699   7.126  0.00  0.00    +0.000 C 
ATOM     14  C   UNL     1      47.312   3.038   5.864  0.00  0.00    +0.000 C 
ATOM     15  C   UNL     1      47.675   1.631   6.330  0.00  0.00    +0.000 C 
ATOM     16  C   UNL     1      46.688   1.333   7.456  0.00  0.00    +0.000 C 
ENDBRANCH   9  10
ENDBRANCH   8   9
ENDBRANCH   5   8
ENDBRANCH   1   2
BRANCH   1  19
ATOM     17  O   UNL     1      49.250   6.440  13.251  0.00  0.00    +0.000 OA
ATOM     18  C   UNL     1      48.539   7.029  14.061  0.00  0.00    +0.000 C 
ATOM     19  N   UNL     1      47.598   6.382  14.824  0.00  0.00    +0.000 N 
ATOM     20  H   UNL     1      46.910   6.935  15.322  0.00  0.00    +0.000 HD
BRANCH  18  21
ATOM     21  C   UNL     1      48.697   8.468  14.313  0.00  0.00    +0.000 A 
ATOM     22  C   UNL     1      48.724   9.355  13.246  0.00  0.00    +0.000 A 
ATOM     23  S   UNL     1      48.949  10.980  13.713  0.00  0.00    +0.000 S 
ATOM     24  C   UNL     1      48.970  10.561  15.362  0.00  0.00    +0.000 A 
ATOM     25  N   UNL     1      49.109  11.512  16.323  0.00  0.00    +0.000 NA
ATOM     26  C   UNL     1      49.056  11.060  17.533  0.00  0.00    +0.000 A 
ATOM     27  N   UNL     1      48.888   9.742  17.866  0.00  0.00    +0.000 N 
ATOM     28  C   UNL     1      48.822   8.738  16.930  0.00  0.00    +0.000 A 
ATOM     29  O   UNL     1      48.809   7.558  17.265  0.00  0.00    +0.000 OA
ATOM     30  C   UNL     1      48.829   9.198  15.553  0.00  0.00    +0.000 A 
ATOM     31  H   UNL     1      48.883   9.449  18.832  0.00  0.00    +0.000 HD
ENDBRANCH  18  21
ENDBRANCH   1  19
TORSDOF 6
ENDMDL
MODEL 7
REMARK VINA RESULT:    -6.770      3.881      9.962
REMARK INTER + INTRA:         -10.210
REMARK INTER:                  -9.237
REMARK INTRA:                  -0.973
REMARK UNBOUND:                -1.066
REMARK  Name = 
REMARK  6 active torsions:
REMARK  status: ('A' for Active; 'I' for Inactive)
REMARK    1  A    between atoms: C_2  and  C_20
REMARK    2  A    between atoms: N_3  and  C_4
REMARK    3  A    between atoms: C_4  and  C_5
REMARK    4  A    between atoms: C_8  and  C_9
REMARK    5  A    between atoms: C_9  and  C_10
REMARK    6  A    between atoms: C_10  and  C_11
REMARK                            x       y       z     vdW  Elec       q    Type
REMARK                         _______ _______ _______ _____ _____    ______ ____
ROOT
ATOM      1  C   UNL     1      47.181   3.424  16.861  0.00  0.00    +0.000 C 
ENDROOT
BRANCH   1   2
ATOM      2  C   UNL     1      48.670   3.367  17.086  0.00  0.00    +0.000 A 
ATOM      3  C   UNL     1      49.356   2.155  16.952  0.00  0.00    +0.000 A 
ATOM      4  C   UNL     1      50.734   2.090  17.181  0.00  0.00    +0.000 A 
ATOM      5  C   UNL     1      51.454   3.235  17.544  0.00  0.00    +0.000 A 
ATOM      6  C   UNL     1      50.761   4.442  17.702  0.00  0.00    +0.000 A 
ATOM      7  C   UNL     1      49.382   4.507  17.481  0.00  0.00    +0.000 A 
BRANCH   5   8
ATOM      8  C   UNL     1      52.941   3.169  17.812  0.00  0.00    +0.000 C 
BRANCH   8   9
ATOM      9  C   UNL     1      53.297   3.446  19.274  0.00  0.00    +0.000 C 
BRANCH   9  10
ATOM     10  C   UNL     1      54.249   4.621  19.417  0.00  0.00    +0.000 C 
ATOM     11  O   UNL     1      55.406   4.580  18.997  0.00  0.00    +0.000 OA
ATOM     12  N   UNL     1      53.736   5.748  20.023  0.00  0.00    +0.000 N 
ATOM     13  C   UNL     1      52.423   5.920  20.619  0.00  0.00    +0.000 C 
ATOM     14  C   UNL     1      52.146   7.398  20.416  0.00  0.00    +0.000 C 
ATOM     15  C   UNL     1      53.520   8.040  20.589  0.00  0.00    +0.000 C 
ATOM     16  C   UNL     1      54.503   6.978  20.100  0.00  0.00    +0.000 C 
ENDBRANCH   9  10
ENDBRANCH   8   9
ENDBRANCH   5   8
ENDBRANCH   1   2
BRANCH   1  19
ATOM     17  O   UNL     1      47.254   3.046  14.069  0.00  0.00    +0.000 OA
ATOM     18  C   UNL     1      46.851   4.116  14.515  0.00  0.00    +0.000 C 
ATOM     19  N   UNL     1      46.844   4.399  15.859  0.00  0.00    +0.000 N 
ATOM     20  H   UNL     1      46.321   5.205  16.185  0.00  0.00    +0.000 HD
BRANCH  18  21
ATOM     21  C   UNL     1      46.406   5.197  13.625  0.00  0.00    +0.000 A 
ATOM     22  C   UNL     1      47.261   6.252  13.342  0.00  0.00    +0.000 A 
ATOM     23  S   UNL     1      46.575   7.435  12.323  0.00  0.00    +0.000 S 
ATOM     24  C   UNL     1      45.126   6.555  12.185  0.00  0.00    +0.000 A 
ATOM     25  N   UNL     1      44.101   7.010  11.415  0.00  0.00    +0.000 NA
ATOM     26  C   UNL     1      43.082   6.217  11.360  0.00  0.00    +0.000 A 
ATOM     27  N   UNL     1      42.992   5.016  12.013  0.00  0.00    +0.000 N 
ATOM     28  C   UNL     1      43.968   4.553  12.862  0.00  0.00    +0.000 A 
ATOM     29  O   UNL     1      43.796   3.542  13.535  0.00  0.00    +0.000 OA
ATOM     30  C   UNL     1      45.157   5.385  12.924  0.00  0.00    +0.000 A 
ATOM     31  H   UNL     1      42.155   4.455  11.951  0.00  0.00    +0.000 HD
ENDBRANCH  18  21
ENDBRANCH   1  19
TORSDOF 6
ENDMDL
MODEL 8
REMARK VINA RESULT:    -6.757      2.491      3.572
REMARK INTER + INTRA:         -10.192
REMARK INTER:                  -9.464
REMARK INTRA:                  -0.728
REMARK UNBOUND:                -1.066
REMARK  Name = 
REMARK  6 active torsions:
REMARK  status: ('A' for Active; 'I' for Inactive)
REMARK    1  A    between atoms: C_2  and  C_20
REMARK    2  A    between atoms: N_3  and  C_4
REMARK    3  A    between atoms: C_4  and  C_5
REMARK    4  A    between atoms: C_8  and  C_9
REMARK    5  A    between atoms: C_9  and  C_10
REMARK    6  A    between atoms: C_10  and  C_11
REMARK                            x       y       z     vdW  Elec       q    Type
REMARK                         _______ _______ _______ _____ _____    ______ ____
ROOT
ATOM      1  C   UNL     1      48.926   6.637  14.029  0.00  0.00    +0.000 C 
ENDROOT
BRANCH   1   2
ATOM      2  C   UNL     1      47.495   6.346  13.655  0.00  0.00    +0.000 A 
ATOM      3  C   UNL     1      46.938   5.092  13.929  0.00  0.00    +0.000 A 
ATOM      4  C   UNL     1      45.618   4.807  13.567  0.00  0.00    +0.000 A 
ATOM      5  C   UNL     1      44.828   5.769  12.926  0.00  0.00    +0.000 A 
ATOM      6  C   UNL     1      45.396   7.015  12.629  0.00  0.00    +0.000 A 
ATOM      7  C   UNL     1      46.717   7.298  12.985  0.00  0.00    +0.000 A 
BRANCH   5   8
ATOM      8  C   UNL     1      43.406   5.462  12.512  0.00  0.00    +0.000 C 
BRANCH   8   9
ATOM      9  C   UNL     1      43.276   5.125  11.025  0.00  0.00    +0.000 C 
BRANCH   9  10
ATOM     10  C   UNL     1      43.640   3.680  10.732  0.00  0.00    +0.000 C 
ATOM     11  O   UNL     1      43.069   2.737  11.283  0.00  0.00    +0.000 OA
ATOM     12  N   UNL     1      44.629   3.482   9.794  0.00  0.00    +0.000 N 
ATOM     13  C   UNL     1      45.427   4.486   9.113  0.00  0.00    +0.000 C 
ATOM     14  C   UNL     1      45.731   3.834   7.777  0.00  0.00    +0.000 C 
ATOM     15  C   UNL     1      45.899   2.360   8.135  0.00  0.00    +0.000 C 
ATOM     16  C   UNL     1      44.974   2.149   9.332  0.00  0.00    +0.000 C 
ENDBRANCH   9  10
ENDBRANCH   8   9
ENDBRANCH   5   8
ENDBRANCH   1   2
BRANCH   1  19
ATOM     17  O   UNL     1      49.277   5.196  16.425  0.00  0.00    +0.000 OA
ATOM     18  C   UNL     1      49.244   6.423  16.466  0.00  0.00    +0.000 C 
ATOM     19  N   UNL     1      49.014   7.192  15.352  0.00  0.00    +0.000 N 
ATOM     20  H   UNL     1      49.195   8.189  15.402  0.00  0.00    +0.000 HD
BRANCH  18  21
ATOM     21  C   UNL     1      49.386   7.150  17.736  0.00  0.00    +0.000 A 
ATOM     22  C   UNL     1      50.105   6.582  18.778  0.00  0.00    +0.000 A 
ATOM     23  S   UNL     1      50.140   7.541  20.187  0.00  0.00    +0.000 S 
ATOM     24  C   UNL     1      49.236   8.772  19.438  0.00  0.00    +0.000 A 
ATOM     25  N   UNL     1      48.928   9.917  20.104  0.00  0.00    +0.000 NA
ATOM     26  C   UNL     1      48.281  10.787  19.399  0.00  0.00    +0.000 A 
ATOM     27  N   UNL     1      47.908  10.610  18.093  0.00  0.00    +0.000 N 
ATOM     28  C   UNL     1      48.128   9.440  17.406  0.00  0.00    +0.000 A 
ATOM     29  O   UNL     1      47.660   9.265  16.286  0.00  0.00    +0.000 OA
ATOM     30  C   UNL     1      48.893   8.447  18.138  0.00  0.00    +0.000 A 
ATOM     31  H   UNL     1      47.379  11.318  17.605  0.00  0.00    +0.000 HD
ENDBRANCH  18  21
ENDBRANCH   1  19
TORSDOF 6
ENDMDL
MODEL 9
REMARK VINA RESULT:    -6.651      3.516      5.742
REMARK INTER + INTRA:         -10.050
REMARK INTER:                  -9.075
REMARK INTRA:                  -0.975
REMARK UNBOUND:                -1.066
REMARK  Name = 
REMARK  6 active torsions:
REMARK  status: ('A' for Active; 'I' for Inactive)
REMARK    1  A    between atoms: C_2  and  C_20
REMARK    2  A    between atoms: N_3  and  C_4
REMARK    3  A    between atoms: C_4  and  C_5
REMARK    4  A    between atoms: C_8  and  C_9
REMARK    5  A    between atoms: C_9  and  C_10
REMARK    6  A    between atoms: C_10  and  C_11
REMARK                            x       y       z     vdW  Elec       q    Type
REMARK                         _______ _______ _______ _____ _____    ______ ____
ROOT
ATOM      1  C   UNL     1      48.157   3.623  17.901  0.00  0.00    +0.000 C 
ENDROOT
BRANCH   1   2
ATOM      2  C   UNL     1      47.987   4.456  16.657  0.00  0.00    +0.000 A 
ATOM      3  C   UNL     1      47.224   3.975  15.587  0.00  0.00    +0.000 A 
ATOM      4  C   UNL     1      47.078   4.733  14.422  0.00  0.00    +0.000 A 
ATOM      5  C   UNL     1      47.690   5.988  14.303  0.00  0.00    +0.000 A 
ATOM      6  C   UNL     1      48.474   6.456  15.365  0.00  0.00    +0.000 A 
ATOM      7  C   UNL     1      48.626   5.696  16.528  0.00  0.00    +0.000 A 
BRANCH   5   8
ATOM      8  C   UNL     1      47.554   6.805  13.037  0.00  0.00    +0.000 C 
BRANCH   8   9
ATOM      9  C   UNL     1      46.100   7.010  12.610  0.00  0.00    +0.000 C 
BRANCH   9  10
ATOM     10  C   UNL     1      45.709   6.103  11.456  0.00  0.00    +0.000 C 
ATOM     11  O   UNL     1      46.335   6.089  10.395  0.00  0.00    +0.000 OA
ATOM     12  N   UNL     1      44.628   5.276  11.673  0.00  0.00    +0.000 N 
ATOM     13  C   UNL     1      43.763   5.226  12.838  0.00  0.00    +0.000 C 
ATOM     14  C   UNL     1      43.324   3.773  12.876  0.00  0.00    +0.000 C 
ATOM     15  C   UNL     1      43.196   3.407  11.400  0.00  0.00    +0.000 C 
ATOM     16  C   UNL     1      44.240   4.273  10.698  0.00  0.00    +0.000 C 
ENDBRANCH   9  10
ENDBRANCH   8   9
ENDBRANCH   5   8
ENDBRANCH   1   2
BRANCH   1  19
ATOM     17  O   UNL     1      49.641   1.840  16.300  0.00  0.00    +0.000 OA
ATOM     18  C   UNL     1      50.202   2.415  17.229  0.00  0.00    +0.000 C 
ATOM     19  N   UNL     1      49.533   3.249  18.091  0.00  0.00    +0.000 N 
ATOM     20  H   UNL     1      50.073   3.847  18.707  0.00  0.00    +0.000 HD
BRANCH  18  21
ATOM     21  C   UNL     1      51.625   2.193  17.518  0.00  0.00    +0.000 A 
ATOM     22  C   UNL     1      52.116   0.898  17.608  0.00  0.00    +0.000 A 
ATOM     23  S   UNL     1      53.778   0.821  17.984  0.00  0.00    +0.000 S 
ATOM     24  C   UNL     1      53.911   2.517  17.992  0.00  0.00    +0.000 A 
ATOM     25  N   UNL     1      55.105   3.124  18.230  0.00  0.00    +0.000 NA
ATOM     26  C   UNL     1      55.072   4.414  18.156  0.00  0.00    +0.000 A 
ATOM     27  N   UNL     1      53.952   5.151  17.876  0.00  0.00    +0.000 N 
ATOM     28  C   UNL     1      52.710   4.586  17.707  0.00  0.00    +0.000 A 
ATOM     29  O   UNL     1      51.707   5.282  17.594  0.00  0.00    +0.000 OA
ATOM     30  C   UNL     1      52.700   3.134  17.734  0.00  0.00    +0.000 A 
ATOM     31  H   UNL     1      53.986   6.159  17.860  0.00  0.00    +0.000 HD
ENDBRANCH  18  21
ENDBRANCH   1  19
TORSDOF 6
ENDMDL
