MODEL 1
REMARK VINA RESULT:    -7.777      0.000      0.000
REMARK INTER + INTRA:         -12.529
REMARK INTER:                 -11.414
REMARK INTRA:                  -1.115
REMARK UNBOUND:                -1.115
REMARK  Name = 
REMARK  9 active torsions:
REMARK  status: ('A' for Active; 'I' for Inactive)
REMARK    1  A    between atoms: C_1  and  O_2
REMARK    2  A    between atoms: O_2  and  C_3
REMARK    3  A    between atoms: C_10  and  C_11
REMARK    4  A    between atoms: N_13  and  C_14
REMARK    5  A    between atoms: C_14  and  C_15
REMARK    6  A    between atoms: C_18  and  C_19
REMARK    7  A    between atoms: C_19  and  O_20
REMARK    8  A    between atoms: O_20  and  C_21
REMARK    9  A    between atoms: C_21  and  C_22
REMARK                            x       y       z     vdW  Elec       q    Type
REMARK                         _______ _______ _______ _____ _____    ______ ____
ROOT
ATOM      1  C   UNL     1      47.999   6.875  13.353  0.00  0.00    +0.000 C 
ENDROOT
BRANCH   1   2
ATOM      2  C   UNL     1      46.922   5.993  12.770  0.00  0.00    +0.000 A 
ATOM      3  C   UNL     1      46.469   4.858  13.457  0.00  0.00    +0.000 A 
ATOM      4  C   UNL     1      45.434   4.072  12.935  0.00  0.00    +0.000 A 
ATOM      5  C   UNL     1      44.832   4.401  11.711  0.00  0.00    +0.000 A 
ATOM      6  C   UNL     1      45.317   5.510  11.006  0.00  0.00    +0.000 A 
ATOM      7  C   UNL     1      46.355   6.292  11.525  0.00  0.00    +0.000 A 
BRANCH   5   8
ATOM      8  C   UNL     1      43.691   3.579  11.159  0.00  0.00    +0.000 C 
BRANCH   8   9
ATOM      9  O   UNL     1      43.879   3.380   9.760  0.00  0.00    +0.000 OA
BRANCH   9  10
ATOM     10  C   UNL     1      44.468   2.102   9.483  0.00  0.00    +0.000 C 
BRANCH  10  11
ATOM     11  C   UNL     1      45.571   2.221   8.451  0.00  0.00    +0.000 A 
ATOM     12  N   UNL     1      46.321   1.126   8.191  0.00  0.00    +0.000 NA
ATOM     13  C   UNL     1      47.299   1.270   7.277  0.00  0.00    +0.000 A 
ATOM     14  C   UNL     1      47.549   2.444   6.609  0.00  0.00    +0.000 A 
ATOM     15  C   UNL     1      46.725   3.494   6.931  0.00  0.00    +0.000 A 
ATOM     16  N   UNL     1      45.731   3.414   7.837  0.00  0.00    +0.000 NA
ENDBRANCH  10  11
ENDBRANCH   9  10
ENDBRANCH   8   9
ENDBRANCH   5   8
ENDBRANCH   1   2
BRANCH   1  19
ATOM     17  C   UNL     1      49.029   6.825  15.588  0.00  0.00    +0.000 C 
ATOM     18  O   UNL     1      50.150   6.667  15.106  0.00  0.00    +0.000 OA
ATOM     19  N   UNL     1      47.921   6.926  14.793  0.00  0.00    +0.000 N 
ATOM     20  H   UNL     1      47.000   6.944  15.207  0.00  0.00    +0.000 HD
BRANCH  17  28
ATOM     21  C   UNL     1      48.902   4.508  18.138  0.00  0.00    +0.000 A 
ATOM     22  N   UNL     1      48.727   3.833  19.293  0.00  0.00    +0.000 NA
ATOM     23  C   UNL     1      48.438   4.523  20.395  0.00  0.00    +0.000 A 
ATOM     24  N   UNL     1      48.307   5.845  20.496  0.00  0.00    +0.000 NA
ATOM     25  C   UNL     1      48.473   6.480  19.325  0.00  0.00    +0.000 A 
ATOM     26  S   UNL     1      48.356   8.172  19.274  0.00  0.00    +0.000 S 
ATOM     27  C   UNL     1      48.645   8.191  17.601  0.00  0.00    +0.000 A 
ATOM     28  C   UNL     1      48.828   6.927  17.044  0.00  0.00    +0.000 A 
ATOM     29  C   UNL     1      48.755   5.906  18.089  0.00  0.00    +0.000 A 
BRANCH  21  31
ATOM     30  C   UNL     1      48.183   3.100  16.409  0.00  0.00    +0.000 C 
ATOM     31  O   UNL     1      49.271   3.793  17.017  0.00  0.00    +0.000 OA
ENDBRANCH  21  31
ENDBRANCH  17  28
ENDBRANCH   1  19
TORSDOF 8
ENDMDL
MODEL 2
REMARK VINA RESULT:    -7.248      1.755      2.811
REMARK INTER + INTRA:         -11.753
REMARK INTER:                 -10.605
REMARK INTRA:                  -1.148
REMARK UNBOUND:                -1.115
REMARK  Name = 
REMARK  9 active torsions:
REMARK  status: ('A' for Active; 'I' for Inactive)
REMARK    1  A    between atoms: C_1  and  O_2
REMARK    2  A    between atoms: O_2  and  C_3
REMARK    3  A    between atoms: C_10  and  C_11
REMARK    4  A    between atoms: N_13  and  C_14
REMARK    5  A    between atoms: C_14  and  C_15
REMARK    6  A    between atoms: C_18  and  C_19
REMARK    7  A    between atoms: C_19  and  O_20
REMARK    8  A    between atoms: O_20  and  C_21
REMARK    9  A    between atoms: C_21  and  C_22
REMARK                            x       y       z     vdW  Elec       q    Type
REMARK                         _______ _______ _______ _____ _____    ______ ____
ROOT
ATOM      1  C   UNL     1      48.196   6.060  14.292  0.00  0.00    +0.000 C 
ENDROOT
BRANCH   1   2
ATOM      2  C   UNL     1      46.981   5.546  13.560  0.00  0.00    +0.000 A 
ATOM      3  C   UNL     1      46.729   4.171  13.457  0.00  0.00    +0.000 A 
ATOM      4  C   UNL     1      45.572   3.702  12.820  0.00  0.00    +0.000 A 
ATOM      5  C   UNL     1      44.646   4.598  12.268  0.00  0.00    +0.000 A 
ATOM      6  C   UNL     1      44.922   5.969  12.333  0.00  0.00    +0.000 A 
ATOM      7  C   UNL     1      46.080   6.438  12.964  0.00  0.00    +0.000 A 
BRANCH   5   8
ATOM      8  C   UNL     1      43.379   4.101  11.611  0.00  0.00    +0.000 C 
BRANCH   8   9
ATOM      9  O   UNL     1      43.710   3.298  10.481  0.00  0.00    +0.000 OA
BRANCH   9  10
ATOM     10  C   UNL     1      44.172   4.096   9.383  0.00  0.00    +0.000 C 
BRANCH  10  11
ATOM     11  C   UNL     1      45.233   3.366   8.584  0.00  0.00    +0.000 A 
ATOM     12  N   UNL     1      45.975   4.081   7.707  0.00  0.00    +0.000 NA
ATOM     13  C   UNL     1      46.900   3.399   7.007  0.00  0.00    +0.000 A 
ATOM     14  C   UNL     1      47.122   2.051   7.151  0.00  0.00    +0.000 A 
ATOM     15  C   UNL     1      46.329   1.417   8.076  0.00  0.00    +0.000 A 
ATOM     16  N   UNL     1      45.386   2.042   8.806  0.00  0.00    +0.000 NA
ENDBRANCH  10  11
ENDBRANCH   9  10
ENDBRANCH   8   9
ENDBRANCH   5   8
ENDBRANCH   1   2
BRANCH   1  19
ATOM     17  C   UNL     1      48.752   5.925  16.686  0.00  0.00    +0.000 C 
ATOM     18  O   UNL     1      49.795   5.318  16.445  0.00  0.00    +0.000 OA
ATOM     19  N   UNL     1      47.909   6.316  15.683  0.00  0.00    +0.000 N 
ATOM     20  H   UNL     1      47.007   6.713  15.905  0.00  0.00    +0.000 HD
BRANCH  17  28
ATOM     21  C   UNL     1      47.823   8.870  18.221  0.00  0.00    +0.000 A 
ATOM     22  N   UNL     1      47.518   9.865  19.078  0.00  0.00    +0.000 NA
ATOM     23  C   UNL     1      47.368   9.569  20.368  0.00  0.00    +0.000 A 
ATOM     24  N   UNL     1      47.476   8.365  20.927  0.00  0.00    +0.000 NA
ATOM     25  C   UNL     1      47.794   7.403  20.046  0.00  0.00    +0.000 A 
ATOM     26  S   UNL     1      47.957   5.803  20.586  0.00  0.00    +0.000 S 
ATOM     27  C   UNL     1      48.346   5.264  19.024  0.00  0.00    +0.000 A 
ATOM     28  C   UNL     1      48.370   6.275  18.065  0.00  0.00    +0.000 A 
ATOM     29  C   UNL     1      48.007   7.552  18.679  0.00  0.00    +0.000 A 
BRANCH  21  31
ATOM     30  C   UNL     1      49.183   9.684  16.496  0.00  0.00    +0.000 C 
ATOM     31  O   UNL     1      47.907   9.172  16.877  0.00  0.00    +0.000 OA
ENDBRANCH  21  31
ENDBRANCH  17  28
ENDBRANCH   1  19
TORSDOF 8
ENDMDL
MODEL 3
REMARK VINA RESULT:    -6.989      1.579      2.322
REMARK INTER + INTRA:         -11.373
REMARK INTER:                 -10.380
REMARK INTRA:                  -0.993
REMARK UNBOUND:                -1.115
REMARK  Name = 
REMARK  9 active torsions:
REMARK  status: ('A' for Active; 'I' for Inactive)
REMARK    1  A    between atoms: C_1  and  O_2
REMARK    2  A    between atoms: O_2  and  C_3
REMARK    3  A    between atoms: C_10  and  C_11
REMARK    4  A    between atoms: N_13  and  C_14
REMARK    5  A    between atoms: C_14  and  C_15
REMARK    6  A    between atoms: C_18  and  C_19
REMARK    7  A    between atoms: C_19  and  O_20
REMARK    8  A    between atoms: O_20  and  C_21
REMARK    9  A    between atoms: C_21  and  C_22
REMARK                            x       y       z     vdW  Elec       q    Type
REMARK                         _______ _______ _______ _____ _____    ______ ____
ROOT
ATOM      1  C   UNL     1      47.537   4.284  14.955  0.00  0.00    +0.000 C 
ENDROOT
BRANCH   1   2
ATOM      2  C   UNL     1      46.596   4.402  13.782  0.00  0.00    +0.000 A 
ATOM      3  C   UNL     1      46.067   3.261  13.163  0.00  0.00    +0.000 A 
ATOM      4  C   UNL     1      45.154   3.377  12.107  0.00  0.00    +0.000 A 
ATOM      5  C   UNL     1      44.753   4.638  11.643  0.00  0.00    +0.000 A 
ATOM      6  C   UNL     1      45.316   5.777  12.234  0.00  0.00    +0.000 A 
ATOM      7  C   UNL     1      46.233   5.660  13.285  0.00  0.00    +0.000 A 
BRANCH   5   8
ATOM      8  C   UNL     1      43.742   4.772  10.529  0.00  0.00    +0.000 C 
BRANCH   8   9
ATOM      9  O   UNL     1      44.056   3.855   9.485  0.00  0.00    +0.000 OA
BRANCH   9  10
ATOM     10  C   UNL     1      45.079   4.369   8.622  0.00  0.00    +0.000 C 
BRANCH  10  11
ATOM     11  C   UNL     1      45.942   3.252   8.069  0.00  0.00    +0.000 A 
ATOM     12  N   UNL     1      46.928   3.577   7.202  0.00  0.00    +0.000 NA
ATOM     13  C   UNL     1      47.667   2.558   6.723  0.00  0.00    +0.000 A 
ATOM     14  C   UNL     1      47.475   1.246   7.080  0.00  0.00    +0.000 A 
ATOM     15  C   UNL     1      46.460   1.019   7.976  0.00  0.00    +0.000 A 
ATOM     16  N   UNL     1      45.685   1.994   8.490  0.00  0.00    +0.000 NA
ENDBRANCH  10  11
ENDBRANCH   9  10
ENDBRANCH   8   9
ENDBRANCH   5   8
ENDBRANCH   1   2
BRANCH   1  19
ATOM     17  C   UNL     1      48.591   5.831  16.553  0.00  0.00    +0.000 C 
ATOM     18  O   UNL     1      49.597   5.126  16.625  0.00  0.00    +0.000 OA
ATOM     19  N   UNL     1      47.532   5.480  15.762  0.00  0.00    +0.000 N 
ATOM     20  H   UNL     1      46.673   6.010  15.800  0.00  0.00    +0.000 HD
BRANCH  17  28
ATOM     21  C   UNL     1      47.809   6.591  19.824  0.00  0.00    +0.000 A 
ATOM     22  N   UNL     1      47.466   7.171  20.993  0.00  0.00    +0.000 NA
ATOM     23  C   UNL     1      47.453   8.501  21.061  0.00  0.00    +0.000 A 
ATOM     24  N   UNL     1      47.760   9.353  20.085  0.00  0.00    +0.000 NA
ATOM     25  C   UNL     1      48.082   8.740  18.935  0.00  0.00    +0.000 A 
ATOM     26  S   UNL     1      48.517   9.675  17.588  0.00  0.00    +0.000 S 
ATOM     27  C   UNL     1      48.739   8.288  16.634  0.00  0.00    +0.000 A 
ATOM     28  C   UNL     1      48.484   7.094  17.305  0.00  0.00    +0.000 A 
ATOM     29  C   UNL     1      48.121   7.369  18.694  0.00  0.00    +0.000 A 
BRANCH  21  31
ATOM     30  C   UNL     1      49.133   4.709  20.264  0.00  0.00    +0.000 C 
ATOM     31  O   UNL     1      47.889   5.214  19.782  0.00  0.00    +0.000 OA
ENDBRANCH  21  31
ENDBRANCH  17  28
ENDBRANCH   1  19
TORSDOF 8
ENDMDL
MODEL 4
REMARK VINA RESULT:    -6.940      1.732      3.171
REMARK INTER + INTRA:         -11.300
REMARK INTER:                  -9.992
REMARK INTRA:                  -1.308
REMARK UNBOUND:                -1.115
REMARK  Name = 
REMARK  9 active torsions:
REMARK  status: ('A' for Active; 'I' for Inactive)
REMARK    1  A    between atoms: C_1  and  O_2
REMARK    2  A    between atoms: O_2  and  C_3
REMARK    3  A    between atoms: C_10  and  C_11
REMARK    4  A    between atoms: N_13  and  C_14
REMARK    5  A    between atoms: C_14  and  C_15
REMARK    6  A    between atoms: C_18  and  C_19
REMARK    7  A    between atoms: C_19  and  O_20
REMARK    8  A    between atoms: O_20  and  C_21
REMARK    9  A    between atoms: C_21  and  C_22
REMARK                            x       y       z     vdW  Elec       q    Type
REMARK                         _______ _______ _______ _____ _____    ______ ____
ROOT
ATOM      1  C   UNL     1      47.507   4.072  15.071  0.00  0.00    +0.000 C 
ENDROOT
BRANCH   1   2
ATOM      2  C   UNL     1      46.570   4.269  13.904  0.00  0.00    +0.000 A 
ATOM      3  C   UNL     1      46.138   3.180  13.135  0.00  0.00    +0.000 A 
ATOM      4  C   UNL     1      45.228   3.363  12.085  0.00  0.00    +0.000 A 
ATOM      5  C   UNL     1      44.735   4.639  11.779  0.00  0.00    +0.000 A 
ATOM      6  C   UNL     1      45.203   5.731  12.521  0.00  0.00    +0.000 A 
ATOM      7  C   UNL     1      46.116   5.550  13.565  0.00  0.00    +0.000 A 
BRANCH   5   8
ATOM      8  C   UNL     1      43.727   4.839  10.671  0.00  0.00    +0.000 C 
BRANCH   8   9
ATOM      9  O   UNL     1      43.901   3.832   9.679  0.00  0.00    +0.000 OA
BRANCH   9  10
ATOM     10  C   UNL     1      44.590   4.340   8.528  0.00  0.00    +0.000 C 
BRANCH  10  11
ATOM     11  C   UNL     1      45.626   3.350   8.030  0.00  0.00    +0.000 A 
ATOM     12  N   UNL     1      46.585   3.801   7.189  0.00  0.00    +0.000 NA
ATOM     13  C   UNL     1      47.481   2.893   6.758  0.00  0.00    +0.000 A 
ATOM     14  C   UNL     1      47.468   1.573   7.136  0.00  0.00    +0.000 A 
ATOM     15  C   UNL     1      46.464   1.216   8.003  0.00  0.00    +0.000 A 
ATOM     16  N   UNL     1      45.538   2.076   8.469  0.00  0.00    +0.000 NA
ENDBRANCH  10  11
ENDBRANCH   9  10
ENDBRANCH   8   9
ENDBRANCH   5   8
ENDBRANCH   1   2
BRANCH   1  19
ATOM     17  C   UNL     1      48.633   5.451  16.770  0.00  0.00    +0.000 C 
ATOM     18  O   UNL     1      49.487   4.584  16.957  0.00  0.00    +0.000 OA
ATOM     19  N   UNL     1      47.623   5.270  15.867  0.00  0.00    +0.000 N 
ATOM     20  H   UNL     1      46.870   5.941  15.807  0.00  0.00    +0.000 HD
BRANCH  17  28
ATOM     21  C   UNL     1      48.649   8.752  15.776  0.00  0.00    +0.000 A 
ATOM     22  N   UNL     1      48.745  10.094  15.675  0.00  0.00    +0.000 NA
ATOM     23  C   UNL     1      48.863  10.808  16.794  0.00  0.00    +0.000 A 
ATOM     24  N   UNL     1      48.886  10.339  18.040  0.00  0.00    +0.000 NA
ATOM     25  C   UNL     1      48.803   9.000  18.099  0.00  0.00    +0.000 A 
ATOM     26  S   UNL     1      48.802   8.234  19.613  0.00  0.00    +0.000 S 
ATOM     27  C   UNL     1      48.696   6.701  18.892  0.00  0.00    +0.000 A 
ATOM     28  C   UNL     1      48.667   6.731  17.499  0.00  0.00    +0.000 A 
ATOM     29  C   UNL     1      48.699   8.116  17.030  0.00  0.00    +0.000 A 
BRANCH  21  31
ATOM     30  C   UNL     1      49.657   7.825  13.875  0.00  0.00    +0.000 C 
ATOM     31  O   UNL     1      48.456   8.026  14.619  0.00  0.00    +0.000 OA
ENDBRANCH  21  31
ENDBRANCH  17  28
ENDBRANCH   1  19
TORSDOF 8
ENDMDL
MODEL 5
REMARK VINA RESULT:    -6.886      4.771      9.478
REMARK INTER + INTRA:         -11.221
REMARK INTER:                 -10.381
REMARK INTRA:                  -0.840
REMARK UNBOUND:                -1.115
REMARK  Name = 
REMARK  9 active torsions:
REMARK  status: ('A' for Active; 'I' for Inactive)
REMARK    1  A    between atoms: C_1  and  O_2
REMARK    2  A    between atoms: O_2  and  C_3
REMARK    3  A    between atoms: C_10  and  C_11
REMARK    4  A    between atoms: N_13  and  C_14
REMARK    5  A    between atoms: C_14  and  C_15
REMARK    6  A    between atoms: C_18  and  C_19
REMARK    7  A    between atoms: C_19  and  O_20
REMARK    8  A    between atoms: O_20  and  C_21
REMARK    9  A    between atoms: C_21  and  C_22
REMARK                            x       y       z     vdW  Elec       q    Type
REMARK                         _______ _______ _______ _____ _____    ______ ____
ROOT
ATOM      1  C   UNL     1      47.378   3.473  17.077  0.00  0.00    +0.000 C 
ENDROOT
BRANCH   1   2
ATOM      2  C   UNL     1      48.854   3.245  17.295  0.00  0.00    +0.000 A 
ATOM      3  C   UNL     1      49.649   4.217  17.917  0.00  0.00    +0.000 A 
ATOM      4  C   UNL     1      51.008   3.978  18.163  0.00  0.00    +0.000 A 
ATOM      5  C   UNL     1      51.602   2.765  17.786  0.00  0.00    +0.000 A 
ATOM      6  C   UNL     1      50.814   1.814  17.125  0.00  0.00    +0.000 A 
ATOM      7  C   UNL     1      49.459   2.054  16.874  0.00  0.00    +0.000 A 
BRANCH   5   8
ATOM      8  C   UNL     1      53.057   2.486  18.079  0.00  0.00    +0.000 C 
BRANCH   8   9
ATOM      9  O   UNL     1      53.198   1.164  18.589  0.00  0.00    +0.000 OA
BRANCH   9  10
ATOM     10  C   UNL     1      54.286   0.470  17.963  0.00  0.00    +0.000 C 
BRANCH  10  11
ATOM     11  C   UNL     1      54.224  -1.018  18.250  0.00  0.00    +0.000 A 
ATOM     12  N   UNL     1      53.436  -1.438  19.265  0.00  0.00    +0.000 NA
ATOM     13  C   UNL     1      53.413  -2.764  19.499  0.00  0.00    +0.000 A 
ATOM     14  C   UNL     1      54.126  -3.678  18.762  0.00  0.00    +0.000 A 
ATOM     15  C   UNL     1      54.885  -3.155  17.744  0.00  0.00    +0.000 A 
ATOM     16  N   UNL     1      54.950  -1.840  17.461  0.00  0.00    +0.000 NA
ENDBRANCH  10  11
ENDBRANCH   9  10
ENDBRANCH   8   9
ENDBRANCH   5   8
ENDBRANCH   1   2
BRANCH   1  19
ATOM     17  C   UNL     1      47.112   4.309  14.778  0.00  0.00    +0.000 C 
ATOM     18  O   UNL     1      47.308   3.187  14.311  0.00  0.00    +0.000 OA
ATOM     19  N   UNL     1      47.139   4.532  16.126  0.00  0.00    +0.000 N 
ATOM     20  H   UNL     1      47.087   5.474  16.485  0.00  0.00    +0.000 HD
BRANCH  17  28
ATOM     21  C   UNL     1      44.463   5.137  12.731  0.00  0.00    +0.000 A 
ATOM     22  N   UNL     1      43.625   5.664  11.815  0.00  0.00    +0.000 NA
ATOM     23  C   UNL     1      43.973   6.803  11.218  0.00  0.00    +0.000 A 
ATOM     24  N   UNL     1      45.080   7.511  11.433  0.00  0.00    +0.000 NA
ATOM     25  C   UNL     1      45.895   6.948  12.339  0.00  0.00    +0.000 A 
ATOM     26  S   UNL     1      47.346   7.726  12.748  0.00  0.00    +0.000 S 
ATOM     27  C   UNL     1      47.761   6.489  13.833  0.00  0.00    +0.000 A 
ATOM     28  C   UNL     1      46.823   5.462  13.907  0.00  0.00    +0.000 A 
ATOM     29  C   UNL     1      45.690   5.758  13.032  0.00  0.00    +0.000 A 
BRANCH  21  31
ATOM     30  C   UNL     1      43.718   2.927  12.519  0.00  0.00    +0.000 C 
ATOM     31  O   UNL     1      44.064   3.997  13.397  0.00  0.00    +0.000 OA
ENDBRANCH  21  31
ENDBRANCH  17  28
ENDBRANCH   1  19
TORSDOF 8
ENDMDL
MODEL 6
REMARK VINA RESULT:    -6.587      2.303      2.992
REMARK INTER + INTRA:         -10.782
REMARK INTER:                  -9.731
REMARK INTRA:                  -1.051
REMARK UNBOUND:                -1.115
REMARK  Name = 
REMARK  9 active torsions:
REMARK  status: ('A' for Active; 'I' for Inactive)
REMARK    1  A    between atoms: C_1  and  O_2
REMARK    2  A    between atoms: O_2  and  C_3
REMARK    3  A    between atoms: C_10  and  C_11
REMARK    4  A    between atoms: N_13  and  C_14
REMARK    5  A    between atoms: C_14  and  C_15
REMARK    6  A    between atoms: C_18  and  C_19
REMARK    7  A    between atoms: C_19  and  O_20
REMARK    8  A    between atoms: O_20  and  C_21
REMARK    9  A    between atoms: C_21  and  C_22
REMARK                            x       y       z     vdW  Elec       q    Type
REMARK                         _______ _______ _______ _____ _____    ______ ____
ROOT
ATOM      1  C   UNL     1      46.114   7.996  13.058  0.00  0.00    +0.000 C 
ENDROOT
BRANCH   1   2
ATOM      2  C   UNL     1      45.496   6.722  12.536  0.00  0.00    +0.000 A 
ATOM      3  C   UNL     1      45.850   5.476  13.072  0.00  0.00    +0.000 A 
ATOM      4  C   UNL     1      45.235   4.301  12.619  0.00  0.00    +0.000 A 
ATOM      5  C   UNL     1      44.256   4.347  11.616  0.00  0.00    +0.000 A 
ATOM      6  C   UNL     1      43.937   5.588  11.051  0.00  0.00    +0.000 A 
ATOM      7  C   UNL     1      44.555   6.761  11.500  0.00  0.00    +0.000 A 
BRANCH   5   8
ATOM      8  C   UNL     1      43.564   3.089  11.146  0.00  0.00    +0.000 C 
BRANCH   8   9
ATOM      9  O   UNL     1      43.805   2.901   9.755  0.00  0.00    +0.000 OA
BRANCH   9  10
ATOM     10  C   UNL     1      44.644   1.763   9.514  0.00  0.00    +0.000 C 
BRANCH  10  11
ATOM     11  C   UNL     1      45.674   2.060   8.443  0.00  0.00    +0.000 A 
ATOM     12  N   UNL     1      45.719   3.311   7.931  0.00  0.00    +0.000 NA
ATOM     13  C   UNL     1      46.639   3.536   6.973  0.00  0.00    +0.000 A 
ATOM     14  C   UNL     1      47.514   2.580   6.520  0.00  0.00    +0.000 A 
ATOM     15  C   UNL     1      47.400   1.345   7.111  0.00  0.00    +0.000 A 
ATOM     16  N   UNL     1      46.501   1.057   8.072  0.00  0.00    +0.000 NA
ENDBRANCH  10  11
ENDBRANCH   9  10
ENDBRANCH   8   9
ENDBRANCH   5   8
ENDBRANCH   1   2
BRANCH   1  19
ATOM     17  C   UNL     1      48.159   8.418  14.360  0.00  0.00    +0.000 C 
ATOM     18  O   UNL     1      47.544   9.115  15.166  0.00  0.00    +0.000 OA
ATOM     19  N   UNL     1      47.530   7.841  13.293  0.00  0.00    +0.000 N 
ATOM     20  H   UNL     1      48.068   7.366  12.582  0.00  0.00    +0.000 HD
BRANCH  17  28
ATOM     21  C   UNL     1      50.010   6.522  16.567  0.00  0.00    +0.000 A 
ATOM     22  N   UNL     1      50.968   5.946  17.322  0.00  0.00    +0.000 NA
ATOM     23  C   UNL     1      52.243   6.170  17.010  0.00  0.00    +0.000 A 
ATOM     24  N   UNL     1      52.699   6.910  16.001  0.00  0.00    +0.000 NA
ATOM     25  C   UNL     1      51.718   7.478  15.281  0.00  0.00    +0.000 A 
ATOM     26  S   UNL     1      52.120   8.443  13.945  0.00  0.00    +0.000 S 
ATOM     27  C   UNL     1      50.484   8.764  13.623  0.00  0.00    +0.000 A 
ATOM     28  C   UNL     1      49.602   8.159  14.515  0.00  0.00    +0.000 A 
ATOM     29  C   UNL     1      50.346   7.362  15.490  0.00  0.00    +0.000 A 
BRANCH  21  31
ATOM     30  C   UNL     1      48.217   5.066  16.176  0.00  0.00    +0.000 C 
ATOM     31  O   UNL     1      48.693   6.228  16.853  0.00  0.00    +0.000 OA
ENDBRANCH  21  31
ENDBRANCH  17  28
ENDBRANCH   1  19
TORSDOF 8
ENDMDL
MODEL 7
REMARK VINA RESULT:    -6.507      2.117      3.025
REMARK INTER + INTRA:         -10.664
REMARK INTER:                  -9.896
REMARK INTRA:                  -0.768
REMARK UNBOUND:                -1.115
REMARK  Name = 
REMARK  9 active torsions:
REMARK  status: ('A' for Active; 'I' for Inactive)
REMARK    1  A    between atoms: C_1  and  O_2
REMARK    2  A    between atoms: O_2  and  C_3
REMARK    3  A    between atoms: C_10  and  C_11
REMARK    4  A    between atoms: N_13  and  C_14
REMARK    5  A    between atoms: C_14  and  C_15
REMARK    6  A    between atoms: C_18  and  C_19
REMARK    7  A    between atoms: C_19  and  O_20
REMARK    8  A    between atoms: O_20  and  C_21
REMARK    9  A    between atoms: C_21  and  C_22
REMARK                            x       y       z     vdW  Elec       q    Type
REMARK                         _______ _______ _______ _____ _____    ______ ____
ROOT
ATOM      1  C   UNL     1      46.652   7.900  13.025  0.00  0.00    +0.000 C 
ENDROOT
BRANCH   1   2
ATOM      2  C   UNL     1      45.777   6.805  12.466  0.00  0.00    +0.000 A 
ATOM      3  C   UNL     1      45.762   6.525  11.092  0.00  0.00    +0.000 A 
ATOM      4  C   UNL     1      44.987   5.474  10.585  0.00  0.00    +0.000 A 
ATOM      5  C   UNL     1      44.205   4.683  11.440  0.00  0.00    +0.000 A 
ATOM      6  C   UNL     1      44.188   4.994  12.806  0.00  0.00    +0.000 A 
ATOM      7  C   UNL     1      44.958   6.047  13.312  0.00  0.00    +0.000 A 
BRANCH   5   8
ATOM      8  C   UNL     1      43.394   3.526  10.906  0.00  0.00    +0.000 C 
BRANCH   8   9
ATOM      9  O   UNL     1      43.913   3.122   9.642  0.00  0.00    +0.000 OA
BRANCH   9  10
ATOM     10  C   UNL     1      45.099   2.329   9.789  0.00  0.00    +0.000 C 
BRANCH  10  11
ATOM     11  C   UNL     1      45.891   2.284   8.497  0.00  0.00    +0.000 A 
ATOM     12  N   UNL     1      46.460   1.110   8.138  0.00  0.00    +0.000 NA
ATOM     13  C   UNL     1      47.164   1.109   6.991  0.00  0.00    +0.000 A 
ATOM     14  C   UNL     1      47.313   2.214   6.190  0.00  0.00    +0.000 A 
ATOM     15  C   UNL     1      46.687   3.354   6.631  0.00  0.00    +0.000 A 
ATOM     16  N   UNL     1      45.969   3.419   7.769  0.00  0.00    +0.000 NA
ENDBRANCH  10  11
ENDBRANCH   9  10
ENDBRANCH   8   9
ENDBRANCH   5   8
ENDBRANCH   1   2
BRANCH   1  19
ATOM     17  C   UNL     1      48.460   6.696  14.181  0.00  0.00    +0.000 C 
ATOM     18  O   UNL     1      48.931   6.307  13.113  0.00  0.00    +0.000 OA
ATOM     19  N   UNL     1      47.336   7.474  14.221  0.00  0.00    +0.000 N 
ATOM     20  H   UNL     1      46.901   7.690  15.107  0.00  0.00    +0.000 HD
BRANCH  17  28
ATOM     21  C   UNL     1      51.449   7.562  15.665  0.00  0.00    +0.000 A 
ATOM     22  N   UNL     1      52.556   7.663  16.428  0.00  0.00    +0.000 NA
ATOM     23  C   UNL     1      52.608   6.974  17.567  0.00  0.00    +0.000 A 
ATOM     24  N   UNL     1      51.660   6.180  18.062  0.00  0.00    +0.000 NA
ATOM     25  C   UNL     1      50.581   6.094  17.269  0.00  0.00    +0.000 A 
ATOM     26  S   UNL     1      49.267   5.135  17.754  0.00  0.00    +0.000 S 
ATOM     27  C   UNL     1      48.408   5.508  16.338  0.00  0.00    +0.000 A 
ATOM     28  C   UNL     1      49.092   6.354  15.468  0.00  0.00    +0.000 A 
ATOM     29  C   UNL     1      50.382   6.727  16.045  0.00  0.00    +0.000 A 
BRANCH  21  31
ATOM     30  C   UNL     1      50.802   9.620  14.752  0.00  0.00    +0.000 C 
ATOM     31  O   UNL     1      51.374   8.333  14.523  0.00  0.00    +0.000 OA
ENDBRANCH  21  31
ENDBRANCH  17  28
ENDBRANCH   1  19
TORSDOF 8
ENDMDL
MODEL 8
REMARK VINA RESULT:    -6.284      3.265      8.265
REMARK INTER + INTRA:         -10.338
REMARK INTER:                  -8.835
REMARK INTRA:                  -1.504
REMARK UNBOUND:                -1.115
REMARK  Name = 
REMARK  9 active torsions:
REMARK  status: ('A' for Active; 'I' for Inactive)
REMARK    1  A    between atoms: C_1  and  O_2
REMARK    2  A    between atoms: O_2  and  C_3
REMARK    3  A    between atoms: C_10  and  C_11
REMARK    4  A    between atoms: N_13  and  C_14
REMARK    5  A    between atoms: C_14  and  C_15
REMARK    6  A    between atoms: C_18  and  C_19
REMARK    7  A    between atoms: C_19  and  O_20
REMARK    8  A    between atoms: O_20  and  C_21
REMARK    9  A    between atoms: C_21  and  C_22
REMARK                            x       y       z     vdW  Elec       q    Type
REMARK                         _______ _______ _______ _____ _____    ______ ____
ROOT
ATOM      1  C   UNL     1      48.440   7.864  11.925  0.00  0.00    +0.000 C 
ENDROOT
BRANCH   1   2
ATOM      2  C   UNL     1      48.542   7.819  13.430  0.00  0.00    +0.000 A 
ATOM      3  C   UNL     1      49.138   6.729  14.079  0.00  0.00    +0.000 A 
ATOM      4  C   UNL     1      49.276   6.715  15.473  0.00  0.00    +0.000 A 
ATOM      5  C   UNL     1      48.815   7.789  16.249  0.00  0.00    +0.000 A 
ATOM      6  C   UNL     1      48.180   8.856  15.601  0.00  0.00    +0.000 A 
ATOM      7  C   UNL     1      48.037   8.867  14.209  0.00  0.00    +0.000 A 
BRANCH   5   8
ATOM      8  C   UNL     1      48.992   7.797  17.750  0.00  0.00    +0.000 C 
BRANCH   8   9
ATOM      9  O   UNL     1      47.875   7.161  18.366  0.00  0.00    +0.000 OA
BRANCH   9  10
ATOM     10  C   UNL     1      48.284   6.063  19.192  0.00  0.00    +0.000 C 
BRANCH  10  11
ATOM     11  C   UNL     1      48.462   4.799  18.373  0.00  0.00    +0.000 A 
ATOM     12  N   UNL     1      47.381   4.294  17.737  0.00  0.00    +0.000 NA
ATOM     13  C   UNL     1      47.573   3.166  17.028  0.00  0.00    +0.000 A 
ATOM     14  C   UNL     1      48.788   2.535  16.919  0.00  0.00    +0.000 A 
ATOM     15  C   UNL     1      49.827   3.131  17.589  0.00  0.00    +0.000 A 
ATOM     16  N   UNL     1      49.699   4.259  18.314  0.00  0.00    +0.000 NA
ENDBRANCH  10  11
ENDBRANCH   9  10
ENDBRANCH   8   9
ENDBRANCH   5   8
ENDBRANCH   1   2
BRANCH   1  19
ATOM     17  C   UNL     1      46.298   6.841  11.278  0.00  0.00    +0.000 C 
ATOM     18  O   UNL     1      45.676   7.850  11.608  0.00  0.00    +0.000 OA
ATOM     19  N   UNL     1      47.656   6.767  11.412  0.00  0.00    +0.000 N 
ATOM     20  H   UNL     1      48.136   5.894  11.242  0.00  0.00    +0.000 HD
BRANCH  17  28
ATOM     21  C   UNL     1      44.472   4.258  12.652  0.00  0.00    +0.000 A 
ATOM     22  N   UNL     1      43.803   3.117  12.917  0.00  0.00    +0.000 NA
ATOM     23  C   UNL     1      43.500   2.309  11.902  0.00  0.00    +0.000 A 
ATOM     24  N   UNL     1      43.778   2.506  10.615  0.00  0.00    +0.000 NA
ATOM     25  C   UNL     1      44.456   3.644  10.392  0.00  0.00    +0.000 A 
ATOM     26  S   UNL     1      44.879   4.062   8.803  0.00  0.00    +0.000 S 
ATOM     27  C   UNL     1      45.648   5.481   9.329  0.00  0.00    +0.000 A 
ATOM     28  C   UNL     1      45.610   5.668  10.709  0.00  0.00    +0.000 A 
ATOM     29  C   UNL     1      44.866   4.578  11.340  0.00  0.00    +0.000 A 
BRANCH  21  31
ATOM     30  C   UNL     1      46.020   4.966  14.262  0.00  0.00    +0.000 C 
ATOM     31  O   UNL     1      44.719   5.124  13.698  0.00  0.00    +0.000 OA
ENDBRANCH  21  31
ENDBRANCH  17  28
ENDBRANCH   1  19
TORSDOF 8
ENDMDL
MODEL 9
REMARK VINA RESULT:    -5.783      3.523      8.593
REMARK INTER + INTRA:          -9.603
REMARK INTER:                  -8.160
REMARK INTRA:                  -1.442
REMARK UNBOUND:                -1.115
REMARK  Name = 
REMARK  9 active torsions:
REMARK  status: ('A' for Active; 'I' for Inactive)
REMARK    1  A    between atoms: C_1  and  O_2
REMARK    2  A    between atoms: O_2  and  C_3
REMARK    3  A    between atoms: C_10  and  C_11
REMARK    4  A    between atoms: N_13  and  C_14
REMARK    5  A    between atoms: C_14  and  C_15
REMARK    6  A    between atoms: C_18  and  C_19
REMARK    7  A    between atoms: C_19  and  O_20
REMARK    8  A    between atoms: O_20  and  C_21
REMARK    9  A    between atoms: C_21  and  C_22
REMARK                            x       y       z     vdW  Elec       q    Type
REMARK                         _______ _______ _______ _____ _____    ______ ____
ROOT
ATOM      1  C   UNL     1      48.173   8.714  14.281  0.00  0.00    +0.000 C 
ENDROOT
BRANCH   1   2
ATOM      2  C   UNL     1      48.749   8.403  15.641  0.00  0.00    +0.000 A 
ATOM      3  C   UNL     1      48.085   8.793  16.812  0.00  0.00    +0.000 A 
ATOM      4  C   UNL     1      48.598   8.457  18.071  0.00  0.00    +0.000 A 
ATOM      5  C   UNL     1      49.790   7.728  18.187  0.00  0.00    +0.000 A 
ATOM      6  C   UNL     1      50.475   7.378  17.017  0.00  0.00    +0.000 A 
ATOM      7  C   UNL     1      49.965   7.719  15.759  0.00  0.00    +0.000 A 
BRANCH   5   8
ATOM      8  C   UNL     1      50.332   7.332  19.541  0.00  0.00    +0.000 C 
BRANCH   8   9
ATOM      9  O   UNL     1      49.416   6.449  20.182  0.00  0.00    +0.000 OA
BRANCH   9  10
ATOM     10  C   UNL     1      49.796   5.077  20.008  0.00  0.00    +0.000 C 
BRANCH  10  11
ATOM     11  C   UNL     1      49.048   4.444  18.852  0.00  0.00    +0.000 A 
ATOM     12  N   UNL     1      47.799   4.886  18.583  0.00  0.00    +0.000 NA
ATOM     13  C   UNL     1      47.159   4.294  17.557  0.00  0.00    +0.000 A 
ATOM     14  C   UNL     1      47.713   3.300  16.788  0.00  0.00    +0.000 A 
ATOM     15  C   UNL     1      48.991   2.929  17.130  0.00  0.00    +0.000 A 
ATOM     16  N   UNL     1      49.682   3.482  18.145  0.00  0.00    +0.000 NA
ENDBRANCH  10  11
ENDBRANCH   9  10
ENDBRANCH   8   9
ENDBRANCH   5   8
ENDBRANCH   1   2
BRANCH   1  19
ATOM     17  C   UNL     1      47.590   6.588  13.187  0.00  0.00    +0.000 C 
ATOM     18  O   UNL     1      48.764   6.384  12.880  0.00  0.00    +0.000 OA
ATOM     19  N   UNL     1      47.219   7.714  13.868  0.00  0.00    +0.000 N 
ATOM     20  H   UNL     1      46.240   7.919  14.014  0.00  0.00    +0.000 HD
BRANCH  17  28
ATOM     21  C   UNL     1      44.462   6.890  11.769  0.00  0.00    +0.000 A 
ATOM     22  N   UNL     1      43.199   6.726  11.325  0.00  0.00    +0.000 NA
ATOM     23  C   UNL     1      42.672   5.503  11.347  0.00  0.00    +0.000 A 
ATOM     24  N   UNL     1      43.268   4.385  11.758  0.00  0.00    +0.000 NA
ATOM     25  C   UNL     1      44.518   4.591  12.205  0.00  0.00    +0.000 A 
ATOM     26  S   UNL     1      45.431   3.270  12.753  0.00  0.00    +0.000 S 
ATOM     27  C   UNL     1      46.750   4.273  13.123  0.00  0.00    +0.000 A 
ATOM     28  C   UNL     1      46.530   5.622  12.850  0.00  0.00    +0.000 A 
ATOM     29  C   UNL     1      45.200   5.802  12.270  0.00  0.00    +0.000 A 
BRANCH  21  31
ATOM     30  C   UNL     1      44.169   9.101  11.050  0.00  0.00    +0.000 C 
ATOM     31  O   UNL     1      45.024   8.147  11.677  0.00  0.00    +0.000 OA
ENDBRANCH  21  31
ENDBRANCH  17  28
ENDBRANCH   1  19
TORSDOF 8
ENDMDL
