MODEL 1
REMARK VINA RESULT:    -7.828      0.000      0.000
REMARK INTER + INTRA:         -14.163
REMARK INTER:                 -12.175
REMARK INTRA:                  -1.988
REMARK UNBOUND:                -1.988
REMARK  Name = 
REMARK  10 active torsions:
REMARK  status: ('A' for Active; 'I' for Inactive)
REMARK    1  A    between atoms: C_2  and  C_23
REMARK    2  A    between atoms: N_3  and  C_4
REMARK    3  A    between atoms: C_4  and  C_5
REMARK    4  A    between atoms: C_8  and  C_9
REMARK    5  A    between atoms: C_9  and  N_10
REMARK    6  A    between atoms: N_10  and  C_11
REMARK    7  A    between atoms: N_10  and  C_14
REMARK    8  A    between atoms: C_11  and  C_12
REMARK    9  A    between atoms: C_12  and  O_13
REMARK   10  A    between atoms: C_14  and  C_15
REMARK                            x       y       z     vdW  Elec       q    Type
REMARK                         _______ _______ _______ _____ _____    ______ ____
ROOT
ATOM      1  C   UNL     1      46.975   7.936  12.797  0.00  0.00    +0.000 A 
ATOM      2  C   UNL     1      47.463   7.016  11.877  0.00  0.00    +0.000 A 
ATOM      3  C   UNL     1      46.560   6.248  11.148  0.00  0.00    +0.000 A 
ATOM      4  C   UNL     1      45.188   6.383  11.377  0.00  0.00    +0.000 A 
ATOM      5  C   UNL     1      44.793   7.307  12.335  0.00  0.00    +0.000 A 
ATOM      6  N   UNL     1      45.648   8.079  13.051  0.00  0.00    +0.000 NA
ENDROOT
BRANCH   1   7
ATOM      7  C   UNL     1      47.942   8.762  13.620  0.00  0.00    +0.000 C 
BRANCH   7  10
ATOM      8  O   UNL     1      50.062   7.086  14.508  0.00  0.00    +0.000 OA
ATOM      9  C   UNL     1      49.108   7.322  15.240  0.00  0.00    +0.000 C 
ATOM     10  N   UNL     1      48.092   8.203  14.939  0.00  0.00    +0.000 N 
ATOM     11  H   UNL     1      47.219   8.089  15.432  0.00  0.00    +0.000 HD
BRANCH   9  12
ATOM     12  C   UNL     1      48.780   6.525  16.410  0.00  0.00    +0.000 A 
ATOM     13  C   UNL     1      49.151   6.902  17.689  0.00  0.00    +0.000 A 
ATOM     14  S   UNL     1      49.291   5.532  18.714  0.00  0.00    +0.000 S 
ATOM     15  C   UNL     1      48.644   4.502  17.515  0.00  0.00    +0.000 A 
ATOM     16  N   UNL     1      48.602   3.151  17.659  0.00  0.00    +0.000 NA
ATOM     17  C   UNL     1      48.014   2.537  16.683  0.00  0.00    +0.000 A 
ATOM     18  N   UNL     1      47.419   3.144  15.606  0.00  0.00    +0.000 N 
ATOM     19  C   UNL     1      47.460   4.513  15.401  0.00  0.00    +0.000 A 
ATOM     20  O   UNL     1      46.898   5.046  14.454  0.00  0.00    +0.000 OA
ATOM     21  C   UNL     1      48.210   5.213  16.420  0.00  0.00    +0.000 A 
ATOM     22  H   UNL     1      46.895   2.611  14.932  0.00  0.00    +0.000 HD
ENDBRANCH   9  12
ENDBRANCH   7  10
ENDBRANCH   1   7
BRANCH   4  23
ATOM     23  C   UNL     1      44.195   5.479  10.687  0.00  0.00    +0.000 C 
BRANCH  23  24
ATOM     24  N   UNL     1      44.691   4.126  10.344  0.00  0.00    +0.000 NA
BRANCH  24  25
ATOM     25  C   UNL     1      43.982   3.088  11.132  0.00  0.00    +0.000 C 
BRANCH  25  26
ATOM     26  C   UNL     1      44.268   3.100  12.646  0.00  0.00    +0.000 C 
BRANCH  26  27
ATOM     27  O   UNL     1      45.634   2.777  12.900  0.00  0.00    +0.000 OA
ATOM     28  H   UNL     1      46.174   3.488  12.521  0.00  0.00    +0.000 HD
ENDBRANCH  26  27
ENDBRANCH  25  26
ENDBRANCH  24  25
BRANCH  24  29
ATOM     29  C   UNL     1      44.460   3.894   8.885  0.00  0.00    +0.000 C 
BRANCH  29  30
ATOM     30  C   UNL     1      45.554   3.157   8.120  0.00  0.00    +0.000 A 
ATOM     31  N   UNL     1      45.828   1.884   8.477  0.00  0.00    +0.000 NA
ATOM     32  C   UNL     1      46.726   1.229   7.719  0.00  0.00    +0.000 A 
ATOM     33  C   UNL     1      47.358   1.788   6.635  0.00  0.00    +0.000 A 
ATOM     34  C   UNL     1      47.027   3.094   6.365  0.00  0.00    +0.000 A 
ATOM     35  N   UNL     1      46.133   3.800   7.083  0.00  0.00    +0.000 NA
ENDBRANCH  29  30
ENDBRANCH  24  29
ENDBRANCH  23  24
ENDBRANCH   4  23
TORSDOF 10
ENDMDL
MODEL 2
REMARK VINA RESULT:    -7.232      1.530      1.646
REMARK INTER + INTRA:         -13.236
REMARK INTER:                 -11.963
REMARK INTRA:                  -1.274
REMARK UNBOUND:                -1.988
REMARK  Name = 
REMARK  10 active torsions:
REMARK  status: ('A' for Active; 'I' for Inactive)
REMARK    1  A    between atoms: C_2  and  C_23
REMARK    2  A    between atoms: N_3  and  C_4
REMARK    3  A    between atoms: C_4  and  C_5
REMARK    4  A    between atoms: C_8  and  C_9
REMARK    5  A    between atoms: C_9  and  N_10
REMARK    6  A    between atoms: N_10  and  C_11
REMARK    7  A    between atoms: N_10  and  C_14
REMARK    8  A    between atoms: C_11  and  C_12
REMARK    9  A    between atoms: C_12  and  O_13
REMARK   10  A    between atoms: C_14  and  C_15
REMARK                            x       y       z     vdW  Elec       q    Type
REMARK                         _______ _______ _______ _____ _____    ______ ____
ROOT
ATOM      1  C   UNL     1      47.552   7.464  13.550  0.00  0.00    +0.000 A 
ATOM      2  C   UNL     1      47.697   6.287  12.824  0.00  0.00    +0.000 A 
ATOM      3  C   UNL     1      46.679   5.898  11.960  0.00  0.00    +0.000 A 
ATOM      4  C   UNL     1      45.516   6.668  11.863  0.00  0.00    +0.000 A 
ATOM      5  C   UNL     1      45.446   7.812  12.648  0.00  0.00    +0.000 A 
ATOM      6  N   UNL     1      46.428   8.224  13.489  0.00  0.00    +0.000 NA
ENDROOT
BRANCH   1   7
ATOM      7  C   UNL     1      48.637   7.890  14.517  0.00  0.00    +0.000 C 
BRANCH   7  10
ATOM      8  O   UNL     1      48.612   8.151  17.350  0.00  0.00    +0.000 OA
ATOM      9  C   UNL     1      48.962   7.100  16.825  0.00  0.00    +0.000 C 
ATOM     10  N   UNL     1      48.905   6.845  15.473  0.00  0.00    +0.000 N 
ATOM     11  H   UNL     1      49.497   6.110  15.114  0.00  0.00    +0.000 HD
BRANCH   9  12
ATOM     12  C   UNL     1      49.718   6.072  17.520  0.00  0.00    +0.000 A 
ATOM     13  C   UNL     1      50.879   6.353  18.220  0.00  0.00    +0.000 A 
ATOM     14  S   UNL     1      51.893   4.971  18.303  0.00  0.00    +0.000 S 
ATOM     15  C   UNL     1      50.687   3.978  17.614  0.00  0.00    +0.000 A 
ATOM     16  N   UNL     1      50.919   2.685  17.262  0.00  0.00    +0.000 NA
ATOM     17  C   UNL     1      49.873   2.065  16.822  0.00  0.00    +0.000 A 
ATOM     18  N   UNL     1      48.608   2.593  16.748  0.00  0.00    +0.000 N 
ATOM     19  C   UNL     1      48.327   3.911  17.069  0.00  0.00    +0.000 A 
ATOM     20  O   UNL     1      47.191   4.362  17.031  0.00  0.00    +0.000 OA
ATOM     21  C   UNL     1      49.502   4.659  17.456  0.00  0.00    +0.000 A 
ATOM     22  H   UNL     1      47.820   2.024  16.487  0.00  0.00    +0.000 HD
ENDBRANCH   9  12
ENDBRANCH   7  10
ENDBRANCH   1   7
BRANCH   4  23
ATOM     23  C   UNL     1      44.349   6.206  11.025  0.00  0.00    +0.000 C 
BRANCH  23  24
ATOM     24  N   UNL     1      44.297   4.753  10.745  0.00  0.00    +0.000 NA
BRANCH  24  25
ATOM     25  C   UNL     1      43.131   4.126  11.414  0.00  0.00    +0.000 C 
BRANCH  25  26
ATOM     26  C   UNL     1      43.447   2.868  12.247  0.00  0.00    +0.000 C 
BRANCH  26  27
ATOM     27  O   UNL     1      43.090   1.689  11.528  0.00  0.00    +0.000 OA
ATOM     28  H   UNL     1      43.856   1.093  11.553  0.00  0.00    +0.000 HD
ENDBRANCH  26  27
ENDBRANCH  25  26
ENDBRANCH  24  25
BRANCH  24  29
ATOM     29  C   UNL     1      44.189   4.560   9.265  0.00  0.00    +0.000 C 
BRANCH  29  30
ATOM     30  C   UNL     1      45.201   3.625   8.613  0.00  0.00    +0.000 A 
ATOM     31  N   UNL     1      45.216   2.334   9.009  0.00  0.00    +0.000 NA
ATOM     32  C   UNL     1      46.050   1.513   8.344  0.00  0.00    +0.000 A 
ATOM     33  C   UNL     1      46.864   1.926   7.317  0.00  0.00    +0.000 A 
ATOM     34  C   UNL     1      46.793   3.262   7.004  0.00  0.00    +0.000 A 
ATOM     35  N   UNL     1      45.975   4.130   7.628  0.00  0.00    +0.000 NA
ENDBRANCH  29  30
ENDBRANCH  24  29
ENDBRANCH  23  24
ENDBRANCH   4  23
TORSDOF 10
ENDMDL
MODEL 3
REMARK VINA RESULT:    -6.764      2.176      3.041
REMARK INTER + INTRA:         -12.509
REMARK INTER:                 -11.414
REMARK INTRA:                  -1.095
REMARK UNBOUND:                -1.988
REMARK  Name = 
REMARK  10 active torsions:
REMARK  status: ('A' for Active; 'I' for Inactive)
REMARK    1  A    between atoms: C_2  and  C_23
REMARK    2  A    between atoms: N_3  and  C_4
REMARK    3  A    between atoms: C_4  and  C_5
REMARK    4  A    between atoms: C_8  and  C_9
REMARK    5  A    between atoms: C_9  and  N_10
REMARK    6  A    between atoms: N_10  and  C_11
REMARK    7  A    between atoms: N_10  and  C_14
REMARK    8  A    between atoms: C_11  and  C_12
REMARK    9  A    between atoms: C_12  and  O_13
REMARK   10  A    between atoms: C_14  and  C_15
REMARK                            x       y       z     vdW  Elec       q    Type
REMARK                         _______ _______ _______ _____ _____    ______ ____
ROOT
ATOM      1  C   UNL     1      48.444   6.813  13.307  0.00  0.00    +0.000 A 
ATOM      2  C   UNL     1      47.517   5.911  13.817  0.00  0.00    +0.000 A 
ATOM      3  C   UNL     1      46.420   5.558  13.036  0.00  0.00    +0.000 A 
ATOM      4  C   UNL     1      46.246   6.140  11.777  0.00  0.00    +0.000 A 
ATOM      5  C   UNL     1      47.208   7.052  11.362  0.00  0.00    +0.000 A 
ATOM      6  N   UNL     1      48.294   7.405  12.094  0.00  0.00    +0.000 NA
ENDROOT
BRANCH   1   7
ATOM      7  C   UNL     1      49.630   7.230  14.152  0.00  0.00    +0.000 C 
BRANCH   7  10
ATOM      8  O   UNL     1      51.618   6.629  16.095  0.00  0.00    +0.000 OA
ATOM      9  C   UNL     1      50.428   6.544  16.377  0.00  0.00    +0.000 C 
ATOM     10  N   UNL     1      49.400   6.917  15.539  0.00  0.00    +0.000 N 
ATOM     11  H   UNL     1      48.489   6.519  15.719  0.00  0.00    +0.000 HD
BRANCH   9  12
ATOM     12  C   UNL     1      49.928   5.810  17.526  0.00  0.00    +0.000 A 
ATOM     13  C   UNL     1      49.760   4.437  17.511  0.00  0.00    +0.000 A 
ATOM     14  S   UNL     1      48.551   3.956  18.631  0.00  0.00    +0.000 S 
ATOM     15  C   UNL     1      48.437   5.536  19.268  0.00  0.00    +0.000 A 
ATOM     16  N   UNL     1      47.490   5.889  20.177  0.00  0.00    +0.000 NA
ATOM     17  C   UNL     1      47.598   7.106  20.602  0.00  0.00    +0.000 A 
ATOM     18  N   UNL     1      48.589   7.987  20.247  0.00  0.00    +0.000 N 
ATOM     19  C   UNL     1      49.559   7.684  19.306  0.00  0.00    +0.000 A 
ATOM     20  O   UNL     1      50.457   8.464  19.021  0.00  0.00    +0.000 OA
ATOM     21  C   UNL     1      49.393   6.367  18.731  0.00  0.00    +0.000 A 
ATOM     22  H   UNL     1      48.669   8.887  20.689  0.00  0.00    +0.000 HD
ENDBRANCH   9  12
ENDBRANCH   7  10
ENDBRANCH   1   7
BRANCH   4  23
ATOM     23  C   UNL     1      45.006   5.866  10.962  0.00  0.00    +0.000 C 
BRANCH  23  24
ATOM     24  N   UNL     1      44.663   4.436  10.780  0.00  0.00    +0.000 NA
BRANCH  24  25
ATOM     25  C   UNL     1      43.513   4.054  11.637  0.00  0.00    +0.000 C 
BRANCH  25  26
ATOM     26  C   UNL     1      42.570   5.209  12.027  0.00  0.00    +0.000 C 
BRANCH  26  27
ATOM     27  O   UNL     1      42.568   5.395  13.442  0.00  0.00    +0.000 OA
ATOM     28  H   UNL     1      41.735   5.837  13.673  0.00  0.00    +0.000 HD
ENDBRANCH  26  27
ENDBRANCH  25  26
ENDBRANCH  24  25
BRANCH  24  29
ATOM     29  C   UNL     1      44.312   4.214   9.343  0.00  0.00    +0.000 C 
BRANCH  29  30
ATOM     30  C   UNL     1      45.288   3.387   8.513  0.00  0.00    +0.000 A 
ATOM     31  N   UNL     1      46.062   4.034   7.616  0.00  0.00    +0.000 NA
ATOM     32  C   UNL     1      46.982   3.291   6.972  0.00  0.00    +0.000 A 
ATOM     33  C   UNL     1      47.154   1.945   7.182  0.00  0.00    +0.000 A 
ATOM     34  C   UNL     1      46.303   1.374   8.098  0.00  0.00    +0.000 A 
ATOM     35  N   UNL     1      45.368   2.064   8.777  0.00  0.00    +0.000 NA
ENDBRANCH  29  30
ENDBRANCH  24  29
ENDBRANCH  23  24
ENDBRANCH   4  23
TORSDOF 10
ENDMDL
MODEL 4
REMARK VINA RESULT:    -6.424      2.105      3.498
REMARK INTER + INTRA:         -11.980
REMARK INTER:                 -10.920
REMARK INTRA:                  -1.060
REMARK UNBOUND:                -1.988
REMARK  Name = 
REMARK  10 active torsions:
REMARK  status: ('A' for Active; 'I' for Inactive)
REMARK    1  A    between atoms: C_2  and  C_23
REMARK    2  A    between atoms: N_3  and  C_4
REMARK    3  A    between atoms: C_4  and  C_5
REMARK    4  A    between atoms: C_8  and  C_9
REMARK    5  A    between atoms: C_9  and  N_10
REMARK    6  A    between atoms: N_10  and  C_11
REMARK    7  A    between atoms: N_10  and  C_14
REMARK    8  A    between atoms: C_11  and  C_12
REMARK    9  A    between atoms: C_12  and  O_13
REMARK   10  A    between atoms: C_14  and  C_15
REMARK                            x       y       z     vdW  Elec       q    Type
REMARK                         _______ _______ _______ _____ _____    ______ ____
ROOT
ATOM      1  C   UNL     1      47.164   4.730  14.670  0.00  0.00    +0.000 A 
ATOM      2  C   UNL     1      46.676   3.649  13.946  0.00  0.00    +0.000 A 
ATOM      3  C   UNL     1      46.240   3.853  12.640  0.00  0.00    +0.000 A 
ATOM      4  C   UNL     1      46.262   5.139  12.092  0.00  0.00    +0.000 A 
ATOM      5  C   UNL     1      46.739   6.164  12.899  0.00  0.00    +0.000 A 
ATOM      6  N   UNL     1      47.183   5.993  14.170  0.00  0.00    +0.000 NA
ENDROOT
BRANCH   1   7
ATOM      7  C   UNL     1      47.617   4.534  16.102  0.00  0.00    +0.000 C 
BRANCH   7  10
ATOM      8  O   UNL     1      50.333   5.132  16.704  0.00  0.00    +0.000 OA
ATOM      9  C   UNL     1      49.442   5.922  16.997  0.00  0.00    +0.000 C 
ATOM     10  N   UNL     1      48.118   5.768  16.650  0.00  0.00    +0.000 N 
ATOM     11  H   UNL     1      47.435   6.276  17.195  0.00  0.00    +0.000 HD
BRANCH   9  12
ATOM     12  C   UNL     1      49.611   6.996  17.959  0.00  0.00    +0.000 A 
ATOM     13  C   UNL     1      50.169   6.790  19.209  0.00  0.00    +0.000 A 
ATOM     14  S   UNL     1      49.608   7.961  20.331  0.00  0.00    +0.000 S 
ATOM     15  C   UNL     1      48.822   8.844  19.099  0.00  0.00    +0.000 A 
ATOM     16  N   UNL     1      48.015   9.906  19.363  0.00  0.00    +0.000 NA
ATOM     17  C   UNL     1      47.562  10.497  18.305  0.00  0.00    +0.000 A 
ATOM     18  N   UNL     1      47.878  10.164  17.012  0.00  0.00    +0.000 N 
ATOM     19  C   UNL     1      48.673   9.076  16.691  0.00  0.00    +0.000 A 
ATOM     20  O   UNL     1      48.974   8.807  15.537  0.00  0.00    +0.000 OA
ATOM     21  C   UNL     1      49.100   8.329  17.853  0.00  0.00    +0.000 A 
ATOM     22  H   UNL     1      47.566  10.727  16.238  0.00  0.00    +0.000 HD
ENDBRANCH   9  12
ENDBRANCH   7  10
ENDBRANCH   1   7
BRANCH   4  23
ATOM     23  C   UNL     1      45.685   5.407  10.724  0.00  0.00    +0.000 C 
BRANCH  23  24
ATOM     24  N   UNL     1      44.573   4.520  10.312  0.00  0.00    +0.000 NA
BRANCH  24  25
ATOM     25  C   UNL     1      43.269   5.056  10.775  0.00  0.00    +0.000 C 
BRANCH  25  26
ATOM     26  C   UNL     1      42.796   4.543  12.149  0.00  0.00    +0.000 C 
BRANCH  26  27
ATOM     27  O   UNL     1      42.454   5.636  13.000  0.00  0.00    +0.000 OA
ATOM     28  H   UNL     1      42.146   5.261  13.841  0.00  0.00    +0.000 HD
ENDBRANCH  26  27
ENDBRANCH  25  26
ENDBRANCH  24  25
BRANCH  24  29
ATOM     29  C   UNL     1      44.573   4.422   8.820  0.00  0.00    +0.000 C 
BRANCH  29  30
ATOM     30  C   UNL     1      45.564   3.449   8.190  0.00  0.00    +0.000 A 
ATOM     31  N   UNL     1      45.609   2.190   8.677  0.00  0.00    +0.000 NA
ATOM     32  C   UNL     1      46.420   1.329   8.035  0.00  0.00    +0.000 A 
ATOM     33  C   UNL     1      47.182   1.671   6.944  0.00  0.00    +0.000 A 
ATOM     34  C   UNL     1      47.083   2.980   6.539  0.00  0.00    +0.000 A 
ATOM     35  N   UNL     1      46.286   3.886   7.136  0.00  0.00    +0.000 NA
ENDBRANCH  29  30
ENDBRANCH  24  29
ENDBRANCH  23  24
ENDBRANCH   4  23
TORSDOF 10
ENDMDL
MODEL 5
REMARK VINA RESULT:    -6.423      1.844      2.226
REMARK INTER + INTRA:         -11.978
REMARK INTER:                 -10.982
REMARK INTRA:                  -0.997
REMARK UNBOUND:                -1.988
REMARK  Name = 
REMARK  10 active torsions:
REMARK  status: ('A' for Active; 'I' for Inactive)
REMARK    1  A    between atoms: C_2  and  C_23
REMARK    2  A    between atoms: N_3  and  C_4
REMARK    3  A    between atoms: C_4  and  C_5
REMARK    4  A    between atoms: C_8  and  C_9
REMARK    5  A    between atoms: C_9  and  N_10
REMARK    6  A    between atoms: N_10  and  C_11
REMARK    7  A    between atoms: N_10  and  C_14
REMARK    8  A    between atoms: C_11  and  C_12
REMARK    9  A    between atoms: C_12  and  O_13
REMARK   10  A    between atoms: C_14  and  C_15
REMARK                            x       y       z     vdW  Elec       q    Type
REMARK                         _______ _______ _______ _____ _____    ______ ____
ROOT
ATOM      1  C   UNL     1      48.186   6.859  13.318  0.00  0.00    +0.000 A 
ATOM      2  C   UNL     1      47.658   5.580  13.442  0.00  0.00    +0.000 A 
ATOM      3  C   UNL     1      46.563   5.224  12.660  0.00  0.00    +0.000 A 
ATOM      4  C   UNL     1      45.990   6.162  11.797  0.00  0.00    +0.000 A 
ATOM      5  C   UNL     1      46.567   7.425  11.760  0.00  0.00    +0.000 A 
ATOM      6  N   UNL     1      47.642   7.797  12.499  0.00  0.00    +0.000 NA
ENDROOT
BRANCH   1   7
ATOM      7  C   UNL     1      49.360   7.274  14.181  0.00  0.00    +0.000 C 
BRANCH   7  10
ATOM      8  O   UNL     1      50.761   6.711  16.592  0.00  0.00    +0.000 OA
ATOM      9  C   UNL     1      49.632   7.188  16.625  0.00  0.00    +0.000 C 
ATOM     10  N   UNL     1      48.922   7.592  15.516  0.00  0.00    +0.000 N 
ATOM     11  H   UNL     1      47.919   7.659  15.608  0.00  0.00    +0.000 HD
BRANCH   9  12
ATOM     12  C   UNL     1      48.788   7.162  17.807  0.00  0.00    +0.000 A 
ATOM     13  C   UNL     1      48.256   8.312  18.362  0.00  0.00    +0.000 A 
ATOM     14  S   UNL     1      47.949   8.098  20.037  0.00  0.00    +0.000 S 
ATOM     15  C   UNL     1      48.311   6.433  19.946  0.00  0.00    +0.000 A 
ATOM     16  N   UNL     1      48.387   5.640  21.048  0.00  0.00    +0.000 NA
ATOM     17  C   UNL     1      48.600   4.392  20.784  0.00  0.00    +0.000 A 
ATOM     18  N   UNL     1      48.692   3.850  19.526  0.00  0.00    +0.000 N 
ATOM     19  C   UNL     1      48.648   4.618  18.375  0.00  0.00    +0.000 A 
ATOM     20  O   UNL     1      48.699   4.121  17.259  0.00  0.00    +0.000 OA
ATOM     21  C   UNL     1      48.525   6.033  18.646  0.00  0.00    +0.000 A 
ATOM     22  H   UNL     1      48.763   2.855  19.392  0.00  0.00    +0.000 HD
ENDBRANCH   9  12
ENDBRANCH   7  10
ENDBRANCH   1   7
BRANCH   4  23
ATOM     23  C   UNL     1      44.732   5.840  11.028  0.00  0.00    +0.000 C 
BRANCH  23  24
ATOM     24  N   UNL     1      44.580   4.426  10.612  0.00  0.00    +0.000 NA
BRANCH  24  25
ATOM     25  C   UNL     1      43.365   3.825  11.215  0.00  0.00    +0.000 C 
BRANCH  25  26
ATOM     26  C   UNL     1      43.410   3.640  12.744  0.00  0.00    +0.000 C 
BRANCH  26  27
ATOM     27  O   UNL     1      42.676   4.675  13.395  0.00  0.00    +0.000 OA
ATOM     28  H   UNL     1      42.749   5.471  12.845  0.00  0.00    +0.000 HD
ENDBRANCH  26  27
ENDBRANCH  25  26
ENDBRANCH  24  25
BRANCH  24  29
ATOM     29  C   UNL     1      44.476   4.380   9.121  0.00  0.00    +0.000 C 
BRANCH  29  30
ATOM     30  C   UNL     1      45.474   3.494   8.384  0.00  0.00    +0.000 A 
ATOM     31  N   UNL     1      45.577   2.204   8.768  0.00  0.00    +0.000 NA
ATOM     32  C   UNL     1      46.392   1.424   8.034  0.00  0.00    +0.000 A 
ATOM     33  C   UNL     1      47.102   1.876   6.949  0.00  0.00    +0.000 A 
ATOM     34  C   UNL     1      46.947   3.208   6.651  0.00  0.00    +0.000 A 
ATOM     35  N   UNL     1      46.143   4.037   7.344  0.00  0.00    +0.000 NA
ENDBRANCH  29  30
ENDBRANCH  24  29
ENDBRANCH  23  24
ENDBRANCH   4  23
TORSDOF 10
ENDMDL
MODEL 6
REMARK VINA RESULT:    -6.146      2.993      7.912
REMARK INTER + INTRA:         -11.547
REMARK INTER:                  -9.878
REMARK INTRA:                  -1.669
REMARK UNBOUND:                -1.988
REMARK  Name = 
REMARK  10 active torsions:
REMARK  status: ('A' for Active; 'I' for Inactive)
REMARK    1  A    between atoms: C_2  and  C_23
REMARK    2  A    between atoms: N_3  and  C_4
REMARK    3  A    between atoms: C_4  and  C_5
REMARK    4  A    between atoms: C_8  and  C_9
REMARK    5  A    between atoms: C_9  and  N_10
REMARK    6  A    between atoms: N_10  and  C_11
REMARK    7  A    between atoms: N_10  and  C_14
REMARK    8  A    between atoms: C_11  and  C_12
REMARK    9  A    between atoms: C_12  and  O_13
REMARK   10  A    between atoms: C_14  and  C_15
REMARK                            x       y       z     vdW  Elec       q    Type
REMARK                         _______ _______ _______ _____ _____    ______ ____
ROOT
ATOM      1  C   UNL     1      47.647   8.148  13.932  0.00  0.00    +0.000 A 
ATOM      2  C   UNL     1      48.395   6.980  13.832  0.00  0.00    +0.000 A 
ATOM      3  C   UNL     1      49.405   6.745  14.760  0.00  0.00    +0.000 A 
ATOM      4  C   UNL     1      49.678   7.695  15.748  0.00  0.00    +0.000 A 
ATOM      5  C   UNL     1      48.899   8.845  15.754  0.00  0.00    +0.000 A 
ATOM      6  N   UNL     1      47.899   9.096  14.872  0.00  0.00    +0.000 NA
ENDROOT
BRANCH   1   7
ATOM      7  C   UNL     1      46.562   8.435  12.915  0.00  0.00    +0.000 C 
BRANCH   7  10
ATOM      8  O   UNL     1      44.333   7.794  11.269  0.00  0.00    +0.000 OA
ATOM      9  C   UNL     1      45.343   7.099  11.246  0.00  0.00    +0.000 C 
ATOM     10  N   UNL     1      46.506   7.391  11.924  0.00  0.00    +0.000 N 
ATOM     11  H   UNL     1      47.141   6.627  12.103  0.00  0.00    +0.000 HD
BRANCH   9  12
ATOM     12  C   UNL     1      45.374   5.750  10.708  0.00  0.00    +0.000 A 
ATOM     13  C   UNL     1      45.723   5.485   9.395  0.00  0.00    +0.000 A 
ATOM     14  S   UNL     1      45.010   4.019   8.857  0.00  0.00    +0.000 S 
ATOM     15  C   UNL     1      44.445   3.655  10.427  0.00  0.00    +0.000 A 
ATOM     16  N   UNL     1      43.624   2.601  10.681  0.00  0.00    +0.000 NA
ATOM     17  C   UNL     1      43.356   2.436  11.936  0.00  0.00    +0.000 A 
ATOM     18  N   UNL     1      43.868   3.186  12.964  0.00  0.00    +0.000 N 
ATOM     19  C   UNL     1      44.685   4.285  12.755  0.00  0.00    +0.000 A 
ATOM     20  O   UNL     1      45.163   4.927  13.680  0.00  0.00    +0.000 OA
ATOM     21  C   UNL     1      44.909   4.561  11.353  0.00  0.00    +0.000 A 
ATOM     22  H   UNL     1      43.693   2.942  13.925  0.00  0.00    +0.000 HD
ENDBRANCH   9  12
ENDBRANCH   7  10
ENDBRANCH   1   7
BRANCH   4  23
ATOM     23  C   UNL     1      50.843   7.519  16.690  0.00  0.00    +0.000 C 
BRANCH  23  24
ATOM     24  N   UNL     1      51.419   6.156  16.749  0.00  0.00    +0.000 NA
BRANCH  24  25
ATOM     25  C   UNL     1      52.898   6.210  16.855  0.00  0.00    +0.000 C 
BRANCH  25  26
ATOM     26  C   UNL     1      53.583   7.273  15.973  0.00  0.00    +0.000 C 
BRANCH  26  27
ATOM     27  O   UNL     1      53.882   6.738  14.686  0.00  0.00    +0.000 OA
ATOM     28  H   UNL     1      54.276   7.453  14.161  0.00  0.00    +0.000 HD
ENDBRANCH  26  27
ENDBRANCH  25  26
ENDBRANCH  24  25
BRANCH  24  29
ATOM     29  C   UNL     1      50.857   5.456  17.946  0.00  0.00    +0.000 C 
BRANCH  29  30
ATOM     30  C   UNL     1      49.585   4.641  17.736  0.00  0.00    +0.000 A 
ATOM     31  N   UNL     1      48.410   5.197  18.103  0.00  0.00    +0.000 NA
ATOM     32  C   UNL     1      47.299   4.495  17.812  0.00  0.00    +0.000 A 
ATOM     33  C   UNL     1      47.314   3.273  17.183  0.00  0.00    +0.000 A 
ATOM     34  C   UNL     1      48.559   2.783  16.870  0.00  0.00    +0.000 A 
ATOM     35  N   UNL     1      49.705   3.440  17.130  0.00  0.00    +0.000 NA
ENDBRANCH  29  30
ENDBRANCH  24  29
ENDBRANCH  23  24
ENDBRANCH   4  23
TORSDOF 10
ENDMDL
MODEL 7
REMARK VINA RESULT:    -5.558      2.582      3.992
REMARK INTER + INTRA:         -10.633
REMARK INTER:                  -9.439
REMARK INTRA:                  -1.194
REMARK UNBOUND:                -1.988
REMARK  Name = 
REMARK  10 active torsions:
REMARK  status: ('A' for Active; 'I' for Inactive)
REMARK    1  A    between atoms: C_2  and  C_23
REMARK    2  A    between atoms: N_3  and  C_4
REMARK    3  A    between atoms: C_4  and  C_5
REMARK    4  A    between atoms: C_8  and  C_9
REMARK    5  A    between atoms: C_9  and  N_10
REMARK    6  A    between atoms: N_10  and  C_11
REMARK    7  A    between atoms: N_10  and  C_14
REMARK    8  A    between atoms: C_11  and  C_12
REMARK    9  A    between atoms: C_12  and  O_13
REMARK   10  A    between atoms: C_14  and  C_15
REMARK                            x       y       z     vdW  Elec       q    Type
REMARK                         _______ _______ _______ _____ _____    ______ ____
ROOT
ATOM      1  C   UNL     1      47.528   4.368  15.244  0.00  0.00    +0.000 A 
ATOM      2  C   UNL     1      46.733   3.592  14.408  0.00  0.00    +0.000 A 
ATOM      3  C   UNL     1      46.325   4.119  13.186  0.00  0.00    +0.000 A 
ATOM      4  C   UNL     1      46.683   5.424  12.836  0.00  0.00    +0.000 A 
ATOM      5  C   UNL     1      47.455   6.135  13.746  0.00  0.00    +0.000 A 
ATOM      6  N   UNL     1      47.879   5.644  14.938  0.00  0.00    +0.000 NA
ENDROOT
BRANCH   1   7
ATOM      7  C   UNL     1      47.959   3.823  16.590  0.00  0.00    +0.000 C 
BRANCH   7  10
ATOM      8  O   UNL     1      50.730   3.414  17.089  0.00  0.00    +0.000 OA
ATOM      9  C   UNL     1      50.159   4.407  17.527  0.00  0.00    +0.000 C 
ATOM     10  N   UNL     1      48.852   4.742  17.247  0.00  0.00    +0.000 N 
ATOM     11  H   UNL     1      48.388   5.369  17.889  0.00  0.00    +0.000 HD
BRANCH   9  12
ATOM     12  C   UNL     1      50.694   5.230  18.597  0.00  0.00    +0.000 A 
ATOM     13  C   UNL     1      50.302   5.078  19.915  0.00  0.00    +0.000 A 
ATOM     14  S   UNL     1      50.498   6.545  20.785  0.00  0.00    +0.000 S 
ATOM     15  C   UNL     1      51.303   7.279  19.471  0.00  0.00    +0.000 A 
ATOM     16  N   UNL     1      51.639   8.597  19.465  0.00  0.00    +0.000 NA
ATOM     17  C   UNL     1      52.306   8.964  18.419  0.00  0.00    +0.000 A 
ATOM     18  N   UNL     1      52.714   8.134  17.406  0.00  0.00    +0.000 N 
ATOM     19  C   UNL     1      52.374   6.792  17.352  0.00  0.00    +0.000 A 
ATOM     20  O   UNL     1      52.771   6.055  16.461  0.00  0.00    +0.000 OA
ATOM     21  C   UNL     1      51.532   6.382  18.454  0.00  0.00    +0.000 A 
ATOM     22  H   UNL     1      53.314   8.468  16.669  0.00  0.00    +0.000 HD
ENDBRANCH   9  12
ENDBRANCH   7  10
ENDBRANCH   1   7
BRANCH   4  23
ATOM     23  C   UNL     1      46.155   6.060  11.574  0.00  0.00    +0.000 C 
BRANCH  23  24
ATOM     24  N   UNL     1      44.904   5.477  11.038  0.00  0.00    +0.000 NA
BRANCH  24  25
ATOM     25  C   UNL     1      43.725   6.273  11.461  0.00  0.00    +0.000 C 
BRANCH  25  26
ATOM     26  C   UNL     1      42.533   5.453  11.993  0.00  0.00    +0.000 C 
BRANCH  26  27
ATOM     27  O   UNL     1      42.928   4.670  13.118  0.00  0.00    +0.000 OA
ATOM     28  H   UNL     1      42.175   4.645  13.731  0.00  0.00    +0.000 HD
ENDBRANCH  26  27
ENDBRANCH  25  26
ENDBRANCH  24  25
BRANCH  24  29
ATOM     29  C   UNL     1      44.989   5.464   9.544  0.00  0.00    +0.000 C 
BRANCH  29  30
ATOM     30  C   UNL     1      45.552   4.204   8.895  0.00  0.00    +0.000 A 
ATOM     31  N   UNL     1      45.177   3.010   9.401  0.00  0.00    +0.000 NA
ATOM     32  C   UNL     1      45.610   1.918   8.744  0.00  0.00    +0.000 A 
ATOM     33  C   UNL     1      46.396   1.970   7.618  0.00  0.00    +0.000 A 
ATOM     34  C   UNL     1      46.741   3.231   7.194  0.00  0.00    +0.000 A 
ATOM     35  N   UNL     1      46.336   4.359   7.805  0.00  0.00    +0.000 NA
ENDBRANCH  29  30
ENDBRANCH  24  29
ENDBRANCH  23  24
ENDBRANCH   4  23
TORSDOF 10
ENDMDL
MODEL 8
REMARK VINA RESULT:    -5.524      2.654      3.675
REMARK INTER + INTRA:         -10.580
REMARK INTER:                  -9.547
REMARK INTRA:                  -1.033
REMARK UNBOUND:                -1.988
REMARK  Name = 
REMARK  10 active torsions:
REMARK  status: ('A' for Active; 'I' for Inactive)
REMARK    1  A    between atoms: C_2  and  C_23
REMARK    2  A    between atoms: N_3  and  C_4
REMARK    3  A    between atoms: C_4  and  C_5
REMARK    4  A    between atoms: C_8  and  C_9
REMARK    5  A    between atoms: C_9  and  N_10
REMARK    6  A    between atoms: N_10  and  C_11
REMARK    7  A    between atoms: N_10  and  C_14
REMARK    8  A    between atoms: C_11  and  C_12
REMARK    9  A    between atoms: C_12  and  O_13
REMARK   10  A    between atoms: C_14  and  C_15
REMARK                            x       y       z     vdW  Elec       q    Type
REMARK                         _______ _______ _______ _____ _____    ______ ____
ROOT
ATOM      1  C   UNL     1      47.295   4.951  14.753  0.00  0.00    +0.000 A 
ATOM      2  C   UNL     1      46.880   3.707  14.293  0.00  0.00    +0.000 A 
ATOM      3  C   UNL     1      46.400   3.595  12.992  0.00  0.00    +0.000 A 
ATOM      4  C   UNL     1      46.306   4.732  12.184  0.00  0.00    +0.000 A 
ATOM      5  C   UNL     1      46.718   5.938  12.738  0.00  0.00    +0.000 A 
ATOM      6  N   UNL     1      47.201   6.076  13.997  0.00  0.00    +0.000 NA
ENDROOT
BRANCH   1   7
ATOM      7  C   UNL     1      47.793   5.099  16.176  0.00  0.00    +0.000 C 
BRANCH   7  10
ATOM      8  O   UNL     1      50.586   5.623  16.319  0.00  0.00    +0.000 OA
ATOM      9  C   UNL     1      49.774   6.519  16.519  0.00  0.00    +0.000 C 
ATOM     10  N   UNL     1      48.411   6.386  16.367  0.00  0.00    +0.000 N 
ATOM     11  H   UNL     1      47.824   7.049  16.852  0.00  0.00    +0.000 HD
BRANCH   9  12
ATOM     12  C   UNL     1      50.107   7.767  17.184  0.00  0.00    +0.000 A 
ATOM     13  C   UNL     1      50.742   8.808  16.529  0.00  0.00    +0.000 A 
ATOM     14  S   UNL     1      51.621   9.782  17.635  0.00  0.00    +0.000 S 
ATOM     15  C   UNL     1      50.967   8.948  18.973  0.00  0.00    +0.000 A 
ATOM     16  N   UNL     1      51.390   9.165  20.247  0.00  0.00    +0.000 NA
ATOM     17  C   UNL     1      50.734   8.496  21.139  0.00  0.00    +0.000 A 
ATOM     18  N   UNL     1      49.664   7.674  20.889  0.00  0.00    +0.000 N 
ATOM     19  C   UNL     1      49.213   7.400  19.608  0.00  0.00    +0.000 A 
ATOM     20  O   UNL     1      48.239   6.691  19.398  0.00  0.00    +0.000 OA
ATOM     21  C   UNL     1      50.003   8.046  18.583  0.00  0.00    +0.000 A 
ATOM     22  H   UNL     1      49.138   7.260  21.640  0.00  0.00    +0.000 HD
ENDBRANCH   9  12
ENDBRANCH   7  10
ENDBRANCH   1   7
BRANCH   4  23
ATOM     23  C   UNL     1      45.680   4.658  10.813  0.00  0.00    +0.000 C 
BRANCH  23  24
ATOM     24  N   UNL     1      44.259   4.242  10.779  0.00  0.00    +0.000 NA
BRANCH  24  25
ATOM     25  C   UNL     1      43.362   5.399  11.019  0.00  0.00    +0.000 C 
BRANCH  25  26
ATOM     26  C   UNL     1      42.534   5.333  12.317  0.00  0.00    +0.000 C 
BRANCH  26  27
ATOM     27  O   UNL     1      43.255   5.917  13.401  0.00  0.00    +0.000 OA
ATOM     28  H   UNL     1      43.365   5.231  14.078  0.00  0.00    +0.000 HD
ENDBRANCH  26  27
ENDBRANCH  25  26
ENDBRANCH  24  25
BRANCH  24  29
ATOM     29  C   UNL     1      43.971   3.654   9.434  0.00  0.00    +0.000 C 
BRANCH  29  30
ATOM     30  C   UNL     1      45.167   3.187   8.612  0.00  0.00    +0.000 A 
ATOM     31  N   UNL     1      45.553   1.899   8.733  0.00  0.00    +0.000 NA
ATOM     32  C   UNL     1      46.546   1.493   7.920  0.00  0.00    +0.000 A 
ATOM     33  C   UNL     1      47.166   2.313   7.008  0.00  0.00    +0.000 A 
ATOM     34  C   UNL     1      46.717   3.611   6.977  0.00  0.00    +0.000 A 
ATOM     35  N   UNL     1      45.724   4.075   7.759  0.00  0.00    +0.000 NA
ENDBRANCH  29  30
ENDBRANCH  24  29
ENDBRANCH  23  24
ENDBRANCH   4  23
TORSDOF 10
ENDMDL
