MODEL 1
REMARK VINA RESULT:    -7.508      0.000      0.000
REMARK INTER + INTRA:         -10.088
REMARK INTER:                  -9.483
REMARK INTRA:                  -0.604
REMARK UNBOUND:                -0.604
REMARK  Name = 
REMARK  5 active torsions:
REMARK  status: ('A' for Active; 'I' for Inactive)
REMARK    1  A    between atoms: N_1  and  C_2
REMARK    2  A    between atoms: C_2  and  C_3
REMARK    3  A    between atoms: C_3  and  C_4
REMARK    4  A    between atoms: C_7  and  C_8
REMARK    5  A    between atoms: C_8  and  N_9
REMARK                            x       y       z     vdW  Elec       q    Type
REMARK                         _______ _______ _______ _____ _____    ______ ____
ROOT
ATOM      1  C   UNL     1      45.959   2.632   7.941  0.00  0.00    +0.000 A 
ATOM      2  C   UNL     1      45.278   2.082   9.033  0.00  0.00    +0.000 A 
ATOM      3  C   UNL     1      44.803   2.900  10.063  0.00  0.00    +0.000 A 
ATOM      4  C   UNL     1      44.993   4.289  10.022  0.00  0.00    +0.000 A 
ATOM      5  C   UNL     1      45.650   4.840   8.911  0.00  0.00    +0.000 A 
ATOM      6  C   UNL     1      46.122   4.021   7.881  0.00  0.00    +0.000 A 
ENDROOT
BRANCH   1   7
ATOM      7  C   UNL     1      46.526   1.746   6.857  0.00  0.00    +0.000 C 
BRANCH   7   8
ATOM      8  C   UNL     1      47.348   2.518   5.820  0.00  0.00    +0.000 C 
BRANCH   8   9
ATOM      9  N   UNL     1      48.576   1.797   5.481  0.00  0.00    +0.000 NA
ATOM     10  H   UNL     1      48.629   1.677   4.470  0.00  0.00    +0.000 HD
ATOM     11  H   UNL     1      48.545   0.858   5.877  0.00  0.00    +0.000 HD
ENDBRANCH   8   9
ENDBRANCH   7   8
ENDBRANCH   1   7
BRANCH   4  12
ATOM     12  C   UNL     1      44.499   5.174  11.139  0.00  0.00    +0.000 C 
BRANCH  12  13
ATOM     13  N   UNL     1      45.412   5.215  12.280  0.00  0.00    +0.000 N 
ATOM     14  C   UNL     1      45.321   4.380  13.373  0.00  0.00    +0.000 A 
ATOM     15  C   UNL     1      46.429   4.585  14.164  0.00  0.00    +0.000 A 
ATOM     16  C   UNL     1      47.224   5.567  13.533  0.00  0.00    +0.000 A 
ATOM     17  N   UNL     1      48.420   6.067  13.927  0.00  0.00    +0.000 NA
ATOM     18  C   UNL     1      48.952   6.989  13.101  0.00  0.00    +0.000 A 
ATOM     19  C   UNL     1      48.371   7.446  11.927  0.00  0.00    +0.000 A 
ATOM     20  C   UNL     1      47.141   6.929  11.528  0.00  0.00    +0.000 A 
ATOM     21  C   UNL     1      46.572   5.960  12.361  0.00  0.00    +0.000 A 
ENDBRANCH  12  13
ENDBRANCH   4  12
TORSDOF 5
ENDMDL
MODEL 2
REMARK VINA RESULT:    -7.377      1.375      2.022
REMARK INTER + INTRA:          -9.923
REMARK INTER:                  -9.346
REMARK INTRA:                  -0.576
REMARK UNBOUND:                -0.604
REMARK  Name = 
REMARK  5 active torsions:
REMARK  status: ('A' for Active; 'I' for Inactive)
REMARK    1  A    between atoms: N_1  and  C_2
REMARK    2  A    between atoms: C_2  and  C_3
REMARK    3  A    between atoms: C_3  and  C_4
REMARK    4  A    between atoms: C_7  and  C_8
REMARK    5  A    between atoms: C_8  and  N_9
REMARK                            x       y       z     vdW  Elec       q    Type
REMARK                         _______ _______ _______ _____ _____    ______ ____
ROOT
ATOM      1  C   UNL     1      46.075   2.276   7.784  0.00  0.00    +0.000 A 
ATOM      2  C   UNL     1      45.297   1.656   8.768  0.00  0.00    +0.000 A 
ATOM      3  C   UNL     1      44.541   2.418   9.666  0.00  0.00    +0.000 A 
ATOM      4  C   UNL     1      44.542   3.818   9.596  0.00  0.00    +0.000 A 
ATOM      5  C   UNL     1      45.301   4.435   8.590  0.00  0.00    +0.000 A 
ATOM      6  C   UNL     1      46.053   3.672   7.691  0.00  0.00    +0.000 A 
ENDROOT
BRANCH   1   7
ATOM      7  C   UNL     1      46.939   1.459   6.852  0.00  0.00    +0.000 C 
BRANCH   7   8
ATOM      8  C   UNL     1      48.244   2.165   6.471  0.00  0.00    +0.000 C 
BRANCH   8   9
ATOM      9  N   UNL     1      48.276   2.470   5.039  0.00  0.00    +0.000 NA
ATOM     10  H   UNL     1      48.010   1.639   4.512  0.00  0.00    +0.000 HD
ATOM     11  H   UNL     1      49.230   2.692   4.756  0.00  0.00    +0.000 HD
ENDBRANCH   8   9
ENDBRANCH   7   8
ENDBRANCH   1   7
BRANCH   4  12
ATOM     12  C   UNL     1      43.744   4.645  10.573  0.00  0.00    +0.000 C 
BRANCH  12  13
ATOM     13  N   UNL     1      44.580   5.506  11.408  0.00  0.00    +0.000 N 
ATOM     14  C   UNL     1      44.465   6.878  11.459  0.00  0.00    +0.000 A 
ATOM     15  C   UNL     1      45.288   7.341  12.461  0.00  0.00    +0.000 A 
ATOM     16  C   UNL     1      45.917   6.219  13.045  0.00  0.00    +0.000 A 
ATOM     17  N   UNL     1      46.786   6.184  14.084  0.00  0.00    +0.000 NA
ATOM     18  C   UNL     1      47.207   4.951  14.432  0.00  0.00    +0.000 A 
ATOM     19  C   UNL     1      46.829   3.769  13.812  0.00  0.00    +0.000 A 
ATOM     20  C   UNL     1      45.937   3.812  12.744  0.00  0.00    +0.000 A 
ATOM     21  C   UNL     1      45.473   5.079  12.370  0.00  0.00    +0.000 A 
ENDBRANCH  12  13
ENDBRANCH   4  12
TORSDOF 5
ENDMDL
MODEL 3
REMARK VINA RESULT:    -7.281      1.565      2.152
REMARK INTER + INTRA:          -9.801
REMARK INTER:                  -9.242
REMARK INTRA:                  -0.559
REMARK UNBOUND:                -0.604
REMARK  Name = 
REMARK  5 active torsions:
REMARK  status: ('A' for Active; 'I' for Inactive)
REMARK    1  A    between atoms: N_1  and  C_2
REMARK    2  A    between atoms: C_2  and  C_3
REMARK    3  A    between atoms: C_3  and  C_4
REMARK    4  A    between atoms: C_7  and  C_8
REMARK    5  A    between atoms: C_8  and  N_9
REMARK                            x       y       z     vdW  Elec       q    Type
REMARK                         _______ _______ _______ _____ _____    ______ ____
ROOT
ATOM      1  C   UNL     1      46.087   2.387   7.843  0.00  0.00    +0.000 A 
ATOM      2  C   UNL     1      46.162   3.784   7.826  0.00  0.00    +0.000 A 
ATOM      3  C   UNL     1      45.405   4.551   8.719  0.00  0.00    +0.000 A 
ATOM      4  C   UNL     1      44.560   3.936   9.654  0.00  0.00    +0.000 A 
ATOM      5  C   UNL     1      44.510   2.535   9.688  0.00  0.00    +0.000 A 
ATOM      6  C   UNL     1      45.269   1.770   8.796  0.00  0.00    +0.000 A 
ENDROOT
BRANCH   1   7
ATOM      7  C   UNL     1      46.856   1.559   6.841  0.00  0.00    +0.000 C 
BRANCH   7   8
ATOM      8  C   UNL     1      48.213   2.168   6.476  0.00  0.00    +0.000 C 
BRANCH   8   9
ATOM      9  N   UNL     1      48.272   2.507   5.054  0.00  0.00    +0.000 NA
ATOM     10  H   UNL     1      47.723   3.350   4.885  0.00  0.00    +0.000 HD
ATOM     11  H   UNL     1      47.832   1.769   4.505  0.00  0.00    +0.000 HD
ENDBRANCH   8   9
ENDBRANCH   7   8
ENDBRANCH   1   7
BRANCH   4  12
ATOM     12  C   UNL     1      43.728   4.759  10.606  0.00  0.00    +0.000 C 
BRANCH  12  13
ATOM     13  N   UNL     1      44.519   5.365  11.676  0.00  0.00    +0.000 N 
ATOM     14  C   UNL     1      45.258   4.648  12.591  0.00  0.00    +0.000 A 
ATOM     15  C   UNL     1      45.998   5.538  13.339  0.00  0.00    +0.000 A 
ATOM     16  C   UNL     1      45.710   6.834  12.859  0.00  0.00    +0.000 A 
ATOM     17  N   UNL     1      46.224   8.019  13.268  0.00  0.00    +0.000 NA
ATOM     18  C   UNL     1      45.765   9.099  12.603  0.00  0.00    +0.000 A 
ATOM     19  C   UNL     1      44.833   9.074  11.577  0.00  0.00    +0.000 A 
ATOM     20  C   UNL     1      44.307   7.852  11.162  0.00  0.00    +0.000 A 
ATOM     21  C   UNL     1      44.775   6.714  11.827  0.00  0.00    +0.000 A 
ENDBRANCH  12  13
ENDBRANCH   4  12
TORSDOF 5
ENDMDL
MODEL 4
REMARK VINA RESULT:    -5.873      2.048      5.960
REMARK INTER + INTRA:          -8.022
REMARK INTER:                  -7.428
REMARK INTRA:                  -0.594
REMARK UNBOUND:                -0.604
REMARK  Name = 
REMARK  5 active torsions:
REMARK  status: ('A' for Active; 'I' for Inactive)
REMARK    1  A    between atoms: N_1  and  C_2
REMARK    2  A    between atoms: C_2  and  C_3
REMARK    3  A    between atoms: C_3  and  C_4
REMARK    4  A    between atoms: C_7  and  C_8
REMARK    5  A    between atoms: C_8  and  N_9
REMARK                            x       y       z     vdW  Elec       q    Type
REMARK                         _______ _______ _______ _____ _____    ______ ____
ROOT
ATOM      1  C   UNL     1      48.133   7.328  13.440  0.00  0.00    +0.000 A 
ATOM      2  C   UNL     1      47.684   6.023  13.672  0.00  0.00    +0.000 A 
ATOM      3  C   UNL     1      46.403   5.627  13.273  0.00  0.00    +0.000 A 
ATOM      4  C   UNL     1      45.543   6.527  12.627  0.00  0.00    +0.000 A 
ATOM      5  C   UNL     1      46.007   7.826  12.370  0.00  0.00    +0.000 A 
ATOM      6  C   UNL     1      47.289   8.219  12.766  0.00  0.00    +0.000 A 
ENDROOT
BRANCH   1   7
ATOM      7  C   UNL     1      49.492   7.776  13.923  0.00  0.00    +0.000 C 
BRANCH   7   8
ATOM      8  C   UNL     1      50.367   8.350  12.804  0.00  0.00    +0.000 C 
BRANCH   8   9
ATOM      9  N   UNL     1      50.657   7.334  11.791  0.00  0.00    +0.000 NA
ATOM     10  H   UNL     1      50.631   7.763  10.866  0.00  0.00    +0.000 HD
ATOM     11  H   UNL     1      49.924   6.625  11.794  0.00  0.00    +0.000 HD
ENDBRANCH   8   9
ENDBRANCH   7   8
ENDBRANCH   1   7
BRANCH   4  12
ATOM     12  C   UNL     1      44.154   6.110  12.212  0.00  0.00    +0.000 C 
BRANCH  12  13
ATOM     13  N   UNL     1      44.092   4.730  11.735  0.00  0.00    +0.000 N 
ATOM     14  C   UNL     1      43.397   3.724  12.371  0.00  0.00    +0.000 A 
ATOM     15  C   UNL     1      43.420   2.608  11.564  0.00  0.00    +0.000 A 
ATOM     16  C   UNL     1      44.142   2.945  10.398  0.00  0.00    +0.000 A 
ATOM     17  N   UNL     1      44.398   2.177   9.312  0.00  0.00    +0.000 NA
ATOM     18  C   UNL     1      45.104   2.785   8.338  0.00  0.00    +0.000 A 
ATOM     19  C   UNL     1      45.574   4.089   8.381  0.00  0.00    +0.000 A 
ATOM     20  C   UNL     1      45.309   4.873   9.501  0.00  0.00    +0.000 A 
ATOM     21  C   UNL     1      44.566   4.271  10.522  0.00  0.00    +0.000 A 
ENDBRANCH  12  13
ENDBRANCH   4  12
TORSDOF 5
ENDMDL
MODEL 5
REMARK VINA RESULT:    -5.607      1.618      2.690
REMARK INTER + INTRA:          -7.687
REMARK INTER:                  -7.566
REMARK INTRA:                  -0.121
REMARK UNBOUND:                -0.604
REMARK  Name = 
REMARK  5 active torsions:
REMARK  status: ('A' for Active; 'I' for Inactive)
REMARK    1  A    between atoms: N_1  and  C_2
REMARK    2  A    between atoms: C_2  and  C_3
REMARK    3  A    between atoms: C_3  and  C_4
REMARK    4  A    between atoms: C_7  and  C_8
REMARK    5  A    between atoms: C_8  and  N_9
REMARK                            x       y       z     vdW  Elec       q    Type
REMARK                         _______ _______ _______ _____ _____    ______ ____
ROOT
ATOM      1  C   UNL     1      45.324   3.762   8.940  0.00  0.00    +0.000 A 
ATOM      2  C   UNL     1      45.012   2.873   9.975  0.00  0.00    +0.000 A 
ATOM      3  C   UNL     1      44.936   3.317  11.299  0.00  0.00    +0.000 A 
ATOM      4  C   UNL     1      45.166   4.664  11.618  0.00  0.00    +0.000 A 
ATOM      5  C   UNL     1      45.449   5.557  10.575  0.00  0.00    +0.000 A 
ATOM      6  C   UNL     1      45.521   5.112   9.251  0.00  0.00    +0.000 A 
ENDROOT
BRANCH   1   7
ATOM      7  C   UNL     1      45.466   3.274   7.518  0.00  0.00    +0.000 C 
BRANCH   7   8
ATOM      8  C   UNL     1      46.914   2.947   7.138  0.00  0.00    +0.000 C 
BRANCH   8   9
ATOM      9  N   UNL     1      47.215   1.536   7.382  0.00  0.00    +0.000 NA
ATOM     10  H   UNL     1      46.351   1.040   7.603  0.00  0.00    +0.000 HD
ATOM     11  H   UNL     1      47.810   1.448   8.204  0.00  0.00    +0.000 HD
ENDBRANCH   8   9
ENDBRANCH   7   8
ENDBRANCH   1   7
BRANCH   4  12
ATOM     12  C   UNL     1      45.103   5.144  13.047  0.00  0.00    +0.000 C 
BRANCH  12  13
ATOM     13  N   UNL     1      46.375   5.685  13.522  0.00  0.00    +0.000 N 
ATOM     14  C   UNL     1      46.958   6.834  13.030  0.00  0.00    +0.000 A 
ATOM     15  C   UNL     1      48.051   7.131  13.813  0.00  0.00    +0.000 A 
ATOM     16  C   UNL     1      48.133   6.142  14.818  0.00  0.00    +0.000 A 
ATOM     17  N   UNL     1      49.026   6.040  15.831  0.00  0.00    +0.000 NA
ATOM     18  C   UNL     1      48.839   4.987  16.651  0.00  0.00    +0.000 A 
ATOM     19  C   UNL     1      47.837   4.037  16.523  0.00  0.00    +0.000 A 
ATOM     20  C   UNL     1      46.923   4.146  15.478  0.00  0.00    +0.000 A 
ATOM     21  C   UNL     1      47.086   5.238  14.618  0.00  0.00    +0.000 A 
ENDBRANCH  12  13
ENDBRANCH   4  12
TORSDOF 5
ENDMDL
MODEL 6
REMARK VINA RESULT:    -5.560      1.507      6.183
REMARK INTER + INTRA:          -7.627
REMARK INTER:                  -7.028
REMARK INTRA:                  -0.599
REMARK UNBOUND:                -0.604
REMARK  Name = 
REMARK  5 active torsions:
REMARK  status: ('A' for Active; 'I' for Inactive)
REMARK    1  A    between atoms: N_1  and  C_2
REMARK    2  A    between atoms: C_2  and  C_3
REMARK    3  A    between atoms: C_3  and  C_4
REMARK    4  A    between atoms: C_7  and  C_8
REMARK    5  A    between atoms: C_8  and  N_9
REMARK                            x       y       z     vdW  Elec       q    Type
REMARK                         _______ _______ _______ _____ _____    ______ ____
ROOT
ATOM      1  C   UNL     1      46.688   6.862  13.010  0.00  0.00    +0.000 A 
ATOM      2  C   UNL     1      46.511   5.476  13.097  0.00  0.00    +0.000 A 
ATOM      3  C   UNL     1      45.650   4.810  12.218  0.00  0.00    +0.000 A 
ATOM      4  C   UNL     1      44.951   5.514  11.228  0.00  0.00    +0.000 A 
ATOM      5  C   UNL     1      45.153   6.898  11.124  0.00  0.00    +0.000 A 
ATOM      6  C   UNL     1      46.016   7.563  12.002  0.00  0.00    +0.000 A 
ENDROOT
BRANCH   1   7
ATOM      7  C   UNL     1      47.569   7.592  13.996  0.00  0.00    +0.000 C 
BRANCH   7   8
ATOM      8  C   UNL     1      48.599   6.680  14.668  0.00  0.00    +0.000 C 
BRANCH   8   9
ATOM      9  N   UNL     1      49.961   7.046  14.275  0.00  0.00    +0.000 NA
ATOM     10  H   UNL     1      50.035   8.062  14.224  0.00  0.00    +0.000 HD
ATOM     11  H   UNL     1      50.154   6.700  13.336  0.00  0.00    +0.000 HD
ENDBRANCH   8   9
ENDBRANCH   7   8
ENDBRANCH   1   7
BRANCH   4  12
ATOM     12  C   UNL     1      44.007   4.803  10.290  0.00  0.00    +0.000 C 
BRANCH  12  13
ATOM     13  N   UNL     1      44.587   3.595   9.706  0.00  0.00    +0.000 N 
ATOM     14  C   UNL     1      44.163   2.316   9.997  0.00  0.00    +0.000 A 
ATOM     15  C   UNL     1      44.813   1.444   9.152  0.00  0.00    +0.000 A 
ATOM     16  C   UNL     1      45.651   2.213   8.315  0.00  0.00    +0.000 A 
ATOM     17  N   UNL     1      46.457   1.792   7.310  0.00  0.00    +0.000 NA
ATOM     18  C   UNL     1      47.129   2.770   6.671  0.00  0.00    +0.000 A 
ATOM     19  C   UNL     1      47.058   4.122   6.972  0.00  0.00    +0.000 A 
ATOM     20  C   UNL     1      46.229   4.549   8.006  0.00  0.00    +0.000 A 
ATOM     21  C   UNL     1      45.509   3.555   8.679  0.00  0.00    +0.000 A 
ENDBRANCH  12  13
ENDBRANCH   4  12
TORSDOF 5
ENDMDL
MODEL 7
REMARK VINA RESULT:    -5.410      2.114      3.209
REMARK INTER + INTRA:          -7.438
REMARK INTER:                  -7.027
REMARK INTRA:                  -0.412
REMARK UNBOUND:                -0.604
REMARK  Name = 
REMARK  5 active torsions:
REMARK  status: ('A' for Active; 'I' for Inactive)
REMARK    1  A    between atoms: N_1  and  C_2
REMARK    2  A    between atoms: C_2  and  C_3
REMARK    3  A    between atoms: C_3  and  C_4
REMARK    4  A    between atoms: C_7  and  C_8
REMARK    5  A    between atoms: C_8  and  N_9
REMARK                            x       y       z     vdW  Elec       q    Type
REMARK                         _______ _______ _______ _____ _____    ______ ____
ROOT
ATOM      1  C   UNL     1      45.024   3.823   9.764  0.00  0.00    +0.000 A 
ATOM      2  C   UNL     1      44.848   3.420  11.093  0.00  0.00    +0.000 A 
ATOM      3  C   UNL     1      45.195   4.271  12.148  0.00  0.00    +0.000 A 
ATOM      4  C   UNL     1      45.720   5.547  11.898  0.00  0.00    +0.000 A 
ATOM      5  C   UNL     1      45.867   5.958  10.565  0.00  0.00    +0.000 A 
ATOM      6  C   UNL     1      45.518   5.108   9.511  0.00  0.00    +0.000 A 
ENDROOT
BRANCH   1   7
ATOM      7  C   UNL     1      44.708   2.884   8.623  0.00  0.00    +0.000 C 
BRANCH   7   8
ATOM      8  C   UNL     1      45.608   1.645   8.600  0.00  0.00    +0.000 C 
BRANCH   8   9
ATOM      9  N   UNL     1      46.744   1.838   7.698  0.00  0.00    +0.000 NA
ATOM     10  H   UNL     1      47.151   2.759   7.860  0.00  0.00    +0.000 HD
ATOM     11  H   UNL     1      46.421   1.837   6.731  0.00  0.00    +0.000 HD
ENDBRANCH   8   9
ENDBRANCH   7   8
ENDBRANCH   1   7
BRANCH   4  12
ATOM     12  C   UNL     1      46.112   6.460  13.033  0.00  0.00    +0.000 C 
BRANCH  12  13
ATOM     13  N   UNL     1      46.490   7.799  12.582  0.00  0.00    +0.000 N 
ATOM     14  C   UNL     1      45.659   8.896  12.640  0.00  0.00    +0.000 A 
ATOM     15  C   UNL     1      46.391  10.009  12.291  0.00  0.00    +0.000 A 
ATOM     16  C   UNL     1      47.709   9.581  12.021  0.00  0.00    +0.000 A 
ATOM     17  N   UNL     1      48.785  10.327  11.671  0.00  0.00    +0.000 NA
ATOM     18  C   UNL     1      49.926   9.632  11.496  0.00  0.00    +0.000 A 
ATOM     19  C   UNL     1      50.061   8.259  11.636  0.00  0.00    +0.000 A 
ATOM     20  C   UNL     1      48.952   7.498  11.996  0.00  0.00    +0.000 A 
ATOM     21  C   UNL     1      47.755   8.195  12.197  0.00  0.00    +0.000 A 
ENDBRANCH  12  13
ENDBRANCH   4  12
TORSDOF 5
ENDMDL
MODEL 8
REMARK VINA RESULT:    -5.210      3.766      7.892
REMARK INTER + INTRA:          -7.185
REMARK INTER:                  -6.643
REMARK INTRA:                  -0.543
REMARK UNBOUND:                -0.604
REMARK  Name = 
REMARK  5 active torsions:
REMARK  status: ('A' for Active; 'I' for Inactive)
REMARK    1  A    between atoms: N_1  and  C_2
REMARK    2  A    between atoms: C_2  and  C_3
REMARK    3  A    between atoms: C_3  and  C_4
REMARK    4  A    between atoms: C_7  and  C_8
REMARK    5  A    between atoms: C_8  and  N_9
REMARK                            x       y       z     vdW  Elec       q    Type
REMARK                         _______ _______ _______ _____ _____    ______ ____
ROOT
ATOM      1  C   UNL     1      48.129   5.556  17.585  0.00  0.00    +0.000 A 
ATOM      2  C   UNL     1      47.442   4.511  16.955  0.00  0.00    +0.000 A 
ATOM      3  C   UNL     1      47.306   4.484  15.563  0.00  0.00    +0.000 A 
ATOM      4  C   UNL     1      47.859   5.498  14.768  0.00  0.00    +0.000 A 
ATOM      5  C   UNL     1      48.572   6.527  15.401  0.00  0.00    +0.000 A 
ATOM      6  C   UNL     1      48.710   6.552  16.792  0.00  0.00    +0.000 A 
ENDROOT
BRANCH   1   7
ATOM      7  C   UNL     1      48.226   5.620  19.091  0.00  0.00    +0.000 C 
BRANCH   7   8
ATOM      8  C   UNL     1      49.121   4.526  19.681  0.00  0.00    +0.000 C 
BRANCH   8   9
ATOM      9  N   UNL     1      48.378   3.697  20.632  0.00  0.00    +0.000 NA
ATOM     10  H   UNL     1      48.998   2.983  21.014  0.00  0.00    +0.000 HD
ATOM     11  H   UNL     1      47.635   3.196  20.146  0.00  0.00    +0.000 HD
ENDBRANCH   8   9
ENDBRANCH   7   8
ENDBRANCH   1   7
BRANCH   4  12
ATOM     12  C   UNL     1      47.698   5.482  13.268  0.00  0.00    +0.000 C 
BRANCH  12  13
ATOM     13  N   UNL     1      46.386   5.954  12.831  0.00  0.00    +0.000 N 
ATOM     14  C   UNL     1      46.090   7.273  12.561  0.00  0.00    +0.000 A 
ATOM     15  C   UNL     1      44.824   7.328  12.021  0.00  0.00    +0.000 A 
ATOM     16  C   UNL     1      44.337   6.004  11.950  0.00  0.00    +0.000 A 
ATOM     17  N   UNL     1      43.152   5.566  11.461  0.00  0.00    +0.000 NA
ATOM     18  C   UNL     1      42.974   4.231  11.512  0.00  0.00    +0.000 A 
ATOM     19  C   UNL     1      43.886   3.318  12.019  0.00  0.00    +0.000 A 
ATOM     20  C   UNL     1      45.102   3.774  12.521  0.00  0.00    +0.000 A 
ATOM     21  C   UNL     1      45.319   5.156  12.469  0.00  0.00    +0.000 A 
ENDBRANCH  12  13
ENDBRANCH   4  12
TORSDOF 5
ENDMDL
MODEL 9
REMARK VINA RESULT:    -4.973      3.817      5.628
REMARK INTER + INTRA:          -6.886
REMARK INTER:                  -6.320
REMARK INTRA:                  -0.566
REMARK UNBOUND:                -0.604
REMARK  Name = 
REMARK  5 active torsions:
REMARK  status: ('A' for Active; 'I' for Inactive)
REMARK    1  A    between atoms: N_1  and  C_2
REMARK    2  A    between atoms: C_2  and  C_3
REMARK    3  A    between atoms: C_3  and  C_4
REMARK    4  A    between atoms: C_7  and  C_8
REMARK    5  A    between atoms: C_8  and  N_9
REMARK                            x       y       z     vdW  Elec       q    Type
REMARK                         _______ _______ _______ _____ _____    ______ ____
ROOT
ATOM      1  C   UNL     1      45.258   5.205  11.953  0.00  0.00    +0.000 A 
ATOM      2  C   UNL     1      45.926   4.640  13.046  0.00  0.00    +0.000 A 
ATOM      3  C   UNL     1      47.125   5.191  13.512  0.00  0.00    +0.000 A 
ATOM      4  C   UNL     1      47.679   6.325  12.899  0.00  0.00    +0.000 A 
ATOM      5  C   UNL     1      46.990   6.905  11.824  0.00  0.00    +0.000 A 
ATOM      6  C   UNL     1      45.791   6.355  11.361  0.00  0.00    +0.000 A 
ENDROOT
BRANCH   1   7
ATOM      7  C   UNL     1      43.996   4.576  11.410  0.00  0.00    +0.000 C 
BRANCH   7   8
ATOM      8  C   UNL     1      42.726   5.325  11.827  0.00  0.00    +0.000 C 
BRANCH   8   9
ATOM      9  N   UNL     1      42.630   5.423  13.284  0.00  0.00    +0.000 NA
ATOM     10  H   UNL     1      43.346   4.836  13.710  0.00  0.00    +0.000 HD
ATOM     11  H   UNL     1      41.734   5.049  13.596  0.00  0.00    +0.000 HD
ENDBRANCH   8   9
ENDBRANCH   7   8
ENDBRANCH   1   7
BRANCH   4  12
ATOM     12  C   UNL     1      48.980   6.912  13.386  0.00  0.00    +0.000 C 
BRANCH  12  13
ATOM     13  N   UNL     1      48.830   7.688  14.616  0.00  0.00    +0.000 N 
ATOM     14  C   UNL     1      48.360   8.983  14.659  0.00  0.00    +0.000 A 
ATOM     15  C   UNL     1      48.196   9.337  15.980  0.00  0.00    +0.000 A 
ATOM     16  C   UNL     1      48.568   8.224  16.766  0.00  0.00    +0.000 A 
ATOM     17  N   UNL     1      48.543   8.096  18.114  0.00  0.00    +0.000 NA
ATOM     18  C   UNL     1      48.944   6.896  18.580  0.00  0.00    +0.000 A 
ATOM     19  C   UNL     1      49.372   5.833  17.798  0.00  0.00    +0.000 A 
ATOM     20  C   UNL     1      49.396   5.971  16.413  0.00  0.00    +0.000 A 
ATOM     21  C   UNL     1      48.973   7.203  15.901  0.00  0.00    +0.000 A 
ENDBRANCH  12  13
ENDBRANCH   4  12
TORSDOF 5
ENDMDL
