MODEL 1
REMARK VINA RESULT:    -8.313      0.000      0.000
REMARK INTER + INTRA:         -11.510
REMARK INTER:                 -10.743
REMARK INTRA:                  -0.767
REMARK UNBOUND:                -0.767
REMARK  Name = 
REMARK  5 active torsions:
REMARK  status: ('A' for Active; 'I' for Inactive)
REMARK    1  A    between atoms: C_2  and  C_4
REMARK    2  A    between atoms: C_7  and  N_8
REMARK    3  A    between atoms: N_8  and  C_9
REMARK    4  A    between atoms: C_9  and  C_10
REMARK    5  A    between atoms: C_14  and  C_15
REMARK                            x       y       z     vdW  Elec       q    Type
REMARK                         _______ _______ _______ _____ _____    ______ ____
ROOT
ATOM      1  N   UNL     1      43.784   4.988   9.812  0.00  0.00    +0.000 N 
ATOM      2  H   UNL     1      42.933   5.158   9.276  0.00  0.00    +0.000 HD
ENDROOT
BRANCH   1   6
ATOM      3  C   UNL     1      46.313   2.237   7.854  0.00  0.00    +0.000 A 
ATOM      4  C   UNL     1      45.319   1.757   8.711  0.00  0.00    +0.000 A 
ATOM      5  C   UNL     1      44.453   2.652   9.354  0.00  0.00    +0.000 A 
ATOM      6  C   UNL     1      44.584   4.033   9.173  0.00  0.00    +0.000 A 
ATOM      7  C   UNL     1      45.530   4.494   8.251  0.00  0.00    +0.000 A 
ATOM      8  C   UNL     1      46.407   3.611   7.616  0.00  0.00    +0.000 A 
BRANCH   3  10
ATOM      9  N   UNL     1      48.393   1.930   6.615  0.00  0.00    +0.000 N 
ATOM     10  C   UNL     1      47.320   1.344   7.223  0.00  0.00    +0.000 C 
ATOM     11  O   UNL     1      47.211   0.125   7.262  0.00  0.00    +0.000 OA
ATOM     12  H   UNL     1      49.109   1.300   6.276  0.00  0.00    +0.000 HD
ATOM     13  H   UNL     1      48.652   2.894   6.776  0.00  0.00    +0.000 HD
ENDBRANCH   3  10
ENDBRANCH   1   6
BRANCH   1  14
ATOM     14  C   UNL     1      43.512   4.809  11.234  0.00  0.00    +0.000 C 
BRANCH  14  15
ATOM     15  C   UNL     1      44.782   4.894  12.042  0.00  0.00    +0.000 A 
ATOM     16  C   UNL     1      45.115   3.862  12.911  0.00  0.00    +0.000 A 
ATOM     17  N   UNL     1      46.259   3.811  13.632  0.00  0.00    +0.000 NA
ATOM     18  C   UNL     1      47.131   4.832  13.472  0.00  0.00    +0.000 A 
ATOM     19  C   UNL     1      46.917   5.906  12.622  0.00  0.00    +0.000 A 
ATOM     20  C   UNL     1      45.722   5.922  11.891  0.00  0.00    +0.000 A 
BRANCH  19  21
ATOM     21  C   UNL     1      47.936   6.994  12.491  0.00  0.00    +0.000 C 
ATOM     22  F   UNL     1      47.599   8.139  13.147  0.00  0.00    +0.000 F 
ATOM     23  F   UNL     1      49.155   6.633  12.977  0.00  0.00    +0.000 F 
ATOM     24  F   UNL     1      48.145   7.360  11.196  0.00  0.00    +0.000 F 
ENDBRANCH  19  21
ENDBRANCH  14  15
ENDBRANCH   1  14
TORSDOF 5
ENDMDL
MODEL 2
REMARK VINA RESULT:    -8.035      1.822      2.341
REMARK INTER + INTRA:         -11.151
REMARK INTER:                 -10.457
REMARK INTRA:                  -0.694
REMARK UNBOUND:                -0.767
REMARK  Name = 
REMARK  5 active torsions:
REMARK  status: ('A' for Active; 'I' for Inactive)
REMARK    1  A    between atoms: C_2  and  C_4
REMARK    2  A    between atoms: C_7  and  N_8
REMARK    3  A    between atoms: N_8  and  C_9
REMARK    4  A    between atoms: C_9  and  C_10
REMARK    5  A    between atoms: C_14  and  C_15
REMARK                            x       y       z     vdW  Elec       q    Type
REMARK                         _______ _______ _______ _____ _____    ______ ____
ROOT
ATOM      1  N   UNL     1      43.791   4.836  10.036  0.00  0.00    +0.000 N 
ATOM      2  H   UNL     1      42.878   4.938   9.593  0.00  0.00    +0.000 HD
ENDROOT
BRANCH   1   6
ATOM      3  C   UNL     1      46.299   2.253   7.836  0.00  0.00    +0.000 A 
ATOM      4  C   UNL     1      45.384   1.706   8.742  0.00  0.00    +0.000 A 
ATOM      5  C   UNL     1      44.526   2.544   9.467  0.00  0.00    +0.000 A 
ATOM      6  C   UNL     1      44.587   3.935   9.318  0.00  0.00    +0.000 A 
ATOM      7  C   UNL     1      45.449   4.461   8.351  0.00  0.00    +0.000 A 
ATOM      8  C   UNL     1      46.318   3.635   7.634  0.00  0.00    +0.000 A 
BRANCH   3  10
ATOM      9  N   UNL     1      48.401   2.052   6.614  0.00  0.00    +0.000 N 
ATOM     10  C   UNL     1      47.299   1.422   7.116  0.00  0.00    +0.000 C 
ATOM     11  O   UNL     1      47.157   0.212   6.990  0.00  0.00    +0.000 OA
ATOM     12  H   UNL     1      49.109   1.452   6.211  0.00  0.00    +0.000 HD
ATOM     13  H   UNL     1      48.680   2.978   6.906  0.00  0.00    +0.000 HD
ENDBRANCH   3  10
ENDBRANCH   1   6
BRANCH   1  14
ATOM     14  C   UNL     1      43.684   4.653  11.479  0.00  0.00    +0.000 C 
BRANCH  14  15
ATOM     15  C   UNL     1      44.938   5.117  12.177  0.00  0.00    +0.000 A 
ATOM     16  C   UNL     1      45.552   6.298  11.775  0.00  0.00    +0.000 A 
ATOM     17  N   UNL     1      46.640   6.834  12.374  0.00  0.00    +0.000 NA
ATOM     18  C   UNL     1      47.142   6.172  13.440  0.00  0.00    +0.000 A 
ATOM     19  C   UNL     1      46.605   4.997  13.944  0.00  0.00    +0.000 A 
ATOM     20  C   UNL     1      45.478   4.474  13.298  0.00  0.00    +0.000 A 
BRANCH  19  21
ATOM     21  C   UNL     1      47.212   4.328  15.137  0.00  0.00    +0.000 C 
ATOM     22  F   UNL     1      48.330   4.951  15.602  0.00  0.00    +0.000 F 
ATOM     23  F   UNL     1      46.357   4.264  16.194  0.00  0.00    +0.000 F 
ATOM     24  F   UNL     1      47.585   3.043  14.882  0.00  0.00    +0.000 F 
ENDBRANCH  19  21
ENDBRANCH  14  15
ENDBRANCH   1  14
TORSDOF 5
ENDMDL
MODEL 3
REMARK VINA RESULT:    -7.760      1.358      2.263
REMARK INTER + INTRA:         -10.795
REMARK INTER:                 -10.043
REMARK INTRA:                  -0.752
REMARK UNBOUND:                -0.767
REMARK  Name = 
REMARK  5 active torsions:
REMARK  status: ('A' for Active; 'I' for Inactive)
REMARK    1  A    between atoms: C_2  and  C_4
REMARK    2  A    between atoms: C_7  and  N_8
REMARK    3  A    between atoms: N_8  and  C_9
REMARK    4  A    between atoms: C_9  and  C_10
REMARK    5  A    between atoms: C_14  and  C_15
REMARK                            x       y       z     vdW  Elec       q    Type
REMARK                         _______ _______ _______ _____ _____    ______ ____
ROOT
ATOM      1  N   UNL     1      43.816   4.761   9.933  0.00  0.00    +0.000 N 
ATOM      2  H   UNL     1      42.874   4.393   9.794  0.00  0.00    +0.000 HD
ENDROOT
BRANCH   1   6
ATOM      3  C   UNL     1      46.513   2.411   7.696  0.00  0.00    +0.000 A 
ATOM      4  C   UNL     1      46.548   3.802   7.560  0.00  0.00    +0.000 A 
ATOM      5  C   UNL     1      45.676   4.603   8.311  0.00  0.00    +0.000 A 
ATOM      6  C   UNL     1      44.744   4.028   9.183  0.00  0.00    +0.000 A 
ATOM      7  C   UNL     1      44.777   2.642   9.368  0.00  0.00    +0.000 A 
ATOM      8  C   UNL     1      45.632   1.834   8.614  0.00  0.00    +0.000 A 
BRANCH   3  10
ATOM      9  N   UNL     1      48.414   2.055   6.208  0.00  0.00    +0.000 N 
ATOM     10  C   UNL     1      47.343   1.508   6.856  0.00  0.00    +0.000 C 
ATOM     11  O   UNL     1      47.096   0.313   6.759  0.00  0.00    +0.000 OA
ATOM     12  H   UNL     1      49.016   1.404   5.720  0.00  0.00    +0.000 HD
ATOM     13  H   UNL     1      48.798   2.956   6.455  0.00  0.00    +0.000 HD
ENDBRANCH   3  10
ENDBRANCH   1   6
BRANCH   1  14
ATOM     14  C   UNL     1      44.110   4.999  11.341  0.00  0.00    +0.000 C 
BRANCH  14  15
ATOM     15  C   UNL     1      44.954   6.237  11.514  0.00  0.00    +0.000 A 
ATOM     16  C   UNL     1      44.346   7.487  11.528  0.00  0.00    +0.000 A 
ATOM     17  N   UNL     1      45.002   8.652  11.739  0.00  0.00    +0.000 NA
ATOM     18  C   UNL     1      46.333   8.574  11.964  0.00  0.00    +0.000 A 
ATOM     19  C   UNL     1      47.045   7.384  11.992  0.00  0.00    +0.000 A 
ATOM     20  C   UNL     1      46.331   6.200  11.771  0.00  0.00    +0.000 A 
BRANCH  19  21
ATOM     21  C   UNL     1      48.517   7.379  12.260  0.00  0.00    +0.000 C 
ATOM     22  F   UNL     1      48.993   6.170  12.668  0.00  0.00    +0.000 F 
ATOM     23  F   UNL     1      49.251   7.715  11.164  0.00  0.00    +0.000 F 
ATOM     24  F   UNL     1      48.873   8.262  13.233  0.00  0.00    +0.000 F 
ENDBRANCH  19  21
ENDBRANCH  14  15
ENDBRANCH   1  14
TORSDOF 5
ENDMDL
MODEL 4
REMARK VINA RESULT:    -7.506      3.874      6.524
REMARK INTER + INTRA:         -10.467
REMARK INTER:                 -10.250
REMARK INTRA:                  -0.217
REMARK UNBOUND:                -0.767
REMARK  Name = 
REMARK  5 active torsions:
REMARK  status: ('A' for Active; 'I' for Inactive)
REMARK    1  A    between atoms: C_2  and  C_4
REMARK    2  A    between atoms: C_7  and  N_8
REMARK    3  A    between atoms: N_8  and  C_9
REMARK    4  A    between atoms: C_9  and  C_10
REMARK    5  A    between atoms: C_14  and  C_15
REMARK                            x       y       z     vdW  Elec       q    Type
REMARK                         _______ _______ _______ _____ _____    ______ ____
ROOT
ATOM      1  N   UNL     1      43.562   4.163  11.465  0.00  0.00    +0.000 N 
ATOM      2  H   UNL     1      43.057   4.776  10.825  0.00  0.00    +0.000 HD
ENDROOT
BRANCH   1   6
ATOM      3  C   UNL     1      46.787   6.110  13.365  0.00  0.00    +0.000 A 
ATOM      4  C   UNL     1      45.875   6.868  12.624  0.00  0.00    +0.000 A 
ATOM      5  C   UNL     1      44.784   6.245  12.003  0.00  0.00    +0.000 A 
ATOM      6  C   UNL     1      44.603   4.859  12.091  0.00  0.00    +0.000 A 
ATOM      7  C   UNL     1      45.477   4.127  12.902  0.00  0.00    +0.000 A 
ATOM      8  C   UNL     1      46.575   4.737  13.513  0.00  0.00    +0.000 A 
BRANCH   3  10
ATOM      9  N   UNL     1      47.859   7.527  15.038  0.00  0.00    +0.000 N 
ATOM     10  C   UNL     1      48.014   6.701  13.961  0.00  0.00    +0.000 C 
ATOM     11  O   UNL     1      49.127   6.445  13.523  0.00  0.00    +0.000 OA
ATOM     12  H   UNL     1      48.713   7.841  15.482  0.00  0.00    +0.000 HD
ATOM     13  H   UNL     1      47.006   7.563  15.579  0.00  0.00    +0.000 HD
ENDBRANCH   3  10
ENDBRANCH   1   6
BRANCH   1  14
ATOM     14  C   UNL     1      43.870   2.872  10.861  0.00  0.00    +0.000 C 
BRANCH  14  15
ATOM     15  C   UNL     1      44.693   3.044   9.609  0.00  0.00    +0.000 A 
ATOM     16  C   UNL     1      44.835   4.308   9.047  0.00  0.00    +0.000 A 
ATOM     17  N   UNL     1      45.600   4.580   7.965  0.00  0.00    +0.000 NA
ATOM     18  C   UNL     1      46.275   3.546   7.416  0.00  0.00    +0.000 A 
ATOM     19  C   UNL     1      46.227   2.247   7.898  0.00  0.00    +0.000 A 
ATOM     20  C   UNL     1      45.426   2.005   9.020  0.00  0.00    +0.000 A 
BRANCH  19  21
ATOM     21  C   UNL     1      47.014   1.157   7.241  0.00  0.00    +0.000 C 
ATOM     22  F   UNL     1      46.756   1.024   5.910  0.00  0.00    +0.000 F 
ATOM     23  F   UNL     1      48.358   1.346   7.341  0.00  0.00    +0.000 F 
ATOM     24  F   UNL     1      46.767  -0.066   7.787  0.00  0.00    +0.000 F 
ENDBRANCH  19  21
ENDBRANCH  14  15
ENDBRANCH   1  14
TORSDOF 5
ENDMDL
MODEL 5
REMARK VINA RESULT:    -7.265      3.778      6.355
REMARK INTER + INTRA:         -10.155
REMARK INTER:                  -9.471
REMARK INTRA:                  -0.685
REMARK UNBOUND:                -0.767
REMARK  Name = 
REMARK  5 active torsions:
REMARK  status: ('A' for Active; 'I' for Inactive)
REMARK    1  A    between atoms: C_2  and  C_4
REMARK    2  A    between atoms: C_7  and  N_8
REMARK    3  A    between atoms: N_8  and  C_9
REMARK    4  A    between atoms: C_9  and  C_10
REMARK    5  A    between atoms: C_14  and  C_15
REMARK                            x       y       z     vdW  Elec       q    Type
REMARK                         _______ _______ _______ _____ _____    ______ ____
ROOT
ATOM      1  N   UNL     1      44.645   5.870  10.326  0.00  0.00    +0.000 N 
ATOM      2  H   UNL     1      45.235   6.246   9.583  0.00  0.00    +0.000 HD
ENDROOT
BRANCH   1   6
ATOM      3  C   UNL     1      46.793   5.184  13.892  0.00  0.00    +0.000 A 
ATOM      4  C   UNL     1      47.340   6.027  12.919  0.00  0.00    +0.000 A 
ATOM      5  C   UNL     1      46.633   6.287  11.737  0.00  0.00    +0.000 A 
ATOM      6  C   UNL     1      45.389   5.690  11.499  0.00  0.00    +0.000 A 
ATOM      7  C   UNL     1      44.820   4.915  12.514  0.00  0.00    +0.000 A 
ATOM      8  C   UNL     1      45.523   4.639  13.690  0.00  0.00    +0.000 A 
BRANCH   3  10
ATOM      9  N   UNL     1      47.156   3.649  15.754  0.00  0.00    +0.000 N 
ATOM     10  C   UNL     1      47.539   4.795  15.118  0.00  0.00    +0.000 C 
ATOM     11  O   UNL     1      48.477   5.461  15.536  0.00  0.00    +0.000 OA
ATOM     12  H   UNL     1      47.737   3.358  16.530  0.00  0.00    +0.000 HD
ATOM     13  H   UNL     1      46.572   2.951  15.315  0.00  0.00    +0.000 HD
ENDBRANCH   3  10
ENDBRANCH   1   6
BRANCH   1  14
ATOM     14  C   UNL     1      43.819   4.761   9.863  0.00  0.00    +0.000 C 
BRANCH  14  15
ATOM     15  C   UNL     1      44.662   3.703   9.196  0.00  0.00    +0.000 A 
ATOM     16  C   UNL     1      44.641   2.399   9.680  0.00  0.00    +0.000 A 
ATOM     17  N   UNL     1      45.307   1.366   9.116  0.00  0.00    +0.000 NA
ATOM     18  C   UNL     1      46.025   1.633   8.002  0.00  0.00    +0.000 A 
ATOM     19  C   UNL     1      46.107   2.888   7.417  0.00  0.00    +0.000 A 
ATOM     20  C   UNL     1      45.401   3.932   8.028  0.00  0.00    +0.000 A 
BRANCH  19  21
ATOM     21  C   UNL     1      46.914   3.102   6.175  0.00  0.00    +0.000 C 
ATOM     22  F   UNL     1      46.404   2.475   5.078  0.00  0.00    +0.000 F 
ATOM     23  F   UNL     1      47.017   4.416   5.837  0.00  0.00    +0.000 F 
ATOM     24  F   UNL     1      48.192   2.647   6.299  0.00  0.00    +0.000 F 
ENDBRANCH  19  21
ENDBRANCH  14  15
ENDBRANCH   1  14
TORSDOF 5
ENDMDL
MODEL 6
REMARK VINA RESULT:    -7.124      3.552      5.947
REMARK INTER + INTRA:          -9.973
REMARK INTER:                  -9.139
REMARK INTRA:                  -0.834
REMARK UNBOUND:                -0.767
REMARK  Name = 
REMARK  5 active torsions:
REMARK  status: ('A' for Active; 'I' for Inactive)
REMARK    1  A    between atoms: C_2  and  C_4
REMARK    2  A    between atoms: C_7  and  N_8
REMARK    3  A    between atoms: N_8  and  C_9
REMARK    4  A    between atoms: C_9  and  C_10
REMARK    5  A    between atoms: C_14  and  C_15
REMARK                            x       y       z     vdW  Elec       q    Type
REMARK                         _______ _______ _______ _____ _____    ______ ____
ROOT
ATOM      1  N   UNL     1      43.891   6.203  12.565  0.00  0.00    +0.000 N 
ATOM      2  H   UNL     1      43.329   6.841  13.129  0.00  0.00    +0.000 HD
ENDROOT
BRANCH   1   6
ATOM      3  C   UNL     1      48.002   7.141  12.705  0.00  0.00    +0.000 A 
ATOM      4  C   UNL     1      47.106   8.085  12.195  0.00  0.00    +0.000 A 
ATOM      5  C   UNL     1      45.733   7.803  12.161  0.00  0.00    +0.000 A 
ATOM      6  C   UNL     1      45.242   6.570  12.607  0.00  0.00    +0.000 A 
ATOM      7  C   UNL     1      46.140   5.670  13.188  0.00  0.00    +0.000 A 
ATOM      8  C   UNL     1      47.512   5.936  13.214  0.00  0.00    +0.000 A 
BRANCH   3  10
ATOM      9  N   UNL     1      50.135   7.359  13.871  0.00  0.00    +0.000 N 
ATOM     10  C   UNL     1      49.474   7.344  12.676  0.00  0.00    +0.000 C 
ATOM     11  O   UNL     1      50.084   7.474  11.622  0.00  0.00    +0.000 OA
ATOM     12  H   UNL     1      51.145   7.406  13.819  0.00  0.00    +0.000 HD
ATOM     13  H   UNL     1      49.723   7.011  14.725  0.00  0.00    +0.000 HD
ENDBRANCH   3  10
ENDBRANCH   1   6
BRANCH   1  14
ATOM     14  C   UNL     1      43.291   5.951  11.260  0.00  0.00    +0.000 C 
BRANCH  14  15
ATOM     15  C   UNL     1      43.834   4.683  10.652  0.00  0.00    +0.000 A 
ATOM     16  C   UNL     1      43.396   3.451  11.124  0.00  0.00    +0.000 A 
ATOM     17  N   UNL     1      43.770   2.258  10.607  0.00  0.00    +0.000 NA
ATOM     18  C   UNL     1      44.617   2.286   9.553  0.00  0.00    +0.000 A 
ATOM     19  C   UNL     1      45.107   3.451   8.985  0.00  0.00    +0.000 A 
ATOM     20  C   UNL     1      44.695   4.666   9.546  0.00  0.00    +0.000 A 
BRANCH  19  21
ATOM     21  C   UNL     1      46.033   3.400   7.810  0.00  0.00    +0.000 C 
ATOM     22  F   UNL     1      45.391   3.303   6.613  0.00  0.00    +0.000 F 
ATOM     23  F   UNL     1      46.825   4.503   7.718  0.00  0.00    +0.000 F 
ATOM     24  F   UNL     1      46.881   2.335   7.860  0.00  0.00    +0.000 F 
ENDBRANCH  19  21
ENDBRANCH  14  15
ENDBRANCH   1  14
TORSDOF 5
ENDMDL
MODEL 7
REMARK VINA RESULT:    -6.492      4.097      6.616
REMARK INTER + INTRA:          -9.157
REMARK INTER:                  -8.553
REMARK INTRA:                  -0.604
REMARK UNBOUND:                -0.767
REMARK  Name = 
REMARK  5 active torsions:
REMARK  status: ('A' for Active; 'I' for Inactive)
REMARK    1  A    between atoms: C_2  and  C_4
REMARK    2  A    between atoms: C_7  and  N_8
REMARK    3  A    between atoms: N_8  and  C_9
REMARK    4  A    between atoms: C_9  and  C_10
REMARK    5  A    between atoms: C_14  and  C_15
REMARK                            x       y       z     vdW  Elec       q    Type
REMARK                         _______ _______ _______ _____ _____    ______ ____
ROOT
ATOM      1  N   UNL     1      44.851   5.789  11.392  0.00  0.00    +0.000 N 
ATOM      2  H   UNL     1      44.075   6.396  11.658  0.00  0.00    +0.000 HD
ENDROOT
BRANCH   1   6
ATOM      3  C   UNL     1      48.195   6.651  13.816  0.00  0.00    +0.000 A 
ATOM      4  C   UNL     1      47.390   5.552  14.132  0.00  0.00    +0.000 A 
ATOM      5  C   UNL     1      46.287   5.235  13.327  0.00  0.00    +0.000 A 
ATOM      6  C   UNL     1      45.959   6.021  12.216  0.00  0.00    +0.000 A 
ATOM      7  C   UNL     1      46.820   7.066  11.867  0.00  0.00    +0.000 A 
ATOM      8  C   UNL     1      47.913   7.400  12.671  0.00  0.00    +0.000 A 
BRANCH   3  10
ATOM      9  N   UNL     1      50.505   7.392  14.084  0.00  0.00    +0.000 N 
ATOM     10  C   UNL     1      49.316   7.093  14.687  0.00  0.00    +0.000 C 
ATOM     11  O   UNL     1      49.181   7.208  15.898  0.00  0.00    +0.000 OA
ATOM     12  H   UNL     1      51.221   7.779  14.686  0.00  0.00    +0.000 HD
ATOM     13  H   UNL     1      50.586   7.555  13.091  0.00  0.00    +0.000 HD
ENDBRANCH   3  10
ENDBRANCH   1   6
BRANCH   1  14
ATOM     14  C   UNL     1      45.065   5.771   9.949  0.00  0.00    +0.000 C 
BRANCH  14  15
ATOM     15  C   UNL     1      45.213   4.358   9.444  0.00  0.00    +0.000 A 
ATOM     16  C   UNL     1      44.432   3.346   9.989  0.00  0.00    +0.000 A 
ATOM     17  N   UNL     1      44.441   2.062   9.565  0.00  0.00    +0.000 NA
ATOM     18  C   UNL     1      45.261   1.764   8.532  0.00  0.00    +0.000 A 
ATOM     19  C   UNL     1      46.073   2.690   7.896  0.00  0.00    +0.000 A 
ATOM     20  C   UNL     1      46.034   4.010   8.362  0.00  0.00    +0.000 A 
BRANCH  19  21
ATOM     21  C   UNL     1      46.946   2.285   6.750  0.00  0.00    +0.000 C 
ATOM     22  F   UNL     1      46.513   2.748   5.544  0.00  0.00    +0.000 F 
ATOM     23  F   UNL     1      48.225   2.731   6.881  0.00  0.00    +0.000 F 
ATOM     24  F   UNL     1      47.034   0.932   6.615  0.00  0.00    +0.000 F 
ENDBRANCH  19  21
ENDBRANCH  14  15
ENDBRANCH   1  14
TORSDOF 5
ENDMDL
MODEL 8
REMARK VINA RESULT:    -6.226      3.864      5.661
REMARK INTER + INTRA:          -8.813
REMARK INTER:                  -8.163
REMARK INTRA:                  -0.650
REMARK UNBOUND:                -0.767
REMARK  Name = 
REMARK  5 active torsions:
REMARK  status: ('A' for Active; 'I' for Inactive)
REMARK    1  A    between atoms: C_2  and  C_4
REMARK    2  A    between atoms: C_7  and  N_8
REMARK    3  A    between atoms: N_8  and  C_9
REMARK    4  A    between atoms: C_9  and  C_10
REMARK    5  A    between atoms: C_14  and  C_15
REMARK                            x       y       z     vdW  Elec       q    Type
REMARK                         _______ _______ _______ _____ _____    ______ ____
ROOT
ATOM      1  N   UNL     1      46.960   7.151  13.916  0.00  0.00    +0.000 N 
ATOM      2  H   UNL     1      46.388   7.189  14.760  0.00  0.00    +0.000 HD
ENDROOT
BRANCH   1   6
ATOM      3  C   UNL     1      44.979   4.722  11.091  0.00  0.00    +0.000 A 
ATOM      4  C   UNL     1      45.787   5.771  10.640  0.00  0.00    +0.000 A 
ATOM      5  C   UNL     1      46.472   6.576  11.561  0.00  0.00    +0.000 A 
ATOM      6  C   UNL     1      46.340   6.363  12.938  0.00  0.00    +0.000 A 
ATOM      7  C   UNL     1      45.594   5.262  13.370  0.00  0.00    +0.000 A 
ATOM      8  C   UNL     1      44.896   4.463  12.461  0.00  0.00    +0.000 A 
BRANCH   3  10
ATOM      9  N   UNL     1      44.072   4.301   8.865  0.00  0.00    +0.000 N 
ATOM     10  C   UNL     1      44.153   3.900  10.168  0.00  0.00    +0.000 C 
ATOM     11  O   UNL     1      43.581   2.887  10.549  0.00  0.00    +0.000 OA
ATOM     12  H   UNL     1      43.582   3.675   8.239  0.00  0.00    +0.000 HD
ATOM     13  H   UNL     1      44.715   4.966   8.459  0.00  0.00    +0.000 HD
ENDBRANCH   3  10
ENDBRANCH   1   6
BRANCH   1  14
ATOM     14  C   UNL     1      48.364   6.890  14.215  0.00  0.00    +0.000 C 
BRANCH  14  15
ATOM     15  C   UNL     1      48.523   6.320  15.602  0.00  0.00    +0.000 A 
ATOM     16  C   UNL     1      48.896   7.154  16.650  0.00  0.00    +0.000 A 
ATOM     17  N   UNL     1      49.004   6.758  17.939  0.00  0.00    +0.000 NA
ATOM     18  C   UNL     1      48.713   5.465  18.209  0.00  0.00    +0.000 A 
ATOM     19  C   UNL     1      48.312   4.546  17.252  0.00  0.00    +0.000 A 
ATOM     20  C   UNL     1      48.210   4.994  15.930  0.00  0.00    +0.000 A 
BRANCH  19  21
ATOM     21  C   UNL     1      47.995   3.134  17.632  0.00  0.00    +0.000 C 
ATOM     22  F   UNL     1      48.327   2.827  18.917  0.00  0.00    +0.000 F 
ATOM     23  F   UNL     1      46.671   2.842  17.512  0.00  0.00    +0.000 F 
ATOM     24  F   UNL     1      48.649   2.225  16.856  0.00  0.00    +0.000 F 
ENDBRANCH  19  21
ENDBRANCH  14  15
ENDBRANCH   1  14
TORSDOF 5
ENDMDL
MODEL 9
REMARK VINA RESULT:    -5.968      4.676      7.729
REMARK INTER + INTRA:          -8.479
REMARK INTER:                  -8.101
REMARK INTRA:                  -0.379
REMARK UNBOUND:                -0.767
REMARK  Name = 
REMARK  5 active torsions:
REMARK  status: ('A' for Active; 'I' for Inactive)
REMARK    1  A    between atoms: C_2  and  C_4
REMARK    2  A    between atoms: C_7  and  N_8
REMARK    3  A    between atoms: N_8  and  C_9
REMARK    4  A    between atoms: C_9  and  C_10
REMARK    5  A    between atoms: C_14  and  C_15
REMARK                            x       y       z     vdW  Elec       q    Type
REMARK                         _______ _______ _______ _____ _____    ______ ____
ROOT
ATOM      1  N   UNL     1      46.434   4.392  15.005  0.00  0.00    +0.000 N 
ATOM      2  H   UNL     1      45.583   4.637  15.512  0.00  0.00    +0.000 HD
ENDROOT
BRANCH   1   6
ATOM      3  C   UNL     1      49.762   4.178  17.589  0.00  0.00    +0.000 A 
ATOM      4  C   UNL     1      49.394   5.416  17.055  0.00  0.00    +0.000 A 
ATOM      5  C   UNL     1      48.278   5.514  16.212  0.00  0.00    +0.000 A 
ATOM      6  C   UNL     1      47.534   4.378  15.872  0.00  0.00    +0.000 A 
ATOM      7  C   UNL     1      47.866   3.162  16.477  0.00  0.00    +0.000 A 
ATOM      8  C   UNL     1      48.985   3.052  17.307  0.00  0.00    +0.000 A 
BRANCH   3  10
ATOM      9  N   UNL     1      50.931   4.350  19.724  0.00  0.00    +0.000 N 
ATOM     10  C   UNL     1      50.991   3.998  18.406  0.00  0.00    +0.000 C 
ATOM     11  O   UNL     1      52.017   3.532  17.928  0.00  0.00    +0.000 OA
ATOM     12  H   UNL     1      51.749   4.131  20.279  0.00  0.00    +0.000 HD
ATOM     13  H   UNL     1      50.057   4.493  20.211  0.00  0.00    +0.000 HD
ENDBRANCH   3  10
ENDBRANCH   1   6
BRANCH   1  14
ATOM     14  C   UNL     1      46.559   5.129  13.753  0.00  0.00    +0.000 C 
BRANCH  14  15
ATOM     15  C   UNL     1      45.404   4.829  12.832  0.00  0.00    +0.000 A 
ATOM     16  C   UNL     1      44.105   5.106  13.244  0.00  0.00    +0.000 A 
ATOM     17  N   UNL     1      43.007   4.934  12.472  0.00  0.00    +0.000 NA
ATOM     18  C   UNL     1      43.206   4.475  11.216  0.00  0.00    +0.000 A 
ATOM     19  C   UNL     1      44.454   4.181  10.688  0.00  0.00    +0.000 A 
ATOM     20  C   UNL     1      45.566   4.374  11.516  0.00  0.00    +0.000 A 
BRANCH  19  21
ATOM     21  C   UNL     1      44.593   3.687   9.283  0.00  0.00    +0.000 C 
ATOM     22  F   UNL     1      43.882   4.413   8.376  0.00  0.00    +0.000 F 
ATOM     23  F   UNL     1      45.882   3.707   8.845  0.00  0.00    +0.000 F 
ATOM     24  F   UNL     1      44.170   2.401   9.138  0.00  0.00    +0.000 F 
ENDBRANCH  19  21
ENDBRANCH  14  15
ENDBRANCH   1  14
TORSDOF 5
ENDMDL
