MODEL 1
REMARK VINA RESULT:    -7.619      0.000      0.000
REMARK INTER + INTRA:         -10.167
REMARK INTER:                  -9.624
REMARK INTRA:                  -0.543
REMARK UNBOUND:                -0.543
REMARK  Name = 
REMARK  5 active torsions:
REMARK  status: ('A' for Active; 'I' for Inactive)
REMARK    1  A    between atoms: N_1  and  C_2
REMARK    2  A    between atoms: C_2  and  C_3
REMARK    3  A    between atoms: C_3  and  C_4
REMARK    4  A    between atoms: C_7  and  C_8
REMARK    5  A    between atoms: C_8  and  N_9
REMARK                            x       y       z     vdW  Elec       q    Type
REMARK                         _______ _______ _______ _____ _____    ______ ____
ROOT
ATOM      1  C   UNL     1      45.843   3.207   7.750  0.00  0.00    +0.000 A 
ATOM      2  C   UNL     1      45.587   2.055   8.491  0.00  0.00    +0.000 A 
ATOM      3  C   UNL     1      44.736   2.134   9.592  0.00  0.00    +0.000 A 
ATOM      4  C   UNL     1      44.168   3.359   9.940  0.00  0.00    +0.000 A 
ATOM      5  C   UNL     1      44.446   4.442   9.117  0.00  0.00    +0.000 A 
ATOM      6  N   UNL     1      45.268   4.392   8.042  0.00  0.00    +0.000 NA
ENDROOT
BRANCH   1   7
ATOM      7  C   UNL     1      46.844   3.186   6.620  0.00  0.00    +0.000 C 
BRANCH   7   8
ATOM      8  C   UNL     1      47.882   2.076   6.828  0.00  0.00    +0.000 C 
BRANCH   8   9
ATOM      9  N   UNL     1      48.594   1.766   5.585  0.00  0.00    +0.000 NA
ATOM     10  H   UNL     1      49.527   1.424   5.813  0.00  0.00    +0.000 HD
ATOM     11  H   UNL     1      48.736   2.628   5.057  0.00  0.00    +0.000 HD
ENDBRANCH   8   9
ENDBRANCH   7   8
ENDBRANCH   1   7
BRANCH   4  12
ATOM     12  C   UNL     1      43.430   3.549  11.231  0.00  0.00    +0.000 C 
BRANCH  12  13
ATOM     13  N   UNL     1      43.921   4.615  12.102  0.00  0.00    +0.000 N 
ATOM     14  C   UNL     1      43.510   5.924  11.991  0.00  0.00    +0.000 A 
ATOM     15  C   UNL     1      44.575   6.727  12.336  0.00  0.00    +0.000 A 
ATOM     16  C   UNL     1      45.626   5.884  12.785  0.00  0.00    +0.000 A 
ATOM     17  C   UNL     1      46.941   6.106  13.213  0.00  0.00    +0.000 A 
ATOM     18  N   UNL     1      47.705   5.079  13.662  0.00  0.00    +0.000 NA
ATOM     19  C   UNL     1      47.172   3.839  13.695  0.00  0.00    +0.000 A 
ATOM     20  C   UNL     1      45.901   3.506  13.243  0.00  0.00    +0.000 A 
ATOM     21  C   UNL     1      45.142   4.571  12.754  0.00  0.00    +0.000 A 
ENDBRANCH  12  13
ENDBRANCH   4  12
TORSDOF 5
ENDMDL
MODEL 2
REMARK VINA RESULT:    -7.222      1.084      1.487
REMARK INTER + INTRA:          -9.665
REMARK INTER:                  -9.208
REMARK INTRA:                  -0.457
REMARK UNBOUND:                -0.543
REMARK  Name = 
REMARK  5 active torsions:
REMARK  status: ('A' for Active; 'I' for Inactive)
REMARK    1  A    between atoms: N_1  and  C_2
REMARK    2  A    between atoms: C_2  and  C_3
REMARK    3  A    between atoms: C_3  and  C_4
REMARK    4  A    between atoms: C_7  and  C_8
REMARK    5  A    between atoms: C_8  and  N_9
REMARK                            x       y       z     vdW  Elec       q    Type
REMARK                         _______ _______ _______ _____ _____    ______ ____
ROOT
ATOM      1  C   UNL     1      45.859   3.254   7.789  0.00  0.00    +0.000 A 
ATOM      2  C   UNL     1      46.121   4.583   8.114  0.00  0.00    +0.000 A 
ATOM      3  C   UNL     1      45.538   5.127   9.258  0.00  0.00    +0.000 A 
ATOM      4  C   UNL     1      44.697   4.342  10.045  0.00  0.00    +0.000 A 
ATOM      5  C   UNL     1      44.529   3.017   9.666  0.00  0.00    +0.000 A 
ATOM      6  N   UNL     1      45.085   2.464   8.562  0.00  0.00    +0.000 NA
ENDROOT
BRANCH   1   7
ATOM      7  C   UNL     1      46.382   2.662   6.502  0.00  0.00    +0.000 C 
BRANCH   7   8
ATOM      8  C   UNL     1      47.534   1.688   6.776  0.00  0.00    +0.000 C 
BRANCH   8   9
ATOM      9  N   UNL     1      48.569   1.774   5.741  0.00  0.00    +0.000 NA
ATOM     10  H   UNL     1      48.739   0.842   5.363  0.00  0.00    +0.000 HD
ATOM     11  H   UNL     1      49.449   2.064   6.171  0.00  0.00    +0.000 HD
ENDBRANCH   8   9
ENDBRANCH   7   8
ENDBRANCH   1   7
BRANCH   4  12
ATOM     12  C   UNL     1      43.873   4.931  11.151  0.00  0.00    +0.000 C 
BRANCH  12  13
ATOM     13  N   UNL     1      44.524   5.957  11.962  0.00  0.00    +0.000 N 
ATOM     14  C   UNL     1      44.618   7.275  11.575  0.00  0.00    +0.000 A 
ATOM     15  C   UNL     1      45.807   7.771  12.062  0.00  0.00    +0.000 A 
ATOM     16  C   UNL     1      46.398   6.763  12.870  0.00  0.00    +0.000 A 
ATOM     17  C   UNL     1      47.602   6.661  13.579  0.00  0.00    +0.000 A 
ATOM     18  N   UNL     1      47.866   5.570  14.339  0.00  0.00    +0.000 NA
ATOM     19  C   UNL     1      46.944   4.587  14.407  0.00  0.00    +0.000 A 
ATOM     20  C   UNL     1      45.747   4.568  13.703  0.00  0.00    +0.000 A 
ATOM     21  C   UNL     1      45.509   5.684  12.899  0.00  0.00    +0.000 A 
ENDBRANCH  12  13
ENDBRANCH   4  12
TORSDOF 5
ENDMDL
MODEL 3
REMARK VINA RESULT:    -6.451      1.813      6.354
REMARK INTER + INTRA:          -8.692
REMARK INTER:                  -8.763
REMARK INTRA:                   0.071
REMARK UNBOUND:                -0.543
REMARK  Name = 
REMARK  5 active torsions:
REMARK  status: ('A' for Active; 'I' for Inactive)
REMARK    1  A    between atoms: N_1  and  C_2
REMARK    2  A    between atoms: C_2  and  C_3
REMARK    3  A    between atoms: C_3  and  C_4
REMARK    4  A    between atoms: C_7  and  C_8
REMARK    5  A    between atoms: C_8  and  N_9
REMARK                            x       y       z     vdW  Elec       q    Type
REMARK                         _______ _______ _______ _____ _____    ______ ____
ROOT
ATOM      1  C   UNL     1      47.009   4.658  14.395  0.00  0.00    +0.000 A 
ATOM      2  C   UNL     1      47.507   5.724  13.648  0.00  0.00    +0.000 A 
ATOM      3  C   UNL     1      46.827   6.123  12.500  0.00  0.00    +0.000 A 
ATOM      4  C   UNL     1      45.673   5.445  12.109  0.00  0.00    +0.000 A 
ATOM      5  C   UNL     1      45.227   4.424  12.938  0.00  0.00    +0.000 A 
ATOM      6  N   UNL     1      45.868   4.018  14.059  0.00  0.00    +0.000 NA
ENDROOT
BRANCH   1   7
ATOM      7  C   UNL     1      47.775   4.126  15.581  0.00  0.00    +0.000 C 
BRANCH   7   8
ATOM      8  C   UNL     1      46.988   4.334  16.880  0.00  0.00    +0.000 C 
BRANCH   8   9
ATOM      9  N   UNL     1      46.614   3.056  17.493  0.00  0.00    +0.000 NA
ATOM     10  H   UNL     1      46.748   3.120  18.503  0.00  0.00    +0.000 HD
ATOM     11  H   UNL     1      47.258   2.331  17.174  0.00  0.00    +0.000 HD
ENDBRANCH   8   9
ENDBRANCH   7   8
ENDBRANCH   1   7
BRANCH   4  12
ATOM     12  C   UNL     1      45.030   5.683  10.775  0.00  0.00    +0.000 C 
BRANCH  12  13
ATOM     13  N   UNL     1      44.601   4.491  10.047  0.00  0.00    +0.000 N 
ATOM     14  C   UNL     1      43.769   3.538  10.588  0.00  0.00    +0.000 A 
ATOM     15  C   UNL     1      44.134   2.317  10.066  0.00  0.00    +0.000 A 
ATOM     16  C   UNL     1      45.138   2.547   9.088  0.00  0.00    +0.000 A 
ATOM     17  C   UNL     1      45.913   1.716   8.269  0.00  0.00    +0.000 A 
ATOM     18  N   UNL     1      46.764   2.244   7.356  0.00  0.00    +0.000 NA
ATOM     19  C   UNL     1      46.846   3.587   7.245  0.00  0.00    +0.000 A 
ATOM     20  C   UNL     1      46.164   4.495   8.043  0.00  0.00    +0.000 A 
ATOM     21  C   UNL     1      45.317   3.932   9.000  0.00  0.00    +0.000 A 
ENDBRANCH  12  13
ENDBRANCH   4  12
TORSDOF 5
ENDMDL
MODEL 4
REMARK VINA RESULT:    -6.176      1.572      5.948
REMARK INTER + INTRA:          -8.344
REMARK INTER:                  -7.499
REMARK INTRA:                  -0.845
REMARK UNBOUND:                -0.543
REMARK  Name = 
REMARK  5 active torsions:
REMARK  status: ('A' for Active; 'I' for Inactive)
REMARK    1  A    between atoms: N_1  and  C_2
REMARK    2  A    between atoms: C_2  and  C_3
REMARK    3  A    between atoms: C_3  and  C_4
REMARK    4  A    between atoms: C_7  and  C_8
REMARK    5  A    between atoms: C_8  and  N_9
REMARK                            x       y       z     vdW  Elec       q    Type
REMARK                         _______ _______ _______ _____ _____    ______ ____
ROOT
ATOM      1  C   UNL     1      46.523   5.828  12.599  0.00  0.00    +0.000 A 
ATOM      2  C   UNL     1      45.793   4.648  12.721  0.00  0.00    +0.000 A 
ATOM      3  C   UNL     1      45.143   4.134  11.600  0.00  0.00    +0.000 A 
ATOM      4  C   UNL     1      45.221   4.814  10.385  0.00  0.00    +0.000 A 
ATOM      5  C   UNL     1      46.005   5.959  10.348  0.00  0.00    +0.000 A 
ATOM      6  N   UNL     1      46.649   6.477  11.421  0.00  0.00    +0.000 NA
ENDROOT
BRANCH   1   7
ATOM      7  C   UNL     1      47.149   6.473  13.811  0.00  0.00    +0.000 C 
BRANCH   7   8
ATOM      8  C   UNL     1      48.324   7.373  13.408  0.00  0.00    +0.000 C 
BRANCH   8   9
ATOM      9  N   UNL     1      49.409   6.600  12.798  0.00  0.00    +0.000 NA
ATOM     10  H   UNL     1      50.088   6.354  13.518  0.00  0.00    +0.000 HD
ATOM     11  H   UNL     1      49.910   7.193  12.135  0.00  0.00    +0.000 HD
ENDBRANCH   8   9
ENDBRANCH   7   8
ENDBRANCH   1   7
BRANCH   4  12
ATOM     12  C   UNL     1      44.367   4.434   9.212  0.00  0.00    +0.000 C 
BRANCH  12  13
ATOM     13  N   UNL     1      44.687   3.161   8.570  0.00  0.00    +0.000 N 
ATOM     14  C   UNL     1      44.261   1.946   9.057  0.00  0.00    +0.000 A 
ATOM     15  C   UNL     1      45.236   1.015   8.771  0.00  0.00    +0.000 A 
ATOM     16  C   UNL     1      46.229   1.656   7.983  0.00  0.00    +0.000 A 
ATOM     17  C   UNL     1      47.455   1.253   7.439  0.00  0.00    +0.000 A 
ATOM     18  N   UNL     1      48.169   2.090   6.647  0.00  0.00    +0.000 NA
ATOM     19  C   UNL     1      47.673   3.318   6.386  0.00  0.00    +0.000 A 
ATOM     20  C   UNL     1      46.498   3.832   6.918  0.00  0.00    +0.000 A 
ATOM     21  C   UNL     1      45.793   2.967   7.758  0.00  0.00    +0.000 A 
ENDBRANCH  12  13
ENDBRANCH   4  12
TORSDOF 5
ENDMDL
MODEL 5
REMARK VINA RESULT:    -6.064      1.785      6.178
REMARK INTER + INTRA:          -8.203
REMARK INTER:                  -7.490
REMARK INTRA:                  -0.713
REMARK UNBOUND:                -0.543
REMARK  Name = 
REMARK  5 active torsions:
REMARK  status: ('A' for Active; 'I' for Inactive)
REMARK    1  A    between atoms: N_1  and  C_2
REMARK    2  A    between atoms: C_2  and  C_3
REMARK    3  A    between atoms: C_3  and  C_4
REMARK    4  A    between atoms: C_7  and  C_8
REMARK    5  A    between atoms: C_8  and  N_9
REMARK                            x       y       z     vdW  Elec       q    Type
REMARK                         _______ _______ _______ _____ _____    ______ ____
ROOT
ATOM      1  C   UNL     1      47.668   6.592  13.858  0.00  0.00    +0.000 A 
ATOM      2  C   UNL     1      46.885   5.444  13.963  0.00  0.00    +0.000 A 
ATOM      3  C   UNL     1      45.793   5.289  13.111  0.00  0.00    +0.000 A 
ATOM      4  C   UNL     1      45.494   6.285  12.183  0.00  0.00    +0.000 A 
ATOM      5  C   UNL     1      46.354   7.373  12.122  0.00  0.00    +0.000 A 
ATOM      6  N   UNL     1      47.423   7.547  12.936  0.00  0.00    +0.000 NA
ENDROOT
BRANCH   1   7
ATOM      7  C   UNL     1      48.791   6.848  14.834  0.00  0.00    +0.000 C 
BRANCH   7   8
ATOM      8  C   UNL     1      48.890   8.339  15.176  0.00  0.00    +0.000 C 
BRANCH   8   9
ATOM      9  N   UNL     1      47.576   8.906  15.494  0.00  0.00    +0.000 NA
ATOM     10  H   UNL     1      47.687   9.620  16.213  0.00  0.00    +0.000 HD
ATOM     11  H   UNL     1      46.991   8.181  15.912  0.00  0.00    +0.000 HD
ENDBRANCH   8   9
ENDBRANCH   7   8
ENDBRANCH   1   7
BRANCH   4  12
ATOM     12  C   UNL     1      44.214   6.278  11.401  0.00  0.00    +0.000 C 
BRANCH  12  13
ATOM     13  N   UNL     1      43.750   4.971  10.941  0.00  0.00    +0.000 N 
ATOM     14  C   UNL     1      43.027   4.108  11.733  0.00  0.00    +0.000 A 
ATOM     15  C   UNL     1      43.376   2.823  11.380  0.00  0.00    +0.000 A 
ATOM     16  C   UNL     1      44.246   2.903  10.260  0.00  0.00    +0.000 A 
ATOM     17  C   UNL     1      44.950   1.960   9.502  0.00  0.00    +0.000 A 
ATOM     18  N   UNL     1      45.665   2.341   8.414  0.00  0.00    +0.000 NA
ATOM     19  C   UNL     1      45.678   3.647   8.071  0.00  0.00    +0.000 A 
ATOM     20  C   UNL     1      45.060   4.664   8.786  0.00  0.00    +0.000 A 
ATOM     21  C   UNL     1      44.358   4.256   9.921  0.00  0.00    +0.000 A 
ENDBRANCH  12  13
ENDBRANCH   4  12
TORSDOF 5
ENDMDL
MODEL 6
REMARK VINA RESULT:    -5.781      2.405      3.499
REMARK INTER + INTRA:          -7.845
REMARK INTER:                  -7.283
REMARK INTRA:                  -0.562
REMARK UNBOUND:                -0.543
REMARK  Name = 
REMARK  5 active torsions:
REMARK  status: ('A' for Active; 'I' for Inactive)
REMARK    1  A    between atoms: N_1  and  C_2
REMARK    2  A    between atoms: C_2  and  C_3
REMARK    3  A    between atoms: C_3  and  C_4
REMARK    4  A    between atoms: C_7  and  C_8
REMARK    5  A    between atoms: C_8  and  N_9
REMARK                            x       y       z     vdW  Elec       q    Type
REMARK                         _______ _______ _______ _____ _____    ______ ____
ROOT
ATOM      1  C   UNL     1      44.966   4.177   9.389  0.00  0.00    +0.000 A 
ATOM      2  C   UNL     1      44.482   3.582  10.553  0.00  0.00    +0.000 A 
ATOM      3  C   UNL     1      44.769   4.170  11.783  0.00  0.00    +0.000 A 
ATOM      4  C   UNL     1      45.543   5.328  11.832  0.00  0.00    +0.000 A 
ATOM      5  C   UNL     1      45.945   5.874  10.620  0.00  0.00    +0.000 A 
ATOM      6  N   UNL     1      45.678   5.324   9.412  0.00  0.00    +0.000 NA
ENDROOT
BRANCH   1   7
ATOM      7  C   UNL     1      44.771   3.513   8.048  0.00  0.00    +0.000 C 
BRANCH   7   8
ATOM      8  C   UNL     1      46.114   3.067   7.457  0.00  0.00    +0.000 C 
BRANCH   8   9
ATOM      9  N   UNL     1      46.853   4.198   6.889  0.00  0.00    +0.000 NA
ATOM     10  H   UNL     1      47.830   3.929   6.769  0.00  0.00    +0.000 HD
ATOM     11  H   UNL     1      46.858   4.966   7.562  0.00  0.00    +0.000 HD
ENDBRANCH   8   9
ENDBRANCH   7   8
ENDBRANCH   1   7
BRANCH   4  12
ATOM     12  C   UNL     1      46.067   5.875  13.127  0.00  0.00    +0.000 C 
BRANCH  12  13
ATOM     13  N   UNL     1      46.454   7.284  13.121  0.00  0.00    +0.000 N 
ATOM     14  C   UNL     1      45.557   8.309  12.925  0.00  0.00    +0.000 A 
ATOM     15  C   UNL     1      46.214   9.317  12.254  0.00  0.00    +0.000 A 
ATOM     16  C   UNL     1      47.581   8.946  12.144  0.00  0.00    +0.000 A 
ATOM     17  C   UNL     1      48.704   9.524  11.540  0.00  0.00    +0.000 A 
ATOM     18  N   UNL     1      49.928   8.954  11.668  0.00  0.00    +0.000 NA
ATOM     19  C   UNL     1      50.045   7.822  12.393  0.00  0.00    +0.000 A 
ATOM     20  C   UNL     1      48.988   7.142  12.984  0.00  0.00    +0.000 A 
ATOM     21  C   UNL     1      47.731   7.727  12.814  0.00  0.00    +0.000 A 
ENDBRANCH  12  13
ENDBRANCH   4  12
TORSDOF 5
ENDMDL
MODEL 7
REMARK VINA RESULT:    -5.697      3.742      7.585
REMARK INTER + INTRA:          -7.739
REMARK INTER:                  -7.114
REMARK INTRA:                  -0.625
REMARK UNBOUND:                -0.543
REMARK  Name = 
REMARK  5 active torsions:
REMARK  status: ('A' for Active; 'I' for Inactive)
REMARK    1  A    between atoms: N_1  and  C_2
REMARK    2  A    between atoms: C_2  and  C_3
REMARK    3  A    between atoms: C_3  and  C_4
REMARK    4  A    between atoms: C_7  and  C_8
REMARK    5  A    between atoms: C_8  and  N_9
REMARK                            x       y       z     vdW  Elec       q    Type
REMARK                         _______ _______ _______ _____ _____    ______ ____
ROOT
ATOM      1  C   UNL     1      50.451   3.013  17.422  0.00  0.00    +0.000 A 
ATOM      2  C   UNL     1      49.941   4.270  17.741  0.00  0.00    +0.000 A 
ATOM      3  C   UNL     1      48.712   4.656  17.210  0.00  0.00    +0.000 A 
ATOM      4  C   UNL     1      48.022   3.790  16.362  0.00  0.00    +0.000 A 
ATOM      5  C   UNL     1      48.587   2.542  16.136  0.00  0.00    +0.000 A 
ATOM      6  N   UNL     1      49.778   2.142  16.641  0.00  0.00    +0.000 NA
ENDROOT
BRANCH   1   7
ATOM      7  C   UNL     1      51.827   2.602  17.887  0.00  0.00    +0.000 C 
BRANCH   7   8
ATOM      8  C   UNL     1      52.179   1.197  17.384  0.00  0.00    +0.000 C 
BRANCH   8   9
ATOM      9  N   UNL     1      51.555   0.159  18.210  0.00  0.00    +0.000 NA
ATOM     10  H   UNL     1      51.599  -0.731  17.714  0.00  0.00    +0.000 HD
ATOM     11  H   UNL     1      50.561   0.367  18.315  0.00  0.00    +0.000 HD
ENDBRANCH   8   9
ENDBRANCH   7   8
ENDBRANCH   1   7
BRANCH   4  12
ATOM     12  C   UNL     1      46.815   4.234  15.591  0.00  0.00    +0.000 C 
BRANCH  12  13
ATOM     13  N   UNL     1      47.071   4.812  14.273  0.00  0.00    +0.000 N 
ATOM     14  C   UNL     1      47.654   6.046  14.094  0.00  0.00    +0.000 A 
ATOM     15  C   UNL     1      47.110   6.605  12.959  0.00  0.00    +0.000 A 
ATOM     16  C   UNL     1      46.260   5.636  12.363  0.00  0.00    +0.000 A 
ATOM     17  C   UNL     1      45.416   5.632  11.245  0.00  0.00    +0.000 A 
ATOM     18  N   UNL     1      44.767   4.502  10.873  0.00  0.00    +0.000 NA
ATOM     19  C   UNL     1      44.954   3.377  11.596  0.00  0.00    +0.000 A 
ATOM     20  C   UNL     1      45.724   3.290  12.748  0.00  0.00    +0.000 A 
ATOM     21  C   UNL     1      46.358   4.473  13.135  0.00  0.00    +0.000 A 
ENDBRANCH  12  13
ENDBRANCH   4  12
TORSDOF 5
ENDMDL
MODEL 8
REMARK VINA RESULT:    -5.490      2.995      6.812
REMARK INTER + INTRA:          -7.478
REMARK INTER:                  -6.723
REMARK INTRA:                  -0.755
REMARK UNBOUND:                -0.543
REMARK  Name = 
REMARK  5 active torsions:
REMARK  status: ('A' for Active; 'I' for Inactive)
REMARK    1  A    between atoms: N_1  and  C_2
REMARK    2  A    between atoms: C_2  and  C_3
REMARK    3  A    between atoms: C_3  and  C_4
REMARK    4  A    between atoms: C_7  and  C_8
REMARK    5  A    between atoms: C_8  and  N_9
REMARK                            x       y       z     vdW  Elec       q    Type
REMARK                         _______ _______ _______ _____ _____    ______ ____
ROOT
ATOM      1  C   UNL     1      48.275   5.582  15.864  0.00  0.00    +0.000 A 
ATOM      2  C   UNL     1      48.728   6.769  15.294  0.00  0.00    +0.000 A 
ATOM      3  C   UNL     1      48.352   7.081  13.989  0.00  0.00    +0.000 A 
ATOM      4  C   UNL     1      47.544   6.199  13.273  0.00  0.00    +0.000 A 
ATOM      5  C   UNL     1      47.106   5.061  13.937  0.00  0.00    +0.000 A 
ATOM      6  N   UNL     1      47.455   4.736  15.205  0.00  0.00    +0.000 NA
ENDROOT
BRANCH   1   7
ATOM      7  C   UNL     1      48.749   5.156  17.232  0.00  0.00    +0.000 C 
BRANCH   7   8
ATOM      8  C   UNL     1      47.677   4.327  17.950  0.00  0.00    +0.000 C 
BRANCH   8   9
ATOM      9  N   UNL     1      46.569   5.167  18.416  0.00  0.00    +0.000 NA
ATOM     10  H   UNL     1      46.753   5.457  19.376  0.00  0.00    +0.000 HD
ATOM     11  H   UNL     1      45.717   4.605  18.455  0.00  0.00    +0.000 HD
ENDBRANCH   8   9
ENDBRANCH   7   8
ENDBRANCH   1   7
BRANCH   4  12
ATOM     12  C   UNL     1      47.293   6.371  11.805  0.00  0.00    +0.000 C 
BRANCH  12  13
ATOM     13  N   UNL     1      45.895   6.504  11.403  0.00  0.00    +0.000 N 
ATOM     14  C   UNL     1      45.134   7.616  11.686  0.00  0.00    +0.000 A 
ATOM     15  C   UNL     1      43.837   7.196  11.883  0.00  0.00    +0.000 A 
ATOM     16  C   UNL     1      43.782   5.806  11.593  0.00  0.00    +0.000 A 
ATOM     17  C   UNL     1      42.775   4.835  11.653  0.00  0.00    +0.000 A 
ATOM     18  N   UNL     1      43.011   3.568  11.232  0.00  0.00    +0.000 NA
ATOM     19  C   UNL     1      44.233   3.261  10.747  0.00  0.00    +0.000 A 
ATOM     20  C   UNL     1      45.311   4.134  10.696  0.00  0.00    +0.000 A 
ATOM     21  C   UNL     1      45.059   5.425  11.165  0.00  0.00    +0.000 A 
ENDBRANCH  12  13
ENDBRANCH   4  12
TORSDOF 5
ENDMDL
MODEL 9
REMARK VINA RESULT:    -5.277      3.921      6.079
REMARK INTER + INTRA:          -7.209
REMARK INTER:                  -6.374
REMARK INTRA:                  -0.835
REMARK UNBOUND:                -0.543
REMARK  Name = 
REMARK  5 active torsions:
REMARK  status: ('A' for Active; 'I' for Inactive)
REMARK    1  A    between atoms: N_1  and  C_2
REMARK    2  A    between atoms: C_2  and  C_3
REMARK    3  A    between atoms: C_3  and  C_4
REMARK    4  A    between atoms: C_7  and  C_8
REMARK    5  A    between atoms: C_8  and  N_9
REMARK                            x       y       z     vdW  Elec       q    Type
REMARK                         _______ _______ _______ _____ _____    ______ ____
ROOT
ATOM      1  C   UNL     1      44.732   6.683  11.872  0.00  0.00    +0.000 A 
ATOM      2  C   UNL     1      45.237   7.854  12.433  0.00  0.00    +0.000 A 
ATOM      3  C   UNL     1      46.501   7.834  13.018  0.00  0.00    +0.000 A 
ATOM      4  C   UNL     1      47.231   6.646  13.046  0.00  0.00    +0.000 A 
ATOM      5  C   UNL     1      46.666   5.541  12.424  0.00  0.00    +0.000 A 
ATOM      6  N   UNL     1      45.441   5.535  11.847  0.00  0.00    +0.000 NA
ENDROOT
BRANCH   1   7
ATOM      7  C   UNL     1      43.325   6.637  11.328  0.00  0.00    +0.000 C 
BRANCH   7   8
ATOM      8  C   UNL     1      42.562   5.428  11.883  0.00  0.00    +0.000 C 
BRANCH   8   9
ATOM      9  N   UNL     1      42.645   5.365  13.345  0.00  0.00    +0.000 NA
ATOM     10  H   UNL     1      42.249   6.219  13.738  0.00  0.00    +0.000 HD
ATOM     11  H   UNL     1      43.627   5.363  13.625  0.00  0.00    +0.000 HD
ENDBRANCH   8   9
ENDBRANCH   7   8
ENDBRANCH   1   7
BRANCH   4  12
ATOM     12  C   UNL     1      48.489   6.510  13.851  0.00  0.00    +0.000 C 
BRANCH  12  13
ATOM     13  N   UNL     1      48.331   6.556  15.303  0.00  0.00    +0.000 N 
ATOM     14  C   UNL     1      48.847   7.566  16.084  0.00  0.00    +0.000 A 
ATOM     15  C   UNL     1      49.202   7.017  17.296  0.00  0.00    +0.000 A 
ATOM     16  C   UNL     1      48.780   5.661  17.299  0.00  0.00    +0.000 A 
ATOM     17  C   UNL     1      48.897   4.603  18.210  0.00  0.00    +0.000 A 
ATOM     18  N   UNL     1      48.313   3.406  17.957  0.00  0.00    +0.000 NA
ATOM     19  C   UNL     1      47.611   3.254  16.815  0.00  0.00    +0.000 A 
ATOM     20  C   UNL     1      47.481   4.219  15.825  0.00  0.00    +0.000 A 
ATOM     21  C   UNL     1      48.117   5.434  16.088  0.00  0.00    +0.000 A 
ENDBRANCH  12  13
ENDBRANCH   4  12
TORSDOF 5
ENDMDL
