MODEL 1
REMARK VINA RESULT:    -8.660      0.000      0.000
REMARK INTER + INTRA:         -13.166
REMARK INTER:                 -12.203
REMARK INTRA:                  -0.962
REMARK UNBOUND:                -0.962
REMARK  Name = 
REMARK  8 active torsions:
REMARK  status: ('A' for Active; 'I' for Inactive)
REMARK    1  A    between atoms: C_1  and  C_2
REMARK    2  A    between atoms: C_2  and  N_3
REMARK    3  A    between atoms: C_2  and  C_16
REMARK    4  A    between atoms: C_4  and  C_6
REMARK    5  A    between atoms: C_19  and  C_20
REMARK    6  A    between atoms: C_20  and  O_21
REMARK    7  A    between atoms: O_21  and  C_22
REMARK    8  A    between atoms: C_22  and  C_23
REMARK                            x       y       z     vdW  Elec       q    Type
REMARK                         _______ _______ _______ _____ _____    ______ ____
ROOT
ATOM      1  C   UNL     1      47.822   8.261  12.938  0.00  0.00    +0.000 C 
ATOM      2  C   UNL     1      47.954   6.808  13.399  0.00  0.00    +0.000 C 
ENDROOT
BRANCH   2   3
ATOM      3  C   UNL     1      46.908   5.958  12.692  0.00  0.00    +0.000 A 
ATOM      4  C   UNL     1      46.357   6.429  11.490  0.00  0.00    +0.000 A 
ATOM      5  C   UNL     1      45.338   5.727  10.846  0.00  0.00    +0.000 A 
ATOM      6  C   UNL     1      44.852   4.530  11.381  0.00  0.00    +0.000 A 
ATOM      7  C   UNL     1      45.402   4.047  12.572  0.00  0.00    +0.000 A 
ATOM      8  C   UNL     1      46.408   4.761  13.228  0.00  0.00    +0.000 A 
BRANCH   6   9
ATOM      9  C   UNL     1      43.768   3.763  10.666  0.00  0.00    +0.000 C 
BRANCH   9  10
ATOM     10  O   UNL     1      44.305   2.858   9.699  0.00  0.00    +0.000 OA
BRANCH  10  11
ATOM     11  C   UNL     1      44.673   3.512   8.487  0.00  0.00    +0.000 C 
BRANCH  11  12
ATOM     12  C   UNL     1      45.834   2.784   7.871  0.00  0.00    +0.000 A 
ATOM     13  C   UNL     1      46.069   1.438   8.166  0.00  0.00    +0.000 A 
ATOM     14  C   UNL     1      47.138   0.802   7.556  0.00  0.00    +0.000 A 
ATOM     15  N   UNL     1      47.977   1.405   6.686  0.00  0.00    +0.000 NA
ATOM     16  C   UNL     1      47.739   2.711   6.428  0.00  0.00    +0.000 A 
ATOM     17  C   UNL     1      46.698   3.432   6.986  0.00  0.00    +0.000 A 
ENDBRANCH  11  12
ENDBRANCH  10  11
ENDBRANCH   9  10
ENDBRANCH   6   9
ENDBRANCH   2   3
BRANCH   2  18
ATOM     18  N   UNL     1      47.882   6.707  14.845  0.00  0.00    +0.000 N 
ATOM     19  C   UNL     1      48.999   6.735  15.640  0.00  0.00    +0.000 C 
ATOM     20  O   UNL     1      50.132   6.785  15.167  0.00  0.00    +0.000 OA
ATOM     21  H   UNL     1      46.973   6.583  15.275  0.00  0.00    +0.000 HD
BRANCH  19  22
ATOM     22  C   UNL     1      48.780   6.757  17.093  0.00  0.00    +0.000 A 
ATOM     23  C   UNL     1      48.533   7.971  17.723  0.00  0.00    +0.000 A 
ATOM     24  S   UNL     1      48.278   7.833  19.402  0.00  0.00    +0.000 S 
ATOM     25  C   UNL     1      48.535   6.152  19.359  0.00  0.00    +0.000 A 
ATOM     26  N   UNL     1      48.490   5.411  20.499  0.00  0.00    +0.000 NA
ATOM     27  C   UNL     1      48.740   4.156  20.330  0.00  0.00    +0.000 A 
ATOM     28  N   UNL     1      49.018   3.572  19.122  0.00  0.00    +0.000 N 
ATOM     29  C   UNL     1      49.003   4.268  17.939  0.00  0.00    +0.000 A 
ATOM     30  O   UNL     1      49.129   3.689  16.865  0.00  0.00    +0.000 OA
ATOM     31  C   UNL     1      48.777   5.696  18.075  0.00  0.00    +0.000 A 
ATOM     32  H   UNL     1      49.172   2.577  19.054  0.00  0.00    +0.000 HD
ENDBRANCH  19  22
ENDBRANCH   2  18
TORSDOF 7
ENDMDL
MODEL 2
REMARK VINA RESULT:    -8.365      1.604      2.538
REMARK INTER + INTRA:         -12.751
REMARK INTER:                 -11.502
REMARK INTRA:                  -1.249
REMARK UNBOUND:                -0.962
REMARK  Name = 
REMARK  8 active torsions:
REMARK  status: ('A' for Active; 'I' for Inactive)
REMARK    1  A    between atoms: C_1  and  C_2
REMARK    2  A    between atoms: C_2  and  N_3
REMARK    3  A    between atoms: C_2  and  C_16
REMARK    4  A    between atoms: C_4  and  C_6
REMARK    5  A    between atoms: C_19  and  C_20
REMARK    6  A    between atoms: C_20  and  O_21
REMARK    7  A    between atoms: O_21  and  C_22
REMARK    8  A    between atoms: C_22  and  C_23
REMARK                            x       y       z     vdW  Elec       q    Type
REMARK                         _______ _______ _______ _____ _____    ______ ____
ROOT
ATOM      1  C   UNL     1      48.805   7.580  13.510  0.00  0.00    +0.000 C 
ATOM      2  C   UNL     1      48.284   6.264  14.093  0.00  0.00    +0.000 C 
ENDROOT
BRANCH   2   3
ATOM      3  C   UNL     1      47.125   5.761  13.245  0.00  0.00    +0.000 A 
ATOM      4  C   UNL     1      46.492   4.563  13.612  0.00  0.00    +0.000 A 
ATOM      5  C   UNL     1      45.479   4.018  12.823  0.00  0.00    +0.000 A 
ATOM      6  C   UNL     1      45.065   4.663  11.653  0.00  0.00    +0.000 A 
ATOM      7  C   UNL     1      45.681   5.863  11.285  0.00  0.00    +0.000 A 
ATOM      8  C   UNL     1      46.710   6.398  12.065  0.00  0.00    +0.000 A 
BRANCH   6   9
ATOM      9  C   UNL     1      43.950   4.082  10.818  0.00  0.00    +0.000 C 
BRANCH   9  10
ATOM     10  O   UNL     1      44.434   3.119   9.880  0.00  0.00    +0.000 OA
BRANCH  10  11
ATOM     11  C   UNL     1      44.782   3.706   8.629  0.00  0.00    +0.000 C 
BRANCH  11  12
ATOM     12  C   UNL     1      45.856   2.878   7.982  0.00  0.00    +0.000 A 
ATOM     13  C   UNL     1      45.983   1.517   8.279  0.00  0.00    +0.000 A 
ATOM     14  C   UNL     1      46.973   0.789   7.640  0.00  0.00    +0.000 A 
ATOM     15  N   UNL     1      47.835   1.314   6.741  0.00  0.00    +0.000 NA
ATOM     16  C   UNL     1      47.703   2.634   6.483  0.00  0.00    +0.000 A 
ATOM     17  C   UNL     1      46.746   3.445   7.068  0.00  0.00    +0.000 A 
ENDBRANCH  11  12
ENDBRANCH  10  11
ENDBRANCH   9  10
ENDBRANCH   6   9
ENDBRANCH   2   3
BRANCH   2  18
ATOM     18  N   UNL     1      47.938   6.412  15.495  0.00  0.00    +0.000 N 
ATOM     19  C   UNL     1      48.766   5.993  16.505  0.00  0.00    +0.000 C 
ATOM     20  O   UNL     1      49.824   5.410  16.278  0.00  0.00    +0.000 OA
ATOM     21  H   UNL     1      47.038   6.814  15.729  0.00  0.00    +0.000 HD
BRANCH  19  22
ATOM     22  C   UNL     1      48.357   6.320  17.877  0.00  0.00    +0.000 A 
ATOM     23  C   UNL     1      48.235   5.298  18.811  0.00  0.00    +0.000 A 
ATOM     24  S   UNL     1      47.775   5.836  20.361  0.00  0.00    +0.000 S 
ATOM     25  C   UNL     1      47.677   7.449  19.833  0.00  0.00    +0.000 A 
ATOM     26  N   UNL     1      47.294   8.440  20.684  0.00  0.00    +0.000 NA
ATOM     27  C   UNL     1      47.226   9.611  20.145  0.00  0.00    +0.000 A 
ATOM     28  N   UNL     1      47.518   9.884  18.835  0.00  0.00    +0.000 N 
ATOM     29  C   UNL     1      47.976   8.930  17.961  0.00  0.00    +0.000 A 
ATOM     30  O   UNL     1      48.350   9.235  16.832  0.00  0.00    +0.000 OA
ATOM     31  C   UNL     1      48.024   7.582  18.499  0.00  0.00    +0.000 A 
ATOM     32  H   UNL     1      47.476  10.829  18.483  0.00  0.00    +0.000 HD
ENDBRANCH  19  22
ENDBRANCH   2  18
TORSDOF 7
ENDMDL
MODEL 3
REMARK VINA RESULT:    -7.680      3.544      8.334
REMARK INTER + INTRA:         -11.785
REMARK INTER:                 -10.257
REMARK INTRA:                  -1.528
REMARK UNBOUND:                -0.962
REMARK  Name = 
REMARK  8 active torsions:
REMARK  status: ('A' for Active; 'I' for Inactive)
REMARK    1  A    between atoms: C_1  and  C_2
REMARK    2  A    between atoms: C_2  and  N_3
REMARK    3  A    between atoms: C_2  and  C_16
REMARK    4  A    between atoms: C_4  and  C_6
REMARK    5  A    between atoms: C_19  and  C_20
REMARK    6  A    between atoms: C_20  and  O_21
REMARK    7  A    between atoms: O_21  and  C_22
REMARK    8  A    between atoms: C_22  and  C_23
REMARK                            x       y       z     vdW  Elec       q    Type
REMARK                         _______ _______ _______ _____ _____    ______ ____
ROOT
ATOM      1  C   UNL     1      49.517   8.232  11.388  0.00  0.00    +0.000 C 
ATOM      2  C   UNL     1      48.430   7.777  12.364  0.00  0.00    +0.000 C 
ENDROOT
BRANCH   2   3
ATOM      3  C   UNL     1      49.065   7.444  13.705  0.00  0.00    +0.000 A 
ATOM      4  C   UNL     1      48.275   6.832  14.691  0.00  0.00    +0.000 A 
ATOM      5  C   UNL     1      48.787   6.579  15.964  0.00  0.00    +0.000 A 
ATOM      6  C   UNL     1      50.106   6.922  16.281  0.00  0.00    +0.000 A 
ATOM      7  C   UNL     1      50.904   7.521  15.302  0.00  0.00    +0.000 A 
ATOM      8  C   UNL     1      50.384   7.793  14.034  0.00  0.00    +0.000 A 
BRANCH   6   9
ATOM      9  C   UNL     1      50.661   6.622  17.651  0.00  0.00    +0.000 C 
BRANCH   9  10
ATOM     10  O   UNL     1      49.665   6.085  18.524  0.00  0.00    +0.000 OA
BRANCH  10  11
ATOM     11  C   UNL     1      50.063   4.847  19.107  0.00  0.00    +0.000 C 
BRANCH  11  12
ATOM     12  C   UNL     1      49.828   3.742  18.116  0.00  0.00    +0.000 A 
ATOM     13  C   UNL     1      48.562   3.541  17.559  0.00  0.00    +0.000 A 
ATOM     14  C   UNL     1      48.399   2.525  16.631  0.00  0.00    +0.000 A 
ATOM     15  N   UNL     1      49.395   1.705  16.228  0.00  0.00    +0.000 NA
ATOM     16  C   UNL     1      50.606   1.908  16.794  0.00  0.00    +0.000 A 
ATOM     17  C   UNL     1      50.869   2.897  17.725  0.00  0.00    +0.000 A 
ENDBRANCH  11  12
ENDBRANCH  10  11
ENDBRANCH   9  10
ENDBRANCH   6   9
ENDBRANCH   2   3
BRANCH   2  18
ATOM     18  N   UNL     1      47.658   6.678  11.813  0.00  0.00    +0.000 N 
ATOM     19  C   UNL     1      46.305   6.763  11.604  0.00  0.00    +0.000 C 
ATOM     20  O   UNL     1      45.658   7.756  11.928  0.00  0.00    +0.000 OA
ATOM     21  H   UNL     1      48.136   5.810  11.606  0.00  0.00    +0.000 HD
BRANCH  19  22
ATOM     22  C   UNL     1      45.666   5.630  10.920  0.00  0.00    +0.000 A 
ATOM     23  C   UNL     1      45.736   5.546   9.535  0.00  0.00    +0.000 A 
ATOM     24  S   UNL     1      44.969   4.169   8.891  0.00  0.00    +0.000 S 
ATOM     25  C   UNL     1      44.473   3.655  10.435  0.00  0.00    +0.000 A 
ATOM     26  N   UNL     1      43.728   2.527  10.588  0.00  0.00    +0.000 NA
ATOM     27  C   UNL     1      43.389   2.272  11.807  0.00  0.00    +0.000 A 
ATOM     28  N   UNL     1      43.738   3.037  12.889  0.00  0.00    +0.000 N 
ATOM     29  C   UNL     1      44.546   4.142  12.789  0.00  0.00    +0.000 A 
ATOM     30  O   UNL     1      44.942   4.726  13.792  0.00  0.00    +0.000 OA
ATOM     31  C   UNL     1      44.917   4.505  11.433  0.00  0.00    +0.000 A 
ATOM     32  H   UNL     1      43.467   2.764  13.822  0.00  0.00    +0.000 HD
ENDBRANCH  19  22
ENDBRANCH   2  18
TORSDOF 7
ENDMDL
MODEL 4
REMARK VINA RESULT:    -7.652      2.652      4.436
REMARK INTER + INTRA:         -11.746
REMARK INTER:                 -10.366
REMARK INTRA:                  -1.379
REMARK UNBOUND:                -0.962
REMARK  Name = 
REMARK  8 active torsions:
REMARK  status: ('A' for Active; 'I' for Inactive)
REMARK    1  A    between atoms: C_1  and  C_2
REMARK    2  A    between atoms: C_2  and  N_3
REMARK    3  A    between atoms: C_2  and  C_16
REMARK    4  A    between atoms: C_4  and  C_6
REMARK    5  A    between atoms: C_19  and  C_20
REMARK    6  A    between atoms: C_20  and  O_21
REMARK    7  A    between atoms: O_21  and  C_22
REMARK    8  A    between atoms: C_22  and  C_23
REMARK                            x       y       z     vdW  Elec       q    Type
REMARK                         _______ _______ _______ _____ _____    ______ ____
ROOT
ATOM      1  C   UNL     1      47.547   3.827  15.417  0.00  0.00    +0.000 C 
ATOM      2  C   UNL     1      47.148   5.179  14.820  0.00  0.00    +0.000 C 
ENDROOT
BRANCH   2   3
ATOM      3  C   UNL     1      46.176   4.956  13.672  0.00  0.00    +0.000 A 
ATOM      4  C   UNL     1      46.021   3.658  13.162  0.00  0.00    +0.000 A 
ATOM      5  C   UNL     1      45.203   3.415  12.058  0.00  0.00    +0.000 A 
ATOM      6  C   UNL     1      44.511   4.463  11.442  0.00  0.00    +0.000 A 
ATOM      7  C   UNL     1      44.650   5.758  11.950  0.00  0.00    +0.000 A 
ATOM      8  C   UNL     1      45.486   6.004  13.042  0.00  0.00    +0.000 A 
BRANCH   6   9
ATOM      9  C   UNL     1      43.608   4.189  10.265  0.00  0.00    +0.000 C 
BRANCH   9  10
ATOM     10  O   UNL     1      44.202   3.278   9.338  0.00  0.00    +0.000 OA
BRANCH  10  11
ATOM     11  C   UNL     1      44.951   3.945   8.325  0.00  0.00    +0.000 C 
BRANCH  11  12
ATOM     12  C   UNL     1      45.986   3.001   7.781  0.00  0.00    +0.000 A 
ATOM     13  C   UNL     1      46.021   1.665   8.193  0.00  0.00    +0.000 A 
ATOM     14  C   UNL     1      46.978   0.827   7.647  0.00  0.00    +0.000 A 
ATOM     15  N   UNL     1      47.892   1.220   6.732  0.00  0.00    +0.000 NA
ATOM     16  C   UNL     1      47.849   2.519   6.361  0.00  0.00    +0.000 A 
ATOM     17  C   UNL     1      46.931   3.433   6.848  0.00  0.00    +0.000 A 
ENDBRANCH  11  12
ENDBRANCH  10  11
ENDBRANCH   9  10
ENDBRANCH   6   9
ENDBRANCH   2   3
BRANCH   2  18
ATOM     18  N   UNL     1      48.318   5.946  14.432  0.00  0.00    +0.000 N 
ATOM     19  C   UNL     1      48.947   6.812  15.290  0.00  0.00    +0.000 C 
ATOM     20  O   UNL     1      48.518   7.034  16.419  0.00  0.00    +0.000 OA
ATOM     21  H   UNL     1      48.660   5.856  13.483  0.00  0.00    +0.000 HD
BRANCH  19  22
ATOM     22  C   UNL     1      50.195   7.426  14.816  0.00  0.00    +0.000 A 
ATOM     23  C   UNL     1      51.305   7.438  15.652  0.00  0.00    +0.000 A 
ATOM     24  S   UNL     1      52.680   8.164  14.957  0.00  0.00    +0.000 S 
ATOM     25  C   UNL     1      51.832   8.532  13.529  0.00  0.00    +0.000 A 
ATOM     26  N   UNL     1      52.438   9.200  12.511  0.00  0.00    +0.000 NA
ATOM     27  C   UNL     1      51.672   9.447  11.502  0.00  0.00    +0.000 A 
ATOM     28  N   UNL     1      50.356   9.076  11.415  0.00  0.00    +0.000 N 
ATOM     29  C   UNL     1      49.725   8.340  12.386  0.00  0.00    +0.000 A 
ATOM     30  O   UNL     1      48.586   7.916  12.216  0.00  0.00    +0.000 OA
ATOM     31  C   UNL     1      50.526   8.076  13.568  0.00  0.00    +0.000 A 
ATOM     32  H   UNL     1      49.819   9.272  10.583  0.00  0.00    +0.000 HD
ENDBRANCH  19  22
ENDBRANCH   2  18
TORSDOF 7
ENDMDL
MODEL 5
REMARK VINA RESULT:    -7.431      2.036      2.712
REMARK INTER + INTRA:         -11.435
REMARK INTER:                 -10.226
REMARK INTRA:                  -1.209
REMARK UNBOUND:                -0.962
REMARK  Name = 
REMARK  8 active torsions:
REMARK  status: ('A' for Active; 'I' for Inactive)
REMARK    1  A    between atoms: C_1  and  C_2
REMARK    2  A    between atoms: C_2  and  N_3
REMARK    3  A    between atoms: C_2  and  C_16
REMARK    4  A    between atoms: C_4  and  C_6
REMARK    5  A    between atoms: C_19  and  C_20
REMARK    6  A    between atoms: C_20  and  O_21
REMARK    7  A    between atoms: O_21  and  C_22
REMARK    8  A    between atoms: C_22  and  C_23
REMARK                            x       y       z     vdW  Elec       q    Type
REMARK                         _______ _______ _______ _____ _____    ______ ____
ROOT
ATOM      1  C   UNL     1      47.918   3.002  15.430  0.00  0.00    +0.000 C 
ATOM      2  C   UNL     1      47.110   4.292  15.588  0.00  0.00    +0.000 C 
ENDROOT
BRANCH   2   3
ATOM      3  C   UNL     1      46.627   4.755  14.223  0.00  0.00    +0.000 A 
ATOM      4  C   UNL     1      45.639   4.003  13.567  0.00  0.00    +0.000 A 
ATOM      5  C   UNL     1      45.220   4.339  12.279  0.00  0.00    +0.000 A 
ATOM      6  C   UNL     1      45.770   5.442  11.618  0.00  0.00    +0.000 A 
ATOM      7  C   UNL     1      46.746   6.204  12.267  0.00  0.00    +0.000 A 
ATOM      8  C   UNL     1      47.180   5.855  13.549  0.00  0.00    +0.000 A 
BRANCH   6   9
ATOM      9  C   UNL     1      45.294   5.816  10.237  0.00  0.00    +0.000 C 
BRANCH   9  10
ATOM     10  O   UNL     1      45.978   5.081   9.220  0.00  0.00    +0.000 OA
BRANCH  10  11
ATOM     11  C   UNL     1      45.117   4.181   8.527  0.00  0.00    +0.000 C 
BRANCH  11  12
ATOM     12  C   UNL     1      45.951   3.129   7.850  0.00  0.00    +0.000 A 
ATOM     13  C   UNL     1      45.994   1.824   8.347  0.00  0.00    +0.000 A 
ATOM     14  C   UNL     1      46.757   0.883   7.677  0.00  0.00    +0.000 A 
ATOM     15  N   UNL     1      47.473   1.149   6.562  0.00  0.00    +0.000 NA
ATOM     16  C   UNL     1      47.429   2.422   6.109  0.00  0.00    +0.000 A 
ATOM     17  C   UNL     1      46.695   3.431   6.708  0.00  0.00    +0.000 A 
ENDBRANCH  11  12
ENDBRANCH  10  11
ENDBRANCH   9  10
ENDBRANCH   6   9
ENDBRANCH   2   3
BRANCH   2  18
ATOM     18  N   UNL     1      47.874   5.307  16.293  0.00  0.00    +0.000 N 
ATOM     19  C   UNL     1      47.727   5.536  17.637  0.00  0.00    +0.000 C 
ATOM     20  O   UNL     1      46.894   4.934  18.311  0.00  0.00    +0.000 OA
ATOM     21  H   UNL     1      48.515   5.882  15.761  0.00  0.00    +0.000 HD
BRANCH  19  22
ATOM     22  C   UNL     1      48.652   6.498  18.251  0.00  0.00    +0.000 A 
ATOM     23  C   UNL     1      48.139   7.550  18.998  0.00  0.00    +0.000 A 
ATOM     24  S   UNL     1      49.333   8.568  19.663  0.00  0.00    +0.000 S 
ATOM     25  C   UNL     1      50.581   7.667  18.939  0.00  0.00    +0.000 A 
ATOM     26  N   UNL     1      51.883   8.033  19.089  0.00  0.00    +0.000 NA
ATOM     27  C   UNL     1      52.725   7.286  18.458  0.00  0.00    +0.000 A 
ATOM     28  N   UNL     1      52.384   6.198  17.700  0.00  0.00    +0.000 N 
ATOM     29  C   UNL     1      51.092   5.750  17.579  0.00  0.00    +0.000 A 
ATOM     30  O   UNL     1      50.840   4.699  16.998  0.00  0.00    +0.000 OA
ATOM     31  C   UNL     1      50.095   6.583  18.228  0.00  0.00    +0.000 A 
ATOM     32  H   UNL     1      53.095   5.634  17.257  0.00  0.00    +0.000 HD
ENDBRANCH  19  22
ENDBRANCH   2  18
TORSDOF 7
ENDMDL
MODEL 6
REMARK VINA RESULT:    -7.203      2.898      8.803
REMARK INTER + INTRA:         -11.112
REMARK INTER:                  -9.401
REMARK INTRA:                  -1.711
REMARK UNBOUND:                -0.962
REMARK  Name = 
REMARK  8 active torsions:
REMARK  status: ('A' for Active; 'I' for Inactive)
REMARK    1  A    between atoms: C_1  and  C_2
REMARK    2  A    between atoms: C_2  and  N_3
REMARK    3  A    between atoms: C_2  and  C_16
REMARK    4  A    between atoms: C_4  and  C_6
REMARK    5  A    between atoms: C_19  and  C_20
REMARK    6  A    between atoms: C_20  and  O_21
REMARK    7  A    between atoms: O_21  and  C_22
REMARK    8  A    between atoms: C_22  and  C_23
REMARK                            x       y       z     vdW  Elec       q    Type
REMARK                         _______ _______ _______ _____ _____    ______ ____
ROOT
ATOM      1  C   UNL     1      49.080   7.749  11.374  0.00  0.00    +0.000 C 
ATOM      2  C   UNL     1      47.876   7.691  12.317  0.00  0.00    +0.000 C 
ENDROOT
BRANCH   2   3
ATOM      3  C   UNL     1      48.350   7.857  13.752  0.00  0.00    +0.000 A 
ATOM      4  C   UNL     1      49.228   6.901  14.288  0.00  0.00    +0.000 A 
ATOM      5  C   UNL     1      49.628   6.964  15.622  0.00  0.00    +0.000 A 
ATOM      6  C   UNL     1      49.170   7.991  16.454  0.00  0.00    +0.000 A 
ATOM      7  C   UNL     1      48.305   8.955  15.928  0.00  0.00    +0.000 A 
ATOM      8  C   UNL     1      47.888   8.880  14.596  0.00  0.00    +0.000 A 
BRANCH   6   9
ATOM      9  C   UNL     1      49.628   8.068  17.889  0.00  0.00    +0.000 C 
BRANCH   9  10
ATOM     10  O   UNL     1      48.840   7.239  18.745  0.00  0.00    +0.000 OA
BRANCH  10  11
ATOM     11  C   UNL     1      49.614   6.227  19.385  0.00  0.00    +0.000 C 
BRANCH  11  12
ATOM     12  C   UNL     1      49.571   4.978  18.551  0.00  0.00    +0.000 A 
ATOM     13  C   UNL     1      48.354   4.471  18.086  0.00  0.00    +0.000 A 
ATOM     14  C   UNL     1      48.367   3.330  17.301  0.00  0.00    +0.000 A 
ATOM     15  N   UNL     1      49.491   2.667  16.952  0.00  0.00    +0.000 NA
ATOM     16  C   UNL     1      50.655   3.167  17.426  0.00  0.00    +0.000 A 
ATOM     17  C   UNL     1      50.745   4.300  18.215  0.00  0.00    +0.000 A 
ENDBRANCH  11  12
ENDBRANCH  10  11
ENDBRANCH   9  10
ENDBRANCH   6   9
ENDBRANCH   2   3
BRANCH   2  18
ATOM     18  N   UNL     1      47.107   6.477  12.111  0.00  0.00    +0.000 N 
ATOM     19  C   UNL     1      45.738   6.450  12.199  0.00  0.00    +0.000 C 
ATOM     20  O   UNL     1      45.088   7.443  12.518  0.00  0.00    +0.000 OA
ATOM     21  H   UNL     1      47.607   5.616  11.925  0.00  0.00    +0.000 HD
BRANCH  19  22
ATOM     22  C   UNL     1      45.074   5.190  11.840  0.00  0.00    +0.000 A 
ATOM     23  C   UNL     1      44.365   4.495  12.812  0.00  0.00    +0.000 A 
ATOM     24  S   UNL     1      43.635   3.066  12.241  0.00  0.00    +0.000 S 
ATOM     25  C   UNL     1      44.278   3.296  10.683  0.00  0.00    +0.000 A 
ATOM     26  N   UNL     1      44.052   2.389   9.694  0.00  0.00    +0.000 NA
ATOM     27  C   UNL     1      44.627   2.665   8.572  0.00  0.00    +0.000 A 
ATOM     28  N   UNL     1      45.399   3.774   8.346  0.00  0.00    +0.000 N 
ATOM     29  C   UNL     1      45.595   4.750   9.291  0.00  0.00    +0.000 A 
ATOM     30  O   UNL     1      46.184   5.789   9.012  0.00  0.00    +0.000 OA
ATOM     31  C   UNL     1      45.011   4.466  10.590  0.00  0.00    +0.000 A 
ATOM     32  H   UNL     1      45.795   3.949   7.434  0.00  0.00    +0.000 HD
ENDBRANCH  19  22
ENDBRANCH   2  18
TORSDOF 7
ENDMDL
MODEL 7
REMARK VINA RESULT:    -7.182      3.356      4.899
REMARK INTER + INTRA:         -11.083
REMARK INTER:                 -10.063
REMARK INTRA:                  -1.020
REMARK UNBOUND:                -0.962
REMARK  Name = 
REMARK  8 active torsions:
REMARK  status: ('A' for Active; 'I' for Inactive)
REMARK    1  A    between atoms: C_1  and  C_2
REMARK    2  A    between atoms: C_2  and  N_3
REMARK    3  A    between atoms: C_2  and  C_16
REMARK    4  A    between atoms: C_4  and  C_6
REMARK    5  A    between atoms: C_19  and  C_20
REMARK    6  A    between atoms: C_20  and  O_21
REMARK    7  A    between atoms: O_21  and  C_22
REMARK    8  A    between atoms: C_22  and  C_23
REMARK                            x       y       z     vdW  Elec       q    Type
REMARK                         _______ _______ _______ _____ _____    ______ ____
ROOT
ATOM      1  C   UNL     1      47.810   5.227  15.128  0.00  0.00    +0.000 C 
ATOM      2  C   UNL     1      47.564   6.222  13.992  0.00  0.00    +0.000 C 
ENDROOT
BRANCH   2   3
ATOM      3  C   UNL     1      46.523   5.653  13.040  0.00  0.00    +0.000 A 
ATOM      4  C   UNL     1      46.106   4.324  13.213  0.00  0.00    +0.000 A 
ATOM      5  C   UNL     1      45.215   3.731  12.318  0.00  0.00    +0.000 A 
ATOM      6  C   UNL     1      44.709   4.456  11.234  0.00  0.00    +0.000 A 
ATOM      7  C   UNL     1      45.109   5.784  11.060  0.00  0.00    +0.000 A 
ATOM      8  C   UNL     1      46.018   6.371  11.944  0.00  0.00    +0.000 A 
BRANCH   6   9
ATOM      9  C   UNL     1      43.725   3.816  10.286  0.00  0.00    +0.000 C 
BRANCH   9  10
ATOM     10  O   UNL     1      44.378   3.006   9.307  0.00  0.00    +0.000 OA
BRANCH  10  11
ATOM     11  C   UNL     1      44.977   3.781   8.271  0.00  0.00    +0.000 C 
BRANCH  11  12
ATOM     12  C   UNL     1      46.006   2.943   7.566  0.00  0.00    +0.000 A 
ATOM     13  C   UNL     1      46.363   1.686   8.062  0.00  0.00    +0.000 A 
ATOM     14  C   UNL     1      47.299   0.939   7.366  0.00  0.00    +0.000 A 
ATOM     15  N   UNL     1      47.897   1.353   6.226  0.00  0.00    +0.000 NA
ATOM     16  C   UNL     1      47.548   2.578   5.775  0.00  0.00    +0.000 A 
ATOM     17  C   UNL     1      46.622   3.397   6.399  0.00  0.00    +0.000 A 
ENDBRANCH  11  12
ENDBRANCH  10  11
ENDBRANCH   9  10
ENDBRANCH   6   9
ENDBRANCH   2   3
BRANCH   2  18
ATOM     18  N   UNL     1      48.806   6.578  13.328  0.00  0.00    +0.000 N 
ATOM     19  C   UNL     1      49.121   7.873  13.005  0.00  0.00    +0.000 C 
ATOM     20  O   UNL     1      48.342   8.801  13.206  0.00  0.00    +0.000 OA
ATOM     21  H   UNL     1      49.444   5.835  13.070  0.00  0.00    +0.000 HD
BRANCH  19  22
ATOM     22  C   UNL     1      50.463   8.111  12.456  0.00  0.00    +0.000 A 
ATOM     23  C   UNL     1      50.736   7.735  11.146  0.00  0.00    +0.000 A 
ATOM     24  S   UNL     1      52.325   8.095  10.646  0.00  0.00    +0.000 S 
ATOM     25  C   UNL     1      52.723   8.725  12.175  0.00  0.00    +0.000 A 
ATOM     26  N   UNL     1      53.975   9.188  12.435  0.00  0.00    +0.000 NA
ATOM     27  C   UNL     1      54.152   9.603  13.644  0.00  0.00    +0.000 A 
ATOM     28  N   UNL     1      53.186   9.609  14.614  0.00  0.00    +0.000 N 
ATOM     29  C   UNL     1      51.891   9.219  14.378  0.00  0.00    +0.000 A 
ATOM     30  O   UNL     1      51.024   9.358  15.234  0.00  0.00    +0.000 OA
ATOM     31  C   UNL     1      51.647   8.694  13.046  0.00  0.00    +0.000 A 
ATOM     32  H   UNL     1      53.381   9.978  15.534  0.00  0.00    +0.000 HD
ENDBRANCH  19  22
ENDBRANCH   2  18
TORSDOF 7
ENDMDL
MODEL 8
REMARK VINA RESULT:    -7.122      3.482      5.158
REMARK INTER + INTRA:         -10.999
REMARK INTER:                  -9.687
REMARK INTRA:                  -1.313
REMARK UNBOUND:                -0.962
REMARK  Name = 
REMARK  8 active torsions:
REMARK  status: ('A' for Active; 'I' for Inactive)
REMARK    1  A    between atoms: C_1  and  C_2
REMARK    2  A    between atoms: C_2  and  N_3
REMARK    3  A    between atoms: C_2  and  C_16
REMARK    4  A    between atoms: C_4  and  C_6
REMARK    5  A    between atoms: C_19  and  C_20
REMARK    6  A    between atoms: C_20  and  O_21
REMARK    7  A    between atoms: O_21  and  C_22
REMARK    8  A    between atoms: C_22  and  C_23
REMARK                            x       y       z     vdW  Elec       q    Type
REMARK                         _______ _______ _______ _____ _____    ______ ____
ROOT
ATOM      1  C   UNL     1      47.492   3.090  17.498  0.00  0.00    +0.000 C 
ATOM      2  C   UNL     1      48.406   4.310  17.366  0.00  0.00    +0.000 C 
ENDROOT
BRANCH   2   3
ATOM      3  C   UNL     1      48.076   5.050  16.079  0.00  0.00    +0.000 A 
ATOM      4  C   UNL     1      47.198   4.451  15.163  0.00  0.00    +0.000 A 
ATOM      5  C   UNL     1      46.926   5.051  13.933  0.00  0.00    +0.000 A 
ATOM      6  C   UNL     1      47.517   6.272  13.592  0.00  0.00    +0.000 A 
ATOM      7  C   UNL     1      48.384   6.883  14.502  0.00  0.00    +0.000 A 
ATOM      8  C   UNL     1      48.673   6.271  15.725  0.00  0.00    +0.000 A 
BRANCH   6   9
ATOM      9  C   UNL     1      47.198   6.928  12.272  0.00  0.00    +0.000 C 
BRANCH   9  10
ATOM     10  O   UNL     1      45.816   6.801  11.934  0.00  0.00    +0.000 OA
BRANCH  10  11
ATOM     11  C   UNL     1      45.622   6.197  10.657  0.00  0.00    +0.000 C 
BRANCH  11  12
ATOM     12  C   UNL     1      44.824   4.935  10.829  0.00  0.00    +0.000 A 
ATOM     13  C   UNL     1      44.889   3.914   9.876  0.00  0.00    +0.000 A 
ATOM     14  C   UNL     1      44.154   2.760  10.090  0.00  0.00    +0.000 A 
ATOM     15  N   UNL     1      43.368   2.555  11.170  0.00  0.00    +0.000 NA
ATOM     16  C   UNL     1      43.309   3.563  12.069  0.00  0.00    +0.000 A 
ATOM     17  C   UNL     1      44.006   4.751  11.946  0.00  0.00    +0.000 A 
ENDBRANCH  11  12
ENDBRANCH  10  11
ENDBRANCH   9  10
ENDBRANCH   6   9
ENDBRANCH   2   3
BRANCH   2  18
ATOM     18  N   UNL     1      49.805   3.931  17.458  0.00  0.00    +0.000 N 
ATOM     19  C   UNL     1      50.588   4.269  18.532  0.00  0.00    +0.000 C 
ATOM     20  O   UNL     1      50.166   4.968  19.450  0.00  0.00    +0.000 OA
ATOM     21  H   UNL     1      50.218   3.423  16.686  0.00  0.00    +0.000 HD
BRANCH  19  22
ATOM     22  C   UNL     1      51.948   3.712  18.563  0.00  0.00    +0.000 A 
ATOM     23  C   UNL     1      52.978   4.467  19.110  0.00  0.00    +0.000 A 
ATOM     24  S   UNL     1      54.489   3.680  19.095  0.00  0.00    +0.000 S 
ATOM     25  C   UNL     1      53.833   2.319  18.314  0.00  0.00    +0.000 A 
ATOM     26  N   UNL     1      54.622   1.263  17.973  0.00  0.00    +0.000 NA
ATOM     27  C   UNL     1      54.006   0.313  17.354  0.00  0.00    +0.000 A 
ATOM     28  N   UNL     1      52.669   0.318  17.055  0.00  0.00    +0.000 N 
ATOM     29  C   UNL     1      51.823   1.327  17.442  0.00  0.00    +0.000 A 
ATOM     30  O   UNL     1      50.612   1.236  17.270  0.00  0.00    +0.000 OA
ATOM     31  C   UNL     1      52.472   2.447  18.099  0.00  0.00    +0.000 A 
ATOM     32  H   UNL     1      52.241  -0.473  16.596  0.00  0.00    +0.000 HD
ENDBRANCH  19  22
ENDBRANCH   2  18
TORSDOF 7
ENDMDL
MODEL 9
REMARK VINA RESULT:    -6.904      1.840      2.502
REMARK INTER + INTRA:         -10.691
REMARK INTER:                  -9.691
REMARK INTRA:                  -1.000
REMARK UNBOUND:                -0.962
REMARK  Name = 
REMARK  8 active torsions:
REMARK  status: ('A' for Active; 'I' for Inactive)
REMARK    1  A    between atoms: C_1  and  C_2
REMARK    2  A    between atoms: C_2  and  N_3
REMARK    3  A    between atoms: C_2  and  C_16
REMARK    4  A    between atoms: C_4  and  C_6
REMARK    5  A    between atoms: C_19  and  C_20
REMARK    6  A    between atoms: C_20  and  O_21
REMARK    7  A    between atoms: O_21  and  C_22
REMARK    8  A    between atoms: C_22  and  C_23
REMARK                            x       y       z     vdW  Elec       q    Type
REMARK                         _______ _______ _______ _____ _____    ______ ____
ROOT
ATOM      1  C   UNL     1      49.688   8.312  13.363  0.00  0.00    +0.000 C 
ATOM      2  C   UNL     1      49.220   7.026  14.047  0.00  0.00    +0.000 C 
ENDROOT
BRANCH   2   3
ATOM      3  C   UNL     1      48.077   6.417  13.249  0.00  0.00    +0.000 A 
ATOM      4  C   UNL     1      47.738   6.989  12.013  0.00  0.00    +0.000 A 
ATOM      5  C   UNL     1      46.648   6.519  11.281  0.00  0.00    +0.000 A 
ATOM      6  C   UNL     1      45.874   5.457  11.762  0.00  0.00    +0.000 A 
ATOM      7  C   UNL     1      46.210   4.874  12.987  0.00  0.00    +0.000 A 
ATOM      8  C   UNL     1      47.290   5.359  13.729  0.00  0.00    +0.000 A 
BRANCH   6   9
ATOM      9  C   UNL     1      44.712   4.937  10.953  0.00  0.00    +0.000 C 
BRANCH   9  10
ATOM     10  O   UNL     1      45.000   3.669  10.361  0.00  0.00    +0.000 OA
BRANCH  10  11
ATOM     11  C   UNL     1      44.659   3.625   8.977  0.00  0.00    +0.000 C 
BRANCH  11  12
ATOM     12  C   UNL     1      45.722   2.864   8.236  0.00  0.00    +0.000 A 
ATOM     13  C   UNL     1      46.626   3.529   7.403  0.00  0.00    +0.000 A 
ATOM     14  C   UNL     1      47.604   2.789   6.758  0.00  0.00    +0.000 A 
ATOM     15  N   UNL     1      47.741   1.450   6.883  0.00  0.00    +0.000 NA
ATOM     16  C   UNL     1      46.845   0.827   7.681  0.00  0.00    +0.000 A 
ATOM     17  C   UNL     1      45.836   1.478   8.368  0.00  0.00    +0.000 A 
ENDBRANCH  11  12
ENDBRANCH  10  11
ENDBRANCH   9  10
ENDBRANCH   6   9
ENDBRANCH   2   3
BRANCH   2  18
ATOM     18  N   UNL     1      48.875   7.266  15.437  0.00  0.00    +0.000 N 
ATOM     19  C   UNL     1      49.481   6.597  16.471  0.00  0.00    +0.000 C 
ATOM     20  O   UNL     1      50.308   5.710  16.274  0.00  0.00    +0.000 OA
ATOM     21  H   UNL     1      48.141   7.932  15.643  0.00  0.00    +0.000 HD
BRANCH  19  22
ATOM     22  C   UNL     1      49.136   7.028  17.832  0.00  0.00    +0.000 A 
ATOM     23  C   UNL     1      47.849   6.808  18.308  0.00  0.00    +0.000 A 
ATOM     24  S   UNL     1      47.607   7.342  19.908  0.00  0.00    +0.000 S 
ATOM     25  C   UNL     1      49.200   7.929  20.010  0.00  0.00    +0.000 A 
ATOM     26  N   UNL     1      49.642   8.550  21.137  0.00  0.00    +0.000 NA
ATOM     27  C   UNL     1      50.858   8.980  21.068  0.00  0.00    +0.000 A 
ATOM     28  N   UNL     1      51.675   8.834  19.979  0.00  0.00    +0.000 N 
ATOM     29  C   UNL     1      51.295   8.152  18.850  0.00  0.00    +0.000 A 
ATOM     30  O   UNL     1      52.096   7.931  17.947  0.00  0.00    +0.000 OA
ATOM     31  C   UNL     1      49.918   7.690  18.852  0.00  0.00    +0.000 A 
ATOM     32  H   UNL     1      52.628   9.165  20.001  0.00  0.00    +0.000 HD
ENDBRANCH  19  22
ENDBRANCH   2  18
TORSDOF 7
ENDMDL
