MODEL 1
REMARK VINA RESULT:    -7.893      0.000      0.000
REMARK INTER + INTRA:         -10.059
REMARK INTER:                  -9.738
REMARK INTRA:                  -0.321
REMARK UNBOUND:                -0.321
REMARK  Name = 
REMARK  4 active torsions:
REMARK  status: ('A' for Active; 'I' for Inactive)
REMARK    1  A    between atoms: C_2  and  C_3
REMARK    2  A    between atoms: C_6  and  C_7
REMARK    3  A    between atoms: C_7  and  N_8
REMARK    4  A    between atoms: C_12  and  C_13
REMARK                            x       y       z     vdW  Elec       q    Type
REMARK                         _______ _______ _______ _____ _____    ______ ____
ROOT
ATOM      1  N   UNL     1      44.028   3.899  10.375  0.00  0.00    +0.000 N 
ATOM      2  C   UNL     1      45.016   3.637   9.434  0.00  0.00    +0.000 A 
ATOM      3  N   UNL     1      45.220   2.325   9.219  0.00  0.00    +0.000 NA
ATOM      4  C   UNL     1      46.036   1.977   8.201  0.00  0.00    +0.000 A 
ATOM      5  C   UNL     1      46.640   2.891   7.372  0.00  0.00    +0.000 A 
ATOM      6  C   UNL     1      46.416   4.205   7.699  0.00  0.00    +0.000 A 
ATOM      7  N   UNL     1      45.617   4.606   8.725  0.00  0.00    +0.000 NA
ATOM      8  H   UNL     1      43.788   3.009  10.798  0.00  0.00    +0.000 HD
ENDROOT
BRANCH   5   9
ATOM      9  C   UNL     1      47.447   2.414   6.237  0.00  0.00    +0.000 C 
ATOM     10  N   UNL     1      47.279   3.027   5.028  0.00  0.00    +0.000 N 
ATOM     11  O   UNL     1      48.197   1.454   6.357  0.00  0.00    +0.000 OA
ATOM     12  H   UNL     1      46.498   3.632   4.813  0.00  0.00    +0.000 HD
ATOM     13  H   UNL     1      47.733   2.573   4.243  0.00  0.00    +0.000 HD
ENDBRANCH   5   9
BRANCH   1  14
ATOM     14  C   UNL     1      43.934   5.093  11.214  0.00  0.00    +0.000 C 
ATOM     15  C   UNL     1      42.808   6.102  11.075  0.00  0.00    +0.000 C 
ATOM     16  C   UNL     1      42.734   5.087  12.164  0.00  0.00    +0.000 C 
BRANCH  14  20
ATOM     17  C   UNL     1      47.598   6.482  13.161  0.00  0.00    +0.000 A 
ATOM     18  C   UNL     1      46.898   7.316  12.287  0.00  0.00    +0.000 A 
ATOM     19  C   UNL     1      45.757   6.843  11.629  0.00  0.00    +0.000 A 
ATOM     20  C   UNL     1      45.267   5.537  11.836  0.00  0.00    +0.000 A 
ATOM     21  C   UNL     1      46.036   4.700  12.674  0.00  0.00    +0.000 A 
ATOM     22 CL   UNL     1      45.596   3.046  12.941  0.00  0.00    +0.000 Cl
ATOM     23  C   UNL     1      47.180   5.163  13.333  0.00  0.00    +0.000 A 
BRANCH  17  25
ATOM     24  N   UNL     1      49.644   7.368  14.487  0.00  0.00    +0.000 NA
ATOM     25  C   UNL     1      48.722   6.980  13.901  0.00  0.00    +0.000 C 
ENDBRANCH  17  25
ENDBRANCH  14  20
ENDBRANCH   1  14
TORSDOF 4
ENDMDL
MODEL 2
REMARK VINA RESULT:    -6.782      2.888      6.343
REMARK INTER + INTRA:          -8.689
REMARK INTER:                  -8.904
REMARK INTRA:                   0.215
REMARK UNBOUND:                -0.321
REMARK  Name = 
REMARK  4 active torsions:
REMARK  status: ('A' for Active; 'I' for Inactive)
REMARK    1  A    between atoms: C_2  and  C_3
REMARK    2  A    between atoms: C_6  and  C_7
REMARK    3  A    between atoms: C_7  and  N_8
REMARK    4  A    between atoms: C_12  and  C_13
REMARK                            x       y       z     vdW  Elec       q    Type
REMARK                         _______ _______ _______ _____ _____    ______ ____
ROOT
ATOM      1  N   UNL     1      45.036   6.572  11.587  0.00  0.00    +0.000 N 
ATOM      2  C   UNL     1      46.237   6.507  12.281  0.00  0.00    +0.000 A 
ATOM      3  N   UNL     1      47.124   7.448  11.912  0.00  0.00    +0.000 NA
ATOM      4  C   UNL     1      48.250   7.571  12.648  0.00  0.00    +0.000 A 
ATOM      5  C   UNL     1      48.514   6.802  13.756  0.00  0.00    +0.000 A 
ATOM      6  C   UNL     1      47.578   5.834  14.025  0.00  0.00    +0.000 A 
ATOM      7  N   UNL     1      46.438   5.659  13.303  0.00  0.00    +0.000 NA
ATOM      8  H   UNL     1      45.169   7.245  10.840  0.00  0.00    +0.000 HD
ENDROOT
BRANCH   5   9
ATOM      9  C   UNL     1      49.730   7.065  14.543  0.00  0.00    +0.000 C 
ATOM     10  N   UNL     1      50.714   7.820  13.972  0.00  0.00    +0.000 N 
ATOM     11  O   UNL     1      49.882   6.566  15.652  0.00  0.00    +0.000 OA
ATOM     12  H   UNL     1      50.754   8.027  12.983  0.00  0.00    +0.000 HD
ATOM     13  H   UNL     1      51.591   7.849  14.480  0.00  0.00    +0.000 HD
ENDBRANCH   5   9
BRANCH   1  14
ATOM     14  C   UNL     1      44.124   5.456  11.335  0.00  0.00    +0.000 C 
ATOM     15  C   UNL     1      43.077   5.015  12.341  0.00  0.00    +0.000 C 
ATOM     16  C   UNL     1      42.659   5.875  11.197  0.00  0.00    +0.000 C 
BRANCH  14  20
ATOM     17  C   UNL     1      45.785   2.613   8.455  0.00  0.00    +0.000 A 
ATOM     18  C   UNL     1      45.963   3.985   8.280  0.00  0.00    +0.000 A 
ATOM     19  C   UNL     1      45.382   4.888   9.178  0.00  0.00    +0.000 A 
ATOM     20  C   UNL     1      44.627   4.453  10.287  0.00  0.00    +0.000 A 
ATOM     21  C   UNL     1      44.413   3.061  10.395  0.00  0.00    +0.000 A 
ATOM     22 CL   UNL     1      43.428   2.399  11.658  0.00  0.00    +0.000 Cl
ATOM     23  C   UNL     1      44.986   2.152   9.500  0.00  0.00    +0.000 A 
BRANCH  17  25
ATOM     24  N   UNL     1      46.988   0.934   6.884  0.00  0.00    +0.000 NA
ATOM     25  C   UNL     1      46.441   1.676   7.587  0.00  0.00    +0.000 C 
ENDBRANCH  17  25
ENDBRANCH  14  20
ENDBRANCH   1  14
TORSDOF 4
ENDMDL
MODEL 3
REMARK VINA RESULT:    -6.179      3.160      6.749
REMARK INTER + INTRA:          -7.945
REMARK INTER:                  -8.587
REMARK INTRA:                   0.642
REMARK UNBOUND:                -0.321
REMARK  Name = 
REMARK  4 active torsions:
REMARK  status: ('A' for Active; 'I' for Inactive)
REMARK    1  A    between atoms: C_2  and  C_3
REMARK    2  A    between atoms: C_6  and  C_7
REMARK    3  A    between atoms: C_7  and  N_8
REMARK    4  A    between atoms: C_12  and  C_13
REMARK                            x       y       z     vdW  Elec       q    Type
REMARK                         _______ _______ _______ _____ _____    ______ ____
ROOT
ATOM      1  N   UNL     1      45.428   4.107  13.464  0.00  0.00    +0.000 N 
ATOM      2  C   UNL     1      46.391   4.827  14.159  0.00  0.00    +0.000 A 
ATOM      3  N   UNL     1      46.760   4.254  15.319  0.00  0.00    +0.000 NA
ATOM      4  C   UNL     1      47.810   4.791  15.976  0.00  0.00    +0.000 A 
ATOM      5  C   UNL     1      48.523   5.868  15.507  0.00  0.00    +0.000 A 
ATOM      6  C   UNL     1      48.042   6.418  14.345  0.00  0.00    +0.000 A 
ATOM      7  N   UNL     1      46.978   5.925  13.656  0.00  0.00    +0.000 NA
ATOM      8  H   UNL     1      45.114   3.369  14.086  0.00  0.00    +0.000 HD
ENDROOT
BRANCH   5   9
ATOM      9  C   UNL     1      49.705   6.331  16.253  0.00  0.00    +0.000 C 
ATOM     10  N   UNL     1      49.867   7.676  16.427  0.00  0.00    +0.000 N 
ATOM     11  O   UNL     1      50.551   5.539  16.648  0.00  0.00    +0.000 OA
ATOM     12  H   UNL     1      49.353   8.372  15.903  0.00  0.00    +0.000 HD
ATOM     13  H   UNL     1      50.763   7.961  16.806  0.00  0.00    +0.000 HD
ENDBRANCH   5   9
BRANCH   1  14
ATOM     14  C   UNL     1      44.453   4.657  12.523  0.00  0.00    +0.000 C 
ATOM     15  C   UNL     1      43.036   5.015  12.932  0.00  0.00    +0.000 C 
ATOM     16  C   UNL     1      44.051   6.102  12.825  0.00  0.00    +0.000 C 
BRANCH  14  20
ATOM     17  C   UNL     1      45.542   3.717   8.391  0.00  0.00    +0.000 A 
ATOM     18  C   UNL     1      45.873   4.952   8.949  0.00  0.00    +0.000 A 
ATOM     19  C   UNL     1      45.474   5.263  10.254  0.00  0.00    +0.000 A 
ATOM     20  C   UNL     1      44.753   4.348  11.048  0.00  0.00    +0.000 A 
ATOM     21  C   UNL     1      44.378   3.135  10.429  0.00  0.00    +0.000 A 
ATOM     22 CL   UNL     1      43.412   1.961  11.263  0.00  0.00    +0.000 Cl
ATOM     23  C   UNL     1      44.769   2.818   9.125  0.00  0.00    +0.000 A 
BRANCH  17  25
ATOM     24  N   UNL     1      46.413   3.054   6.039  0.00  0.00    +0.000 NA
ATOM     25  C   UNL     1      46.014   3.357   7.085  0.00  0.00    +0.000 C 
ENDBRANCH  17  25
ENDBRANCH  14  20
ENDBRANCH   1  14
TORSDOF 4
ENDMDL
MODEL 4
REMARK VINA RESULT:    -6.105      3.414      6.979
REMARK INTER + INTRA:          -7.854
REMARK INTER:                  -7.813
REMARK INTRA:                  -0.041
REMARK UNBOUND:                -0.321
REMARK  Name = 
REMARK  4 active torsions:
REMARK  status: ('A' for Active; 'I' for Inactive)
REMARK    1  A    between atoms: C_2  and  C_3
REMARK    2  A    between atoms: C_6  and  C_7
REMARK    3  A    between atoms: C_7  and  N_8
REMARK    4  A    between atoms: C_12  and  C_13
REMARK                            x       y       z     vdW  Elec       q    Type
REMARK                         _______ _______ _______ _____ _____    ______ ____
ROOT
ATOM      1  N   UNL     1      45.198   5.581  12.925  0.00  0.00    +0.000 N 
ATOM      2  C   UNL     1      46.207   5.253  13.820  0.00  0.00    +0.000 A 
ATOM      3  N   UNL     1      47.150   6.204  13.940  0.00  0.00    +0.000 NA
ATOM      4  C   UNL     1      48.076   6.049  14.912  0.00  0.00    +0.000 A 
ATOM      5  C   UNL     1      48.083   4.989  15.785  0.00  0.00    +0.000 A 
ATOM      6  C   UNL     1      47.115   4.042  15.553  0.00  0.00    +0.000 A 
ATOM      7  N   UNL     1      46.173   4.144  14.577  0.00  0.00    +0.000 NA
ATOM      8  H   UNL     1      45.496   6.425  12.448  0.00  0.00    +0.000 HD
ENDROOT
BRANCH   5   9
ATOM      9  C   UNL     1      49.083   4.949  16.864  0.00  0.00    +0.000 C 
ATOM     10  N   UNL     1      48.709   4.418  18.066  0.00  0.00    +0.000 N 
ATOM     11  O   UNL     1      50.196   5.435  16.710  0.00  0.00    +0.000 OA
ATOM     12  H   UNL     1      47.746   4.251  18.326  0.00  0.00    +0.000 HD
ATOM     13  H   UNL     1      49.370   4.549  18.824  0.00  0.00    +0.000 HD
ENDBRANCH   5   9
BRANCH   1  14
ATOM     14  C   UNL     1      44.375   4.635  12.170  0.00  0.00    +0.000 C 
ATOM     15  C   UNL     1      43.352   3.731  12.835  0.00  0.00    +0.000 C 
ATOM     16  C   UNL     1      42.883   4.980  12.168  0.00  0.00    +0.000 C 
BRANCH  14  20
ATOM     17  C   UNL     1      45.813   3.488   8.201  0.00  0.00    +0.000 A 
ATOM     18  C   UNL     1      45.261   2.536   9.058  0.00  0.00    +0.000 A 
ATOM     19  C   UNL     1      44.853   2.903  10.345  0.00  0.00    +0.000 A 
ATOM     20  C   UNL     1      44.962   4.230  10.810  0.00  0.00    +0.000 A 
ATOM     21  C   UNL     1      45.586   5.153   9.940  0.00  0.00    +0.000 A 
ATOM     22 CL   UNL     1      45.865   6.794  10.422  0.00  0.00    +0.000 Cl
ATOM     23  C   UNL     1      46.000   4.793   8.654  0.00  0.00    +0.000 A 
BRANCH  17  25
ATOM     24  N   UNL     1      46.426   2.876   5.755  0.00  0.00    +0.000 NA
ATOM     25  C   UNL     1      46.161   3.141   6.853  0.00  0.00    +0.000 C 
ENDBRANCH  17  25
ENDBRANCH  14  20
ENDBRANCH   1  14
TORSDOF 4
ENDMDL
MODEL 5
REMARK VINA RESULT:    -5.338      5.503      7.812
REMARK INTER + INTRA:          -6.907
REMARK INTER:                  -6.435
REMARK INTRA:                  -0.472
REMARK UNBOUND:                -0.321
REMARK  Name = 
REMARK  4 active torsions:
REMARK  status: ('A' for Active; 'I' for Inactive)
REMARK    1  A    between atoms: C_2  and  C_3
REMARK    2  A    between atoms: C_6  and  C_7
REMARK    3  A    between atoms: C_7  and  N_8
REMARK    4  A    between atoms: C_12  and  C_13
REMARK                            x       y       z     vdW  Elec       q    Type
REMARK                         _______ _______ _______ _____ _____    ______ ____
ROOT
ATOM      1  N   UNL     1      48.032   5.908  16.491  0.00  0.00    +0.000 N 
ATOM      2  C   UNL     1      48.660   6.355  15.336  0.00  0.00    +0.000 A 
ATOM      3  N   UNL     1      47.992   6.052  14.209  0.00  0.00    +0.000 NA
ATOM      4  C   UNL     1      48.436   6.593  13.054  0.00  0.00    +0.000 A 
ATOM      5  C   UNL     1      49.512   7.444  12.984  0.00  0.00    +0.000 A 
ATOM      6  C   UNL     1      50.162   7.653  14.175  0.00  0.00    +0.000 A 
ATOM      7  N   UNL     1      49.765   7.118  15.361  0.00  0.00    +0.000 NA
ATOM      8  H   UNL     1      47.266   5.313  16.194  0.00  0.00    +0.000 HD
ENDROOT
BRANCH   5   9
ATOM      9  C   UNL     1      49.871   8.050  11.691  0.00  0.00    +0.000 C 
ATOM     10  N   UNL     1      50.922   7.514  11.002  0.00  0.00    +0.000 N 
ATOM     11  O   UNL     1      49.288   9.044  11.277  0.00  0.00    +0.000 OA
ATOM     12  H   UNL     1      51.592   6.878  11.412  0.00  0.00    +0.000 HD
ATOM     13  H   UNL     1      51.234   8.050  10.199  0.00  0.00    +0.000 HD
ENDBRANCH   5   9
BRANCH   1  14
ATOM     14  C   UNL     1      48.688   5.580  17.757  0.00  0.00    +0.000 C 
ATOM     15  C   UNL     1      48.777   6.564  18.910  0.00  0.00    +0.000 C 
ATOM     16  C   UNL     1      47.729   5.503  18.948  0.00  0.00    +0.000 C 
BRANCH  14  20
ATOM     17  C   UNL     1      51.604   2.319  17.735  0.00  0.00    +0.000 A 
ATOM     18  C   UNL     1      52.001   3.623  18.031  0.00  0.00    +0.000 A 
ATOM     19  C   UNL     1      51.070   4.668  17.983  0.00  0.00    +0.000 A 
ATOM     20  C   UNL     1      49.716   4.443  17.661  0.00  0.00    +0.000 A 
ATOM     21  C   UNL     1      49.364   3.122  17.304  0.00  0.00    +0.000 A 
ATOM     22 CL   UNL     1      47.754   2.726  16.800  0.00  0.00    +0.000 Cl
ATOM     23  C   UNL     1      50.288   2.073  17.345  0.00  0.00    +0.000 A 
BRANCH  17  25
ATOM     24  N   UNL     1      53.262   0.337  17.968  0.00  0.00    +0.000 NA
ATOM     25  C   UNL     1      52.530   1.230  17.858  0.00  0.00    +0.000 C 
ENDBRANCH  17  25
ENDBRANCH  14  20
ENDBRANCH   1  14
TORSDOF 4
ENDMDL
MODEL 6
REMARK VINA RESULT:    -5.302      4.394      7.334
REMARK INTER + INTRA:          -6.863
REMARK INTER:                  -6.375
REMARK INTRA:                  -0.488
REMARK UNBOUND:                -0.321
REMARK  Name = 
REMARK  4 active torsions:
REMARK  status: ('A' for Active; 'I' for Inactive)
REMARK    1  A    between atoms: C_2  and  C_3
REMARK    2  A    between atoms: C_6  and  C_7
REMARK    3  A    between atoms: C_7  and  N_8
REMARK    4  A    between atoms: C_12  and  C_13
REMARK                            x       y       z     vdW  Elec       q    Type
REMARK                         _______ _______ _______ _____ _____    ______ ____
ROOT
ATOM      1  N   UNL     1      49.424   7.041  14.685  0.00  0.00    +0.000 N 
ATOM      2  C   UNL     1      48.284   6.341  14.314  0.00  0.00    +0.000 A 
ATOM      3  N   UNL     1      47.719   6.795  13.181  0.00  0.00    +0.000 NA
ATOM      4  C   UNL     1      46.709   6.071  12.652  0.00  0.00    +0.000 A 
ATOM      5  C   UNL     1      46.255   4.896  13.200  0.00  0.00    +0.000 A 
ATOM      6  C   UNL     1      46.855   4.540  14.383  0.00  0.00    +0.000 A 
ATOM      7  N   UNL     1      47.863   5.244  14.964  0.00  0.00    +0.000 NA
ATOM      8  H   UNL     1      49.482   7.848  14.073  0.00  0.00    +0.000 HD
ENDROOT
BRANCH   5   9
ATOM      9  C   UNL     1      45.204   4.134  12.506  0.00  0.00    +0.000 C 
ATOM     10  N   UNL     1      45.282   2.770  12.525  0.00  0.00    +0.000 N 
ATOM     11  O   UNL     1      44.324   4.705  11.874  0.00  0.00    +0.000 OA
ATOM     12  H   UNL     1      46.114   2.263  12.796  0.00  0.00    +0.000 HD
ATOM     13  H   UNL     1      44.635   2.288  11.911  0.00  0.00    +0.000 HD
ENDBRANCH   5   9
BRANCH   1  14
ATOM     14  C   UNL     1      49.940   7.189  16.046  0.00  0.00    +0.000 C 
ATOM     15  C   UNL     1      51.027   6.293  16.610  0.00  0.00    +0.000 C 
ATOM     16  C   UNL     1      51.399   7.647  16.108  0.00  0.00    +0.000 C 
BRANCH  14  20
ATOM     17  C   UNL     1      47.404   9.253  18.954  0.00  0.00    +0.000 A 
ATOM     18  C   UNL     1      47.696   7.897  19.104  0.00  0.00    +0.000 A 
ATOM     19  C   UNL     1      48.464   7.234  18.140  0.00  0.00    +0.000 A 
ATOM     20  C   UNL     1      48.981   7.904  17.011  0.00  0.00    +0.000 A 
ATOM     21  C   UNL     1      48.611   9.259  16.858  0.00  0.00    +0.000 A 
ATOM     22 CL   UNL     1      49.102  10.173  15.471  0.00  0.00    +0.000 Cl
ATOM     23  C   UNL     1      47.840   9.928  17.815  0.00  0.00    +0.000 A 
BRANCH  17  25
ATOM     24  N   UNL     1      46.085  10.527  20.790  0.00  0.00    +0.000 NA
ATOM     25  C   UNL     1      46.686   9.961  19.975  0.00  0.00    +0.000 C 
ENDBRANCH  17  25
ENDBRANCH  14  20
ENDBRANCH   1  14
TORSDOF 4
ENDMDL
MODEL 7
REMARK VINA RESULT:    -5.216      3.455      5.028
REMARK INTER + INTRA:          -6.757
REMARK INTER:                  -6.597
REMARK INTRA:                  -0.160
REMARK UNBOUND:                -0.321
REMARK  Name = 
REMARK  4 active torsions:
REMARK  status: ('A' for Active; 'I' for Inactive)
REMARK    1  A    between atoms: C_2  and  C_3
REMARK    2  A    between atoms: C_6  and  C_7
REMARK    3  A    between atoms: C_7  and  N_8
REMARK    4  A    between atoms: C_12  and  C_13
REMARK                            x       y       z     vdW  Elec       q    Type
REMARK                         _______ _______ _______ _____ _____    ______ ____
ROOT
ATOM      1  N   UNL     1      46.751   6.855  13.413  0.00  0.00    +0.000 N 
ATOM      2  C   UNL     1      46.170   5.855  12.643  0.00  0.00    +0.000 A 
ATOM      3  N   UNL     1      46.239   4.635  13.205  0.00  0.00    +0.000 NA
ATOM      4  C   UNL     1      45.553   3.634  12.613  0.00  0.00    +0.000 A 
ATOM      5  C   UNL     1      44.780   3.809  11.491  0.00  0.00    +0.000 A 
ATOM      6  C   UNL     1      44.813   5.074  10.958  0.00  0.00    +0.000 A 
ATOM      7  N   UNL     1      45.502   6.111  11.507  0.00  0.00    +0.000 NA
ATOM      8  H   UNL     1      47.234   6.391  14.175  0.00  0.00    +0.000 HD
ENDROOT
BRANCH   5   9
ATOM      9  C   UNL     1      44.002   2.676  10.965  0.00  0.00    +0.000 C 
ATOM     10  N   UNL     1      44.435   2.079   9.815  0.00  0.00    +0.000 N 
ATOM     11  O   UNL     1      42.963   2.320  11.505  0.00  0.00    +0.000 OA
ATOM     12  H   UNL     1      45.119   2.492   9.195  0.00  0.00    +0.000 HD
ATOM     13  H   UNL     1      43.793   1.409   9.404  0.00  0.00    +0.000 HD
ENDBRANCH   5   9
BRANCH   1  14
ATOM     14  C   UNL     1      47.324   8.104  12.912  0.00  0.00    +0.000 C 
ATOM     15  C   UNL     1      46.508   9.128  12.144  0.00  0.00    +0.000 C 
ATOM     16  C   UNL     1      46.768   9.356  13.595  0.00  0.00    +0.000 C 
BRANCH  14  20
ATOM     17  C   UNL     1      51.660   8.262  12.350  0.00  0.00    +0.000 A 
ATOM     18  C   UNL     1      50.804   8.200  11.250  0.00  0.00    +0.000 A 
ATOM     19  C   UNL     1      49.421   8.096  11.442  0.00  0.00    +0.000 A 
ATOM     20  C   UNL     1      48.849   8.072  12.731  0.00  0.00    +0.000 A 
ATOM     21  C   UNL     1      49.749   8.071  13.820  0.00  0.00    +0.000 A 
ATOM     22 CL   UNL     1      49.184   7.953  15.453  0.00  0.00    +0.000 Cl
ATOM     23  C   UNL     1      51.132   8.170  13.637  0.00  0.00    +0.000 A 
BRANCH  17  25
ATOM     24  N   UNL     1      54.215   8.587  12.036  0.00  0.00    +0.000 NA
ATOM     25  C   UNL     1      53.071   8.448  12.165  0.00  0.00    +0.000 C 
ENDBRANCH  17  25
ENDBRANCH  14  20
ENDBRANCH   1  14
TORSDOF 4
ENDMDL
MODEL 8
REMARK VINA RESULT:    -5.212      4.552      6.873
REMARK INTER + INTRA:          -6.752
REMARK INTER:                  -7.102
REMARK INTRA:                   0.350
REMARK UNBOUND:                -0.321
REMARK  Name = 
REMARK  4 active torsions:
REMARK  status: ('A' for Active; 'I' for Inactive)
REMARK    1  A    between atoms: C_2  and  C_3
REMARK    2  A    between atoms: C_6  and  C_7
REMARK    3  A    between atoms: C_7  and  N_8
REMARK    4  A    between atoms: C_12  and  C_13
REMARK                            x       y       z     vdW  Elec       q    Type
REMARK                         _______ _______ _______ _____ _____    ______ ____
ROOT
ATOM      1  N   UNL     1      47.465   5.109  16.196  0.00  0.00    +0.000 N 
ATOM      2  C   UNL     1      47.168   5.339  14.860  0.00  0.00    +0.000 A 
ATOM      3  N   UNL     1      46.411   4.377  14.303  0.00  0.00    +0.000 NA
ATOM      4  C   UNL     1      45.930   4.599  13.061  0.00  0.00    +0.000 A 
ATOM      5  C   UNL     1      46.157   5.758  12.360  0.00  0.00    +0.000 A 
ATOM      6  C   UNL     1      46.983   6.659  12.985  0.00  0.00    +0.000 A 
ATOM      7  N   UNL     1      47.506   6.474  14.227  0.00  0.00    +0.000 NA
ATOM      8  H   UNL     1      47.153   4.167  16.405  0.00  0.00    +0.000 HD
ENDROOT
BRANCH   5   9
ATOM      9  C   UNL     1      45.522   5.943  11.045  0.00  0.00    +0.000 C 
ATOM     10  N   UNL     1      44.279   6.509  11.006  0.00  0.00    +0.000 N 
ATOM     11  O   UNL     1      46.063   5.542  10.022  0.00  0.00    +0.000 OA
ATOM     12  H   UNL     1      43.688   6.610  11.820  0.00  0.00    +0.000 HD
ATOM     13  H   UNL     1      43.814   6.477  10.106  0.00  0.00    +0.000 HD
ENDBRANCH   5   9
BRANCH   1  14
ATOM     14  C   UNL     1      48.638   5.606  16.916  0.00  0.00    +0.000 C 
ATOM     15  C   UNL     1      48.990   7.081  16.985  0.00  0.00    +0.000 C 
ATOM     16  C   UNL     1      48.297   6.451  18.145  0.00  0.00    +0.000 C 
BRANCH  14  20
ATOM     17  C   UNL     1      51.796   2.691  17.740  0.00  0.00    +0.000 A 
ATOM     18  C   UNL     1      52.105   4.039  17.555  0.00  0.00    +0.000 A 
ATOM     19  C   UNL     1      51.094   4.954  17.239  0.00  0.00    +0.000 A 
ATOM     20  C   UNL     1      49.745   4.560  17.120  0.00  0.00    +0.000 A 
ATOM     21  C   UNL     1      49.478   3.179  17.248  0.00  0.00    +0.000 A 
ATOM     22 CL   UNL     1      47.879   2.548  17.034  0.00  0.00    +0.000 Cl
ATOM     23  C   UNL     1      50.483   2.257  17.560  0.00  0.00    +0.000 A 
BRANCH  17  25
ATOM     24  N   UNL     1      53.635   1.002  18.444  0.00  0.00    +0.000 NA
ATOM     25  C   UNL     1      52.810   1.759  18.142  0.00  0.00    +0.000 C 
ENDBRANCH  17  25
ENDBRANCH  14  20
ENDBRANCH   1  14
TORSDOF 4
ENDMDL
MODEL 9
REMARK VINA RESULT:    -5.136      4.925      7.094
REMARK INTER + INTRA:          -6.659
REMARK INTER:                  -7.124
REMARK INTRA:                   0.465
REMARK UNBOUND:                -0.321
REMARK  Name = 
REMARK  4 active torsions:
REMARK  status: ('A' for Active; 'I' for Inactive)
REMARK    1  A    between atoms: C_2  and  C_3
REMARK    2  A    between atoms: C_6  and  C_7
REMARK    3  A    between atoms: C_7  and  N_8
REMARK    4  A    between atoms: C_12  and  C_13
REMARK                            x       y       z     vdW  Elec       q    Type
REMARK                         _______ _______ _______ _____ _____    ______ ____
ROOT
ATOM      1  N   UNL     1      48.333   5.673  15.857  0.00  0.00    +0.000 N 
ATOM      2  C   UNL     1      47.459   5.230  14.873  0.00  0.00    +0.000 A 
ATOM      3  N   UNL     1      47.149   6.173  13.965  0.00  0.00    +0.000 NA
ATOM      4  C   UNL     1      46.445   5.788  12.878  0.00  0.00    +0.000 A 
ATOM      5  C   UNL     1      46.056   4.490  12.652  0.00  0.00    +0.000 A 
ATOM      6  C   UNL     1      46.370   3.609  13.657  0.00  0.00    +0.000 A 
ATOM      7  N   UNL     1      47.062   3.951  14.778  0.00  0.00    +0.000 NA
ATOM      8  H   UNL     1      48.421   6.676  15.737  0.00  0.00    +0.000 HD
ENDROOT
BRANCH   5   9
ATOM      9  C   UNL     1      45.363   4.152  11.398  0.00  0.00    +0.000 C 
ATOM     10  N   UNL     1      44.958   2.860  11.217  0.00  0.00    +0.000 N 
ATOM     11  O   UNL     1      45.213   4.988  10.516  0.00  0.00    +0.000 OA
ATOM     12  H   UNL     1      45.286   2.089  11.783  0.00  0.00    +0.000 HD
ATOM     13  H   UNL     1      44.627   2.634  10.286  0.00  0.00    +0.000 HD
ENDBRANCH   5   9
BRANCH   1  14
ATOM     14  C   UNL     1      48.439   5.144  17.217  0.00  0.00    +0.000 C 
ATOM     15  C   UNL     1      47.916   5.894  18.428  0.00  0.00    +0.000 C 
ATOM     16  C   UNL     1      47.091   4.795  17.850  0.00  0.00    +0.000 C 
BRANCH  14  20
ATOM     17  C   UNL     1      51.626   2.159  17.499  0.00  0.00    +0.000 A 
ATOM     18  C   UNL     1      50.320   1.776  17.192  0.00  0.00    +0.000 A 
ATOM     19  C   UNL     1      49.298   2.732  17.156  0.00  0.00    +0.000 A 
ATOM     20  C   UNL     1      49.548   4.097  17.404  0.00  0.00    +0.000 A 
ATOM     21  C   UNL     1      50.867   4.439  17.777  0.00  0.00    +0.000 A 
ATOM     22 CL   UNL     1      51.290   6.066  18.196  0.00  0.00    +0.000 Cl
ATOM     23  C   UNL     1      51.893   3.489  17.819  0.00  0.00    +0.000 A 
BRANCH  17  25
ATOM     24  N   UNL     1      53.542   0.412  17.429  0.00  0.00    +0.000 NA
ATOM     25  C   UNL     1      52.694   1.202  17.461  0.00  0.00    +0.000 C 
ENDBRANCH  17  25
ENDBRANCH  14  20
ENDBRANCH   1  14
TORSDOF 4
ENDMDL
