MODEL 1
REMARK VINA RESULT:    -8.069      0.000      0.000
REMARK INTER + INTRA:         -11.666
REMARK INTER:                 -10.900
REMARK INTRA:                  -0.766
REMARK UNBOUND:                -0.766
REMARK  Name = 
REMARK  6 active torsions:
REMARK  status: ('A' for Active; 'I' for Inactive)
REMARK    1  A    between atoms: C_2  and  C_25
REMARK    2  A    between atoms: N_3  and  C_4
REMARK    3  A    between atoms: C_4  and  C_5
REMARK    4  A    between atoms: C_8  and  C_9
REMARK    5  A    between atoms: C_9  and  N_10
REMARK    6  A    between atoms: C_11  and  C_13
REMARK                            x       y       z     vdW  Elec       q    Type
REMARK                         _______ _______ _______ _____ _____    ______ ____
ROOT
ATOM      1  C   UNL     1      44.612   5.068  11.414  0.00  0.00    +0.000 A 
ATOM      2  C   UNL     1      45.745   4.636  12.120  0.00  0.00    +0.000 A 
ATOM      3  C   UNL     1      46.576   5.554  12.777  0.00  0.00    +0.000 A 
ATOM      4  C   UNL     1      46.283   6.924  12.763  0.00  0.00    +0.000 A 
ATOM      5  C   UNL     1      45.150   7.356  12.060  0.00  0.00    +0.000 A 
ATOM      6  C   UNL     1      44.317   6.437  11.406  0.00  0.00    +0.000 A 
ENDROOT
BRANCH   1   7
ATOM      7  C   UNL     1      43.773   4.088  10.635  0.00  0.00    +0.000 C 
BRANCH   7  10
ATOM      8  O   UNL     1      45.161   4.763   8.336  0.00  0.00    +0.000 OA
ATOM      9  C   UNL     1      45.221   3.601   8.724  0.00  0.00    +0.000 C 
ATOM     10  N   UNL     1      44.549   3.160   9.845  0.00  0.00    +0.000 N 
ATOM     11  H   UNL     1      44.754   2.247  10.223  0.00  0.00    +0.000 HD
BRANCH   9  12
ATOM     12  C   UNL     1      46.020   2.602   8.043  0.00  0.00    +0.000 A 
ATOM     13  C   UNL     1      46.958   2.698   7.029  0.00  0.00    +0.000 A 
ATOM     14  C   UNL     1      47.430   1.395   6.736  0.00  0.00    +0.000 A 
ATOM     15  C   UNL     1      46.783   0.527   7.583  0.00  0.00    +0.000 A 
ATOM     16  N   UNL     1      45.949   1.264   8.379  0.00  0.00    +0.000 N 
ATOM     17  H   UNL     1      45.350   0.900   9.113  0.00  0.00    +0.000 HD
ENDBRANCH   9  12
ENDBRANCH   7  10
ENDBRANCH   1   7
BRANCH   4  18
ATOM     18  C   UNL     1      47.172   7.920  13.469  0.00  0.00    +0.000 C 
BRANCH  18  19
ATOM     19  N   UNL     1      47.670   7.407  14.723  0.00  0.00    +0.000 N 
ATOM     20  C   UNL     1      48.968   6.973  14.849  0.00  0.00    +0.000 C 
ATOM     21  O   UNL     1      49.771   7.044  13.922  0.00  0.00    +0.000 OA
ATOM     22  H   UNL     1      46.981   7.120  15.411  0.00  0.00    +0.000 HD
BRANCH  20  23
ATOM     23  C   UNL     1      49.371   6.480  16.174  0.00  0.00    +0.000 A 
ATOM     24  C   UNL     1      50.370   7.135  16.881  0.00  0.00    +0.000 A 
ATOM     25  S   UNL     1      50.671   6.466  18.422  0.00  0.00    +0.000 S 
ATOM     26  C   UNL     1      49.514   5.244  18.175  0.00  0.00    +0.000 A 
ATOM     27  N   UNL     1      49.284   4.297  19.125  0.00  0.00    +0.000 NA
ATOM     28  C   UNL     1      48.403   3.414  18.794  0.00  0.00    +0.000 A 
ATOM     29  N   UNL     1      47.726   3.395  17.603  0.00  0.00    +0.000 N 
ATOM     30  C   UNL     1      47.905   4.343  16.626  0.00  0.00    +0.000 A 
ATOM     31  O   UNL     1      47.258   4.318  15.585  0.00  0.00    +0.000 OA
ATOM     32  C   UNL     1      48.894   5.356  16.943  0.00  0.00    +0.000 A 
ATOM     33  H   UNL     1      47.043   2.678  17.408  0.00  0.00    +0.000 HD
ENDBRANCH  20  23
ENDBRANCH  18  19
ENDBRANCH   4  18
TORSDOF 6
ENDMDL
MODEL 2
REMARK VINA RESULT:    -7.627      1.927      2.277
REMARK INTER + INTRA:         -11.069
REMARK INTER:                 -10.091
REMARK INTRA:                  -0.978
REMARK UNBOUND:                -0.766
REMARK  Name = 
REMARK  6 active torsions:
REMARK  status: ('A' for Active; 'I' for Inactive)
REMARK    1  A    between atoms: C_2  and  C_25
REMARK    2  A    between atoms: N_3  and  C_4
REMARK    3  A    between atoms: C_4  and  C_5
REMARK    4  A    between atoms: C_8  and  C_9
REMARK    5  A    between atoms: C_9  and  N_10
REMARK    6  A    between atoms: C_11  and  C_13
REMARK                            x       y       z     vdW  Elec       q    Type
REMARK                         _______ _______ _______ _____ _____    ______ ____
ROOT
ATOM      1  C   UNL     1      45.224   4.745  11.710  0.00  0.00    +0.000 A 
ATOM      2  C   UNL     1      45.830   4.315  12.900  0.00  0.00    +0.000 A 
ATOM      3  C   UNL     1      46.698   5.157  13.609  0.00  0.00    +0.000 A 
ATOM      4  C   UNL     1      46.963   6.457  13.158  0.00  0.00    +0.000 A 
ATOM      5  C   UNL     1      46.355   6.888  11.972  0.00  0.00    +0.000 A 
ATOM      6  C   UNL     1      45.485   6.047  11.264  0.00  0.00    +0.000 A 
ENDROOT
BRANCH   1   7
ATOM      7  C   UNL     1      44.364   3.805  10.903  0.00  0.00    +0.000 C 
BRANCH   7  10
ATOM      8  O   UNL     1      44.812   4.407   8.238  0.00  0.00    +0.000 OA
ATOM      9  C   UNL     1      45.296   3.372   8.684  0.00  0.00    +0.000 C 
ATOM     10  N   UNL     1      45.114   2.973   9.991  0.00  0.00    +0.000 N 
ATOM     11  H   UNL     1      45.660   2.209  10.361  0.00  0.00    +0.000 HD
BRANCH   9  12
ATOM     12  C   UNL     1      46.116   2.494   7.873  0.00  0.00    +0.000 A 
ATOM     13  C   UNL     1      46.903   2.728   6.757  0.00  0.00    +0.000 A 
ATOM     14  C   UNL     1      47.485   1.500   6.359  0.00  0.00    +0.000 A 
ATOM     15  C   UNL     1      47.057   0.540   7.244  0.00  0.00    +0.000 A 
ATOM     16  N   UNL     1      46.247   1.150   8.163  0.00  0.00    +0.000 N 
ATOM     17  H   UNL     1      45.792   0.698   8.949  0.00  0.00    +0.000 HD
ENDBRANCH   9  12
ENDBRANCH   7  10
ENDBRANCH   1   7
BRANCH   4  18
ATOM     18  C   UNL     1      47.895   7.372  13.918  0.00  0.00    +0.000 C 
BRANCH  18  19
ATOM     19  N   UNL     1      47.980   7.020  15.315  0.00  0.00    +0.000 N 
ATOM     20  C   UNL     1      49.179   6.672  15.889  0.00  0.00    +0.000 C 
ATOM     21  O   UNL     1      50.232   6.690  15.259  0.00  0.00    +0.000 OA
ATOM     22  H   UNL     1      47.114   6.769  15.782  0.00  0.00    +0.000 HD
BRANCH  20  23
ATOM     23  C   UNL     1      49.151   6.343  17.322  0.00  0.00    +0.000 A 
ATOM     24  C   UNL     1      49.665   5.132  17.763  0.00  0.00    +0.000 A 
ATOM     25  S   UNL     1      49.606   4.938  19.458  0.00  0.00    +0.000 S 
ATOM     26  C   UNL     1      48.840   6.443  19.656  0.00  0.00    +0.000 A 
ATOM     27  N   UNL     1      48.481   6.889  20.891  0.00  0.00    +0.000 NA
ATOM     28  C   UNL     1      47.882   8.032  20.891  0.00  0.00    +0.000 A 
ATOM     29  N   UNL     1      47.614   8.774  19.770  0.00  0.00    +0.000 N 
ATOM     30  C   UNL     1      47.980   8.378  18.508  0.00  0.00    +0.000 A 
ATOM     31  O   UNL     1      47.757   9.082  17.528  0.00  0.00    +0.000 OA
ATOM     32  C   UNL     1      48.650   7.093  18.449  0.00  0.00    +0.000 A 
ATOM     33  H   UNL     1      47.147   9.666  19.840  0.00  0.00    +0.000 HD
ENDBRANCH  20  23
ENDBRANCH  18  19
ENDBRANCH   4  18
TORSDOF 6
ENDMDL
MODEL 3
REMARK VINA RESULT:    -7.584      4.605      9.445
REMARK INTER + INTRA:         -11.011
REMARK INTER:                 -10.252
REMARK INTRA:                  -0.759
REMARK UNBOUND:                -0.766
REMARK  Name = 
REMARK  6 active torsions:
REMARK  status: ('A' for Active; 'I' for Inactive)
REMARK    1  A    between atoms: C_2  and  C_25
REMARK    2  A    between atoms: N_3  and  C_4
REMARK    3  A    between atoms: C_4  and  C_5
REMARK    4  A    between atoms: C_8  and  C_9
REMARK    5  A    between atoms: C_9  and  N_10
REMARK    6  A    between atoms: C_11  and  C_13
REMARK                            x       y       z     vdW  Elec       q    Type
REMARK                         _______ _______ _______ _____ _____    ______ ____
ROOT
ATOM      1  C   UNL     1      51.395   2.822  17.710  0.00  0.00    +0.000 A 
ATOM      2  C   UNL     1      50.774   4.006  18.135  0.00  0.00    +0.000 A 
ATOM      3  C   UNL     1      49.418   4.243  17.867  0.00  0.00    +0.000 A 
ATOM      4  C   UNL     1      48.645   3.293  17.188  0.00  0.00    +0.000 A 
ATOM      5  C   UNL     1      49.264   2.108  16.767  0.00  0.00    +0.000 A 
ATOM      6  C   UNL     1      50.619   1.870  17.038  0.00  0.00    +0.000 A 
ENDROOT
BRANCH   1   7
ATOM      7  C   UNL     1      52.873   2.611  17.921  0.00  0.00    +0.000 C 
BRANCH   7  10
ATOM      8  O   UNL     1      53.981   0.373  16.725  0.00  0.00    +0.000 OA
ATOM      9  C   UNL     1      53.758   0.331  17.931  0.00  0.00    +0.000 C 
ATOM     10  N   UNL     1      53.189   1.384  18.615  0.00  0.00    +0.000 N 
ATOM     11  H   UNL     1      53.175   1.374  19.624  0.00  0.00    +0.000 HD
BRANCH   9  12
ATOM     12  C   UNL     1      54.093  -0.827  18.735  0.00  0.00    +0.000 A 
ATOM     13  C   UNL     1      55.277  -1.234  19.327  0.00  0.00    +0.000 A 
ATOM     14  C   UNL     1      55.040  -2.459  19.998  0.00  0.00    +0.000 A 
ATOM     15  C   UNL     1      53.714  -2.773  19.816  0.00  0.00    +0.000 A 
ATOM     16  N   UNL     1      53.147  -1.777  19.070  0.00  0.00    +0.000 N 
ATOM     17  H   UNL     1      52.174  -1.725  18.786  0.00  0.00    +0.000 HD
ENDBRANCH   9  12
ENDBRANCH   7  10
ENDBRANCH   1   7
BRANCH   4  18
ATOM     18  C   UNL     1      47.184   3.539  16.898  0.00  0.00    +0.000 C 
BRANCH  18  19
ATOM     19  N   UNL     1      46.994   4.570  15.906  0.00  0.00    +0.000 N 
ATOM     20  C   UNL     1      47.063   4.286  14.563  0.00  0.00    +0.000 C 
ATOM     21  O   UNL     1      47.240   3.145  14.148  0.00  0.00    +0.000 OA
ATOM     22  H   UNL     1      47.087   5.532  16.216  0.00  0.00    +0.000 HD
BRANCH  20  23
ATOM     23  C   UNL     1      46.843   5.410  13.642  0.00  0.00    +0.000 A 
ATOM     24  C   UNL     1      47.884   6.282  13.355  0.00  0.00    +0.000 A 
ATOM     25  S   UNL     1      47.473   7.493  12.224  0.00  0.00    +0.000 S 
ATOM     26  C   UNL     1      45.873   6.925  12.119  0.00  0.00    +0.000 A 
ATOM     27  N   UNL     1      44.962   7.545  11.321  0.00  0.00    +0.000 NA
ATOM     28  C   UNL     1      43.780   7.028  11.361  0.00  0.00    +0.000 A 
ATOM     29  N   UNL     1      43.427   5.944  12.122  0.00  0.00    +0.000 N 
ATOM     30  C   UNL     1      44.317   5.271  12.921  0.00  0.00    +0.000 A 
ATOM     31  O   UNL     1      43.978   4.282  13.563  0.00  0.00    +0.000 OA
ATOM     32  C   UNL     1      45.661   5.818  12.921  0.00  0.00    +0.000 A 
ATOM     33  H   UNL     1      42.484   5.584  12.103  0.00  0.00    +0.000 HD
ENDBRANCH  20  23
ENDBRANCH  18  19
ENDBRANCH   4  18
TORSDOF 6
ENDMDL
MODEL 4
REMARK VINA RESULT:    -7.339      4.598      9.302
REMARK INTER + INTRA:         -10.679
REMARK INTER:                  -9.613
REMARK INTRA:                  -1.066
REMARK UNBOUND:                -0.766
REMARK  Name = 
REMARK  6 active torsions:
REMARK  status: ('A' for Active; 'I' for Inactive)
REMARK    1  A    between atoms: C_2  and  C_25
REMARK    2  A    between atoms: N_3  and  C_4
REMARK    3  A    between atoms: C_4  and  C_5
REMARK    4  A    between atoms: C_8  and  C_9
REMARK    5  A    between atoms: C_9  and  N_10
REMARK    6  A    between atoms: C_11  and  C_13
REMARK                            x       y       z     vdW  Elec       q    Type
REMARK                         _______ _______ _______ _____ _____    ______ ____
ROOT
ATOM      1  C   UNL     1      51.369   2.887  17.755  0.00  0.00    +0.000 A 
ATOM      2  C   UNL     1      50.827   4.150  18.035  0.00  0.00    +0.000 A 
ATOM      3  C   UNL     1      49.491   4.442  17.729  0.00  0.00    +0.000 A 
ATOM      4  C   UNL     1      48.657   3.471  17.158  0.00  0.00    +0.000 A 
ATOM      5  C   UNL     1      49.197   2.208  16.883  0.00  0.00    +0.000 A 
ATOM      6  C   UNL     1      50.533   1.915  17.191  0.00  0.00    +0.000 A 
ENDROOT
BRANCH   1   7
ATOM      7  C   UNL     1      52.830   2.606  18.002  0.00  0.00    +0.000 C 
BRANCH   7  10
ATOM      8  O   UNL     1      54.429   0.717  16.760  0.00  0.00    +0.000 OA
ATOM      9  C   UNL     1      53.914   0.420  17.832  0.00  0.00    +0.000 C 
ATOM     10  N   UNL     1      53.085   1.281  18.520  0.00  0.00    +0.000 N 
ATOM     11  H   UNL     1      52.818   1.065  19.469  0.00  0.00    +0.000 HD
BRANCH   9  12
ATOM     12  C   UNL     1      54.152  -0.859  18.472  0.00  0.00    +0.000 A 
ATOM     13  C   UNL     1      55.315  -1.567  18.725  0.00  0.00    +0.000 A 
ATOM     14  C   UNL     1      54.966  -2.776  19.376  0.00  0.00    +0.000 A 
ATOM     15  C   UNL     1      53.599  -2.781  19.521  0.00  0.00    +0.000 A 
ATOM     16  N   UNL     1      53.118  -1.615  18.990  0.00  0.00    +0.000 N 
ATOM     17  H   UNL     1      52.145  -1.329  18.964  0.00  0.00    +0.000 HD
ENDBRANCH   9  12
ENDBRANCH   7  10
ENDBRANCH   1   7
BRANCH   4  18
ATOM     18  C   UNL     1      47.216   3.777  16.828  0.00  0.00    +0.000 C 
BRANCH  18  19
ATOM     19  N   UNL     1      47.096   4.738  15.757  0.00  0.00    +0.000 N 
ATOM     20  C   UNL     1      47.140   4.345  14.441  0.00  0.00    +0.000 C 
ATOM     21  O   UNL     1      47.234   3.165  14.117  0.00  0.00    +0.000 OA
ATOM     22  H   UNL     1      47.258   5.712  15.991  0.00  0.00    +0.000 HD
BRANCH  20  23
ATOM     23  C   UNL     1      46.998   5.406  13.434  0.00  0.00    +0.000 A 
ATOM     24  C   UNL     1      45.972   5.343  12.502  0.00  0.00    +0.000 A 
ATOM     25  S   UNL     1      45.918   6.683  11.446  0.00  0.00    +0.000 S 
ATOM     26  C   UNL     1      47.300   7.369  12.163  0.00  0.00    +0.000 A 
ATOM     27  N   UNL     1      47.815   8.543  11.707  0.00  0.00    +0.000 NA
ATOM     28  C   UNL     1      48.881   8.931  12.323  0.00  0.00    +0.000 A 
ATOM     29  N   UNL     1      49.475   8.257  13.357  0.00  0.00    +0.000 N 
ATOM     30  C   UNL     1      48.977   7.084  13.868  0.00  0.00    +0.000 A 
ATOM     31  O   UNL     1      49.513   6.523  14.818  0.00  0.00    +0.000 OA
ATOM     32  C   UNL     1      47.783   6.596  13.205  0.00  0.00    +0.000 A 
ATOM     33  H   UNL     1      50.306   8.620  13.801  0.00  0.00    +0.000 HD
ENDBRANCH  20  23
ENDBRANCH  18  19
ENDBRANCH   4  18
TORSDOF 6
ENDMDL
MODEL 5
REMARK VINA RESULT:    -6.681      2.211      3.111
REMARK INTER + INTRA:          -9.791
REMARK INTER:                  -8.834
REMARK INTRA:                  -0.957
REMARK UNBOUND:                -0.766
REMARK  Name = 
REMARK  6 active torsions:
REMARK  status: ('A' for Active; 'I' for Inactive)
REMARK    1  A    between atoms: C_2  and  C_25
REMARK    2  A    between atoms: N_3  and  C_4
REMARK    3  A    between atoms: C_4  and  C_5
REMARK    4  A    between atoms: C_8  and  C_9
REMARK    5  A    between atoms: C_9  and  N_10
REMARK    6  A    between atoms: C_11  and  C_13
REMARK                            x       y       z     vdW  Elec       q    Type
REMARK                         _______ _______ _______ _____ _____    ______ ____
ROOT
ATOM      1  C   UNL     1      45.591   6.345  11.622  0.00  0.00    +0.000 A 
ATOM      2  C   UNL     1      45.456   7.717  11.882  0.00  0.00    +0.000 A 
ATOM      3  C   UNL     1      46.278   8.355  12.822  0.00  0.00    +0.000 A 
ATOM      4  C   UNL     1      47.271   7.641  13.507  0.00  0.00    +0.000 A 
ATOM      5  C   UNL     1      47.409   6.272  13.244  0.00  0.00    +0.000 A 
ATOM      6  C   UNL     1      46.589   5.635  12.302  0.00  0.00    +0.000 A 
ENDROOT
BRANCH   1   7
ATOM      7  C   UNL     1      44.646   5.646  10.678  0.00  0.00    +0.000 C 
BRANCH   7  10
ATOM      8  O   UNL     1      44.492   2.913  10.258  0.00  0.00    +0.000 OA
ATOM      9  C   UNL     1      45.158   3.580   9.472  0.00  0.00    +0.000 C 
ATOM     10  N   UNL     1      45.313   4.943   9.606  0.00  0.00    +0.000 N 
ATOM     11  H   UNL     1      45.726   5.475   8.854  0.00  0.00    +0.000 HD
BRANCH   9  12
ATOM     12  C   UNL     1      45.818   2.986   8.327  0.00  0.00    +0.000 A 
ATOM     13  C   UNL     1      46.217   3.514   7.109  0.00  0.00    +0.000 A 
ATOM     14  C   UNL     1      46.814   2.478   6.351  0.00  0.00    +0.000 A 
ATOM     15  C   UNL     1      46.782   1.339   7.120  0.00  0.00    +0.000 A 
ATOM     16  N   UNL     1      46.197   1.658   8.315  0.00  0.00    +0.000 N 
ATOM     17  H   UNL     1      46.047   1.025   9.093  0.00  0.00    +0.000 HD
ENDBRANCH   9  12
ENDBRANCH   7  10
ENDBRANCH   1   7
BRANCH   4  18
ATOM     18  C   UNL     1      48.162   8.321  14.519  0.00  0.00    +0.000 C 
BRANCH  18  19
ATOM     19  N   UNL     1      49.097   7.401  15.122  0.00  0.00    +0.000 N 
ATOM     20  C   UNL     1      49.155   7.238  16.486  0.00  0.00    +0.000 C 
ATOM     21  O   UNL     1      48.389   7.826  17.244  0.00  0.00    +0.000 OA
ATOM     22  H   UNL     1      49.879   7.096  14.551  0.00  0.00    +0.000 HD
BRANCH  20  23
ATOM     23  C   UNL     1      50.136   6.268  16.991  0.00  0.00    +0.000 A 
ATOM     24  C   UNL     1      49.729   5.252  17.845  0.00  0.00    +0.000 A 
ATOM     25  S   UNL     1      50.983   4.182  18.287  0.00  0.00    +0.000 S 
ATOM     26  C   UNL     1      52.126   5.071  17.395  0.00  0.00    +0.000 A 
ATOM     27  N   UNL     1      53.435   4.698  17.368  0.00  0.00    +0.000 NA
ATOM     28  C   UNL     1      54.196   5.479  16.677  0.00  0.00    +0.000 A 
ATOM     29  N   UNL     1      53.768   6.595  16.007  0.00  0.00    +0.000 N 
ATOM     30  C   UNL     1      52.455   6.996  15.985  0.00  0.00    +0.000 A 
ATOM     31  O   UNL     1      52.098   7.981  15.347  0.00  0.00    +0.000 OA
ATOM     32  C   UNL     1      51.556   6.157  16.755  0.00  0.00    +0.000 A 
ATOM     33  H   UNL     1      54.416   7.161  15.479  0.00  0.00    +0.000 HD
ENDBRANCH  20  23
ENDBRANCH  18  19
ENDBRANCH   4  18
TORSDOF 6
ENDMDL
MODEL 6
REMARK VINA RESULT:    -6.653      3.154      4.527
REMARK INTER + INTRA:          -9.753
REMARK INTER:                  -8.889
REMARK INTRA:                  -0.864
REMARK UNBOUND:                -0.766
REMARK  Name = 
REMARK  6 active torsions:
REMARK  status: ('A' for Active; 'I' for Inactive)
REMARK    1  A    between atoms: C_2  and  C_25
REMARK    2  A    between atoms: N_3  and  C_4
REMARK    3  A    between atoms: C_4  and  C_5
REMARK    4  A    between atoms: C_8  and  C_9
REMARK    5  A    between atoms: C_9  and  N_10
REMARK    6  A    between atoms: C_11  and  C_13
REMARK                            x       y       z     vdW  Elec       q    Type
REMARK                         _______ _______ _______ _____ _____    ______ ____
ROOT
ATOM      1  C   UNL     1      45.069   3.966  12.080  0.00  0.00    +0.000 A 
ATOM      2  C   UNL     1      46.041   3.362  12.891  0.00  0.00    +0.000 A 
ATOM      3  C   UNL     1      46.888   4.137  13.696  0.00  0.00    +0.000 A 
ATOM      4  C   UNL     1      46.768   5.532  13.727  0.00  0.00    +0.000 A 
ATOM      5  C   UNL     1      45.794   6.135  12.920  0.00  0.00    +0.000 A 
ATOM      6  C   UNL     1      44.945   5.360  12.118  0.00  0.00    +0.000 A 
ENDROOT
BRANCH   1   7
ATOM      7  C   UNL     1      44.222   3.136  11.149  0.00  0.00    +0.000 C 
BRANCH   7  10
ATOM      8  O   UNL     1      44.714   4.435   8.754  0.00  0.00    +0.000 OA
ATOM      9  C   UNL     1      45.168   3.305   8.900  0.00  0.00    +0.000 C 
ATOM     10  N   UNL     1      44.962   2.567  10.045  0.00  0.00    +0.000 N 
ATOM     11  H   UNL     1      45.485   1.717  10.193  0.00  0.00    +0.000 HD
BRANCH   9  12
ATOM     12  C   UNL     1      45.976   2.663   7.882  0.00  0.00    +0.000 A 
ATOM     13  C   UNL     1      46.413   3.090   6.639  0.00  0.00    +0.000 A 
ATOM     14  C   UNL     1      47.174   2.048   6.054  0.00  0.00    +0.000 A 
ATOM     15  C   UNL     1      47.201   1.008   6.953  0.00  0.00    +0.000 A 
ATOM     16  N   UNL     1      46.492   1.394   8.058  0.00  0.00    +0.000 N 
ATOM     17  H   UNL     1      46.348   0.841   8.897  0.00  0.00    +0.000 HD
ENDBRANCH   9  12
ENDBRANCH   7  10
ENDBRANCH   1   7
BRANCH   4  18
ATOM     18  C   UNL     1      47.674   6.374  14.593  0.00  0.00    +0.000 C 
BRANCH  18  19
ATOM     19  N   UNL     1      48.888   6.748  13.906  0.00  0.00    +0.000 N 
ATOM     20  C   UNL     1      49.111   8.045  13.510  0.00  0.00    +0.000 C 
ATOM     21  O   UNL     1      48.318   8.947  13.762  0.00  0.00    +0.000 OA
ATOM     22  H   UNL     1      49.429   5.999  13.485  0.00  0.00    +0.000 HD
BRANCH  20  23
ATOM     23  C   UNL     1      50.385   8.314  12.828  0.00  0.00    +0.000 A 
ATOM     24  C   UNL     1      50.536   7.983  11.489  0.00  0.00    +0.000 A 
ATOM     25  S   UNL     1      52.054   8.417  10.841  0.00  0.00    +0.000 S 
ATOM     26  C   UNL     1      52.583   9.013  12.344  0.00  0.00    +0.000 A 
ATOM     27  N   UNL     1      53.836   9.523  12.492  0.00  0.00    +0.000 NA
ATOM     28  C   UNL     1      54.114   9.911  13.691  0.00  0.00    +0.000 A 
ATOM     29  N   UNL     1      53.252   9.842  14.755  0.00  0.00    +0.000 N 
ATOM     30  C   UNL     1      51.971   9.360  14.647  0.00  0.00    +0.000 A 
ATOM     31  O   UNL     1      51.212   9.343  15.611  0.00  0.00    +0.000 OA
ATOM     32  C   UNL     1      51.609   8.900  13.320  0.00  0.00    +0.000 A 
ATOM     33  H   UNL     1      53.530  10.169  15.668  0.00  0.00    +0.000 HD
ENDBRANCH  20  23
ENDBRANCH  18  19
ENDBRANCH   4  18
TORSDOF 6
ENDMDL
MODEL 7
REMARK VINA RESULT:    -6.607      5.038      7.910
REMARK INTER + INTRA:          -9.691
REMARK INTER:                  -8.804
REMARK INTRA:                  -0.887
REMARK UNBOUND:                -0.766
REMARK  Name = 
REMARK  6 active torsions:
REMARK  status: ('A' for Active; 'I' for Inactive)
REMARK    1  A    between atoms: C_2  and  C_25
REMARK    2  A    between atoms: N_3  and  C_4
REMARK    3  A    between atoms: C_4  and  C_5
REMARK    4  A    between atoms: C_8  and  C_9
REMARK    5  A    between atoms: C_9  and  N_10
REMARK    6  A    between atoms: C_11  and  C_13
REMARK                            x       y       z     vdW  Elec       q    Type
REMARK                         _______ _______ _______ _____ _____    ______ ____
ROOT
ATOM      1  C   UNL     1      50.741   8.903  11.322  0.00  0.00    +0.000 A 
ATOM      2  C   UNL     1      49.872  10.003  11.375  0.00  0.00    +0.000 A 
ATOM      3  C   UNL     1      48.508   9.828  11.650  0.00  0.00    +0.000 A 
ATOM      4  C   UNL     1      47.985   8.553  11.901  0.00  0.00    +0.000 A 
ATOM      5  C   UNL     1      48.854   7.455  11.853  0.00  0.00    +0.000 A 
ATOM      6  C   UNL     1      50.218   7.630  11.581  0.00  0.00    +0.000 A 
ENDROOT
BRANCH   1   7
ATOM      7  C   UNL     1      52.188   9.085  10.938  0.00  0.00    +0.000 C 
BRANCH   7  10
ATOM      8  O   UNL     1      52.670   9.284   8.218  0.00  0.00    +0.000 OA
ATOM      9  C   UNL     1      52.931   8.221   8.773  0.00  0.00    +0.000 C 
ATOM     10  N   UNL     1      52.708   8.015  10.118  0.00  0.00    +0.000 N 
ATOM     11  H   UNL     1      53.086   7.194  10.567  0.00  0.00    +0.000 HD
BRANCH   9  12
ATOM     12  C   UNL     1      53.513   7.103   8.059  0.00  0.00    +0.000 A 
ATOM     13  C   UNL     1      52.953   6.116   7.264  0.00  0.00    +0.000 A 
ATOM     14  C   UNL     1      53.991   5.261   6.820  0.00  0.00    +0.000 A 
ATOM     15  C   UNL     1      55.168   5.745   7.339  0.00  0.00    +0.000 A 
ATOM     16  N   UNL     1      54.874   6.864   8.069  0.00  0.00    +0.000 N 
ATOM     17  H   UNL     1      55.542   7.448   8.561  0.00  0.00    +0.000 HD
ENDBRANCH   9  12
ENDBRANCH   7  10
ENDBRANCH   1   7
BRANCH   4  18
ATOM     18  C   UNL     1      46.518   8.357  12.201  0.00  0.00    +0.000 C 
BRANCH  18  19
ATOM     19  N   UNL     1      46.095   6.996  11.970  0.00  0.00    +0.000 N 
ATOM     20  C   UNL     1      44.820   6.710  11.545  0.00  0.00    +0.000 C 
ATOM     21  O   UNL     1      44.002   7.592  11.299  0.00  0.00    +0.000 OA
ATOM     22  H   UNL     1      46.657   6.261  12.388  0.00  0.00    +0.000 HD
BRANCH  20  23
ATOM     23  C   UNL     1      44.501   5.291  11.332  0.00  0.00    +0.000 A 
ATOM     24  C   UNL     1      43.742   4.604  12.269  0.00  0.00    +0.000 A 
ATOM     25  S   UNL     1      43.417   2.985  11.837  0.00  0.00    +0.000 S 
ATOM     26  C   UNL     1      44.326   3.130  10.407  0.00  0.00    +0.000 A 
ATOM     27  N   UNL     1      44.477   2.073   9.563  0.00  0.00    +0.000 NA
ATOM     28  C   UNL     1      45.215   2.315   8.533  0.00  0.00    +0.000 A 
ATOM     29  N   UNL     1      45.812   3.519   8.265  0.00  0.00    +0.000 N 
ATOM     30  C   UNL     1      45.668   4.620   9.072  0.00  0.00    +0.000 A 
ATOM     31  O   UNL     1      46.187   5.694   8.786  0.00  0.00    +0.000 OA
ATOM     32  C   UNL     1      44.854   4.400  10.252  0.00  0.00    +0.000 A 
ATOM     33  H   UNL     1      46.374   3.644   7.435  0.00  0.00    +0.000 HD
ENDBRANCH  20  23
ENDBRANCH  18  19
ENDBRANCH   4  18
TORSDOF 6
ENDMDL
MODEL 8
REMARK VINA RESULT:    -5.996      5.446      7.083
REMARK INTER + INTRA:          -8.865
REMARK INTER:                  -8.368
REMARK INTRA:                  -0.497
REMARK UNBOUND:                -0.766
REMARK  Name = 
REMARK  6 active torsions:
REMARK  status: ('A' for Active; 'I' for Inactive)
REMARK    1  A    between atoms: C_2  and  C_25
REMARK    2  A    between atoms: N_3  and  C_4
REMARK    3  A    between atoms: C_4  and  C_5
REMARK    4  A    between atoms: C_8  and  C_9
REMARK    5  A    between atoms: C_9  and  N_10
REMARK    6  A    between atoms: C_11  and  C_13
REMARK                            x       y       z     vdW  Elec       q    Type
REMARK                         _______ _______ _______ _____ _____    ______ ____
ROOT
ATOM      1  C   UNL     1      52.471   8.408   9.689  0.00  0.00    +0.000 A 
ATOM      2  C   UNL     1      51.799   7.268  10.154  0.00  0.00    +0.000 A 
ATOM      3  C   UNL     1      50.789   7.374  11.121  0.00  0.00    +0.000 A 
ATOM      4  C   UNL     1      50.412   8.624  11.630  0.00  0.00    +0.000 A 
ATOM      5  C   UNL     1      51.081   9.763  11.163  0.00  0.00    +0.000 A 
ATOM      6  C   UNL     1      52.088   9.658  10.194  0.00  0.00    +0.000 A 
ENDROOT
BRANCH   1   7
ATOM      7  C   UNL     1      53.617   8.281   8.717  0.00  0.00    +0.000 C 
BRANCH   7  10
ATOM      8  O   UNL     1      52.704   6.737   6.608  0.00  0.00    +0.000 OA
ATOM      9  C   UNL     1      53.517   6.237   7.378  0.00  0.00    +0.000 C 
ATOM     10  N   UNL     1      54.017   6.915   8.469  0.00  0.00    +0.000 N 
ATOM     11  H   UNL     1      54.801   6.534   8.978  0.00  0.00    +0.000 HD
BRANCH   9  12
ATOM     12  C   UNL     1      54.033   4.896   7.188  0.00  0.00    +0.000 A 
ATOM     13  C   UNL     1      55.201   4.283   7.609  0.00  0.00    +0.000 A 
ATOM     14  C   UNL     1      55.200   2.949   7.132  0.00  0.00    +0.000 A 
ATOM     15  C   UNL     1      54.028   2.766   6.438  0.00  0.00    +0.000 A 
ATOM     16  N   UNL     1      53.322   3.937   6.492  0.00  0.00    +0.000 N 
ATOM     17  H   UNL     1      52.410   4.102   6.082  0.00  0.00    +0.000 HD
ENDBRANCH   9  12
ENDBRANCH   7  10
ENDBRANCH   1   7
BRANCH   4  18
ATOM     18  C   UNL     1      49.324   8.746  12.670  0.00  0.00    +0.000 C 
BRANCH  18  19
ATOM     19  N   UNL     1      48.096   8.117  12.247  0.00  0.00    +0.000 N 
ATOM     20  C   UNL     1      47.455   7.199  13.044  0.00  0.00    +0.000 C 
ATOM     21  O   UNL     1      47.867   6.910  14.164  0.00  0.00    +0.000 OA
ATOM     22  H   UNL     1      47.874   8.156  11.257  0.00  0.00    +0.000 HD
BRANCH  20  23
ATOM     23  C   UNL     1      46.207   6.629  12.518  0.00  0.00    +0.000 A 
ATOM     24  C   UNL     1      45.265   7.456  11.923  0.00  0.00    +0.000 A 
ATOM     25  S   UNL     1      43.904   6.623  11.316  0.00  0.00    +0.000 S 
ATOM     26  C   UNL     1      44.502   5.133  11.877  0.00  0.00    +0.000 A 
ATOM     27  N   UNL     1      43.794   3.984  11.699  0.00  0.00    +0.000 NA
ATOM     28  C   UNL     1      44.351   2.933  12.200  0.00  0.00    +0.000 A 
ATOM     29  N   UNL     1      45.553   2.924  12.857  0.00  0.00    +0.000 N 
ATOM     30  C   UNL     1      46.315   4.052  13.037  0.00  0.00    +0.000 A 
ATOM     31  O   UNL     1      47.404   4.005  13.599  0.00  0.00    +0.000 OA
ATOM     32  C   UNL     1      45.730   5.266  12.501  0.00  0.00    +0.000 A 
ATOM     33  H   UNL     1      45.937   2.064  13.220  0.00  0.00    +0.000 HD
ENDBRANCH  20  23
ENDBRANCH  18  19
ENDBRANCH   4  18
TORSDOF 6
ENDMDL
MODEL 9
REMARK VINA RESULT:    -5.782      5.374      7.517
REMARK INTER + INTRA:          -8.576
REMARK INTER:                  -7.662
REMARK INTRA:                  -0.915
REMARK UNBOUND:                -0.766
REMARK  Name = 
REMARK  6 active torsions:
REMARK  status: ('A' for Active; 'I' for Inactive)
REMARK    1  A    between atoms: C_2  and  C_25
REMARK    2  A    between atoms: N_3  and  C_4
REMARK    3  A    between atoms: C_4  and  C_5
REMARK    4  A    between atoms: C_8  and  C_9
REMARK    5  A    between atoms: C_9  and  N_10
REMARK    6  A    between atoms: C_11  and  C_13
REMARK                            x       y       z     vdW  Elec       q    Type
REMARK                         _______ _______ _______ _____ _____    ______ ____
ROOT
ATOM      1  C   UNL     1      53.073   8.043  10.822  0.00  0.00    +0.000 A 
ATOM      2  C   UNL     1      51.933   7.374  10.350  0.00  0.00    +0.000 A 
ATOM      3  C   UNL     1      50.653   7.733  10.795  0.00  0.00    +0.000 A 
ATOM      4  C   UNL     1      50.479   8.784  11.705  0.00  0.00    +0.000 A 
ATOM      5  C   UNL     1      51.616   9.455  12.173  0.00  0.00    +0.000 A 
ATOM      6  C   UNL     1      52.896   9.098  11.726  0.00  0.00    +0.000 A 
ENDROOT
BRANCH   1   7
ATOM      7  C   UNL     1      54.452   7.595  10.411  0.00  0.00    +0.000 C 
BRANCH   7  10
ATOM      8  O   UNL     1      54.713   4.840  10.319  0.00  0.00    +0.000 OA
ATOM      9  C   UNL     1      54.585   5.442   9.258  0.00  0.00    +0.000 C 
ATOM     10  N   UNL     1      54.468   6.814   9.195  0.00  0.00    +0.000 N 
ATOM     11  H   UNL     1      54.200   7.253   8.327  0.00  0.00    +0.000 HD
BRANCH   9  12
ATOM     12  C   UNL     1      54.526   4.753   7.984  0.00  0.00    +0.000 A 
ATOM     13  C   UNL     1      54.150   5.172   6.719  0.00  0.00    +0.000 A 
ATOM     14  C   UNL     1      54.278   4.076   5.831  0.00  0.00    +0.000 A 
ATOM     15  C   UNL     1      54.741   3.009   6.565  0.00  0.00    +0.000 A 
ATOM     16  N   UNL     1      54.904   3.430   7.856  0.00  0.00    +0.000 N 
ATOM     17  H   UNL     1      55.247   2.867   8.628  0.00  0.00    +0.000 HD
ENDBRANCH   9  12
ENDBRANCH   7  10
ENDBRANCH   1   7
BRANCH   4  18
ATOM     18  C   UNL     1      49.104   9.179  12.187  0.00  0.00    +0.000 C 
BRANCH  18  19
ATOM     19  N   UNL     1      48.153   8.101  12.055  0.00  0.00    +0.000 N 
ATOM     20  C   UNL     1      47.640   7.466  13.161  0.00  0.00    +0.000 C 
ATOM     21  O   UNL     1      47.928   7.813  14.302  0.00  0.00    +0.000 OA
ATOM     22  H   UNL     1      48.089   7.650  11.148  0.00  0.00    +0.000 HD
BRANCH  20  23
ATOM     23  C   UNL     1      46.671   6.389  12.910  0.00  0.00    +0.000 A 
ATOM     24  C   UNL     1      46.969   5.088  13.290  0.00  0.00    +0.000 A 
ATOM     25  S   UNL     1      45.712   3.976  12.978  0.00  0.00    +0.000 S 
ATOM     26  C   UNL     1      44.747   5.186  12.272  0.00  0.00    +0.000 A 
ATOM     27  N   UNL     1      43.519   4.894  11.764  0.00  0.00    +0.000 NA
ATOM     28  C   UNL     1      42.909   5.900  11.232  0.00  0.00    +0.000 A 
ATOM     29  N   UNL     1      43.412   7.173  11.168  0.00  0.00    +0.000 N 
ATOM     30  C   UNL     1      44.634   7.521  11.690  0.00  0.00    +0.000 A 
ATOM     31  O   UNL     1      45.041   8.677  11.648  0.00  0.00    +0.000 OA
ATOM     32  C   UNL     1      45.367   6.424  12.292  0.00  0.00    +0.000 A 
ATOM     33  H   UNL     1      42.880   7.918  10.743  0.00  0.00    +0.000 HD
ENDBRANCH  20  23
ENDBRANCH  18  19
ENDBRANCH   4  18
TORSDOF 6
ENDMDL
