MODEL 1
REMARK VINA RESULT:    -6.541      0.000      0.000
REMARK INTER + INTRA:          -8.845
REMARK INTER:                  -8.261
REMARK INTRA:                  -0.583
REMARK UNBOUND:                -0.583
REMARK  Name = 
REMARK  5 active torsions:
REMARK  status: ('A' for Active; 'I' for Inactive)
REMARK    1  A    between atoms: N_1  and  C_2
REMARK    2  A    between atoms: C_2  and  C_17
REMARK    3  A    between atoms: C_3  and  C_4
REMARK    4  A    between atoms: C_7  and  C_8
REMARK    5  A    between atoms: C_8  and  N_9
REMARK                            x       y       z     vdW  Elec       q    Type
REMARK                         _______ _______ _______ _____ _____    ______ ____
ROOT
ATOM      1  C   UNL     1      47.831   4.718  16.196  0.00  0.00    +0.000 C 
ATOM      2  C   UNL     1      47.780   5.270  14.963  0.00  0.00    +0.000 C 
ENDROOT
BRANCH   1   3
ATOM      3  C   UNL     1      48.574   5.367  17.245  0.00  0.00    +0.000 A 
ATOM      4  C   UNL     1      48.163   6.569  17.789  0.00  0.00    +0.000 A 
ATOM      5  S   UNL     1      49.233   7.133  19.000  0.00  0.00    +0.000 S 
ATOM      6  C   UNL     1      50.234   5.763  18.843  0.00  0.00    +0.000 A 
ATOM      7  N   UNL     1      51.359   5.608  19.589  0.00  0.00    +0.000 NA
ATOM      8  C   UNL     1      52.002   4.512  19.358  0.00  0.00    +0.000 A 
ATOM      9  N   UNL     1      51.625   3.551  18.455  0.00  0.00    +0.000 N 
ATOM     10  C   UNL     1      50.480   3.646  17.693  0.00  0.00    +0.000 A 
ATOM     11  O   UNL     1      50.132   2.735  16.945  0.00  0.00    +0.000 OA
ATOM     12  C   UNL     1      49.752   4.881  17.888  0.00  0.00    +0.000 A 
ATOM     13  H   UNL     1      52.157   2.702  18.348  0.00  0.00    +0.000 HD
ENDBRANCH   1   3
BRANCH   2  14
ATOM     14  C   UNL     1      46.867   4.819  13.901  0.00  0.00    +0.000 A 
ATOM     15  C   UNL     1      45.959   5.752  13.387  0.00  0.00    +0.000 A 
ATOM     16  C   UNL     1      44.970   5.363  12.482  0.00  0.00    +0.000 A 
ATOM     17  C   UNL     1      44.868   4.032  12.058  0.00  0.00    +0.000 A 
ATOM     18  C   UNL     1      45.825   3.111  12.524  0.00  0.00    +0.000 A 
ATOM     19  C   UNL     1      46.815   3.504  13.443  0.00  0.00    +0.000 A 
BRANCH  17  20
ATOM     20  C   UNL     1      43.650   3.580  11.279  0.00  0.00    +0.000 C 
BRANCH  20  21
ATOM     21  N   UNL     1      43.724   3.384   9.837  0.00  0.00    +0.000 NA
ATOM     22  C   UNL     1      44.227   2.099   9.356  0.00  0.00    +0.000 C 
ATOM     23  C   UNL     1      45.724   2.084   9.005  0.00  0.00    +0.000 C 
ATOM     24  O   UNL     1      46.091   3.176   8.151  0.00  0.00    +0.000 OA
ATOM     25  C   UNL     1      45.732   4.431   8.739  0.00  0.00    +0.000 C 
ATOM     26  C   UNL     1      44.226   4.496   9.028  0.00  0.00    +0.000 C 
ENDBRANCH  20  21
ENDBRANCH  17  20
ENDBRANCH   2  14
BRANCH   1  27
ATOM     27  N   UNL     1      47.155   3.562  16.550  0.00  0.00    +0.000 N 
ATOM     28  H   UNL     1      47.000   3.508  17.554  0.00  0.00    +0.000 HD
ATOM     29  H   UNL     1      46.278   3.469  16.042  0.00  0.00    +0.000 HD
ENDBRANCH   1  27
TORSDOF 5
ENDMDL
MODEL 2
REMARK VINA RESULT:    -6.157      4.316      9.173
REMARK INTER + INTRA:          -8.361
REMARK INTER:                  -7.685
REMARK INTRA:                  -0.676
REMARK UNBOUND:                -0.583
REMARK  Name = 
REMARK  5 active torsions:
REMARK  status: ('A' for Active; 'I' for Inactive)
REMARK    1  A    between atoms: N_1  and  C_2
REMARK    2  A    between atoms: C_2  and  C_17
REMARK    3  A    between atoms: C_3  and  C_4
REMARK    4  A    between atoms: C_7  and  C_8
REMARK    5  A    between atoms: C_8  and  N_9
REMARK                            x       y       z     vdW  Elec       q    Type
REMARK                         _______ _______ _______ _____ _____    ______ ____
ROOT
ATOM      1  C   UNL     1      45.555   6.310  11.454  0.00  0.00    +0.000 C 
ATOM      2  C   UNL     1      46.813   6.359  11.948  0.00  0.00    +0.000 C 
ENDROOT
BRANCH   1   3
ATOM      3  C   UNL     1      44.892   5.042  11.296  0.00  0.00    +0.000 A 
ATOM      4  C   UNL     1      44.079   4.521  12.284  0.00  0.00    +0.000 A 
ATOM      5  S   UNL     1      43.432   2.995  11.855  0.00  0.00    +0.000 S 
ATOM      6  C   UNL     1      44.197   3.029  10.332  0.00  0.00    +0.000 A 
ATOM      7  N   UNL     1      44.074   2.006   9.445  0.00  0.00    +0.000 NA
ATOM      8  C   UNL     1      44.705   2.189   8.334  0.00  0.00    +0.000 A 
ATOM      9  N   UNL     1      45.446   3.301   8.021  0.00  0.00    +0.000 N 
ATOM     10  C   UNL     1      45.581   4.377   8.872  0.00  0.00    +0.000 A 
ATOM     11  O   UNL     1      46.192   5.388   8.533  0.00  0.00    +0.000 OA
ATOM     12  C   UNL     1      44.925   4.194  10.148  0.00  0.00    +0.000 A 
ATOM     13  H   UNL     1      45.888   3.393   7.119  0.00  0.00    +0.000 HD
ENDBRANCH   1   3
BRANCH   2  14
ATOM     14  C   UNL     1      47.481   7.601  12.365  0.00  0.00    +0.000 A 
ATOM     15  C   UNL     1      48.541   8.064  11.576  0.00  0.00    +0.000 A 
ATOM     16  C   UNL     1      49.313   9.153  11.983  0.00  0.00    +0.000 A 
ATOM     17  C   UNL     1      49.041   9.816  13.186  0.00  0.00    +0.000 A 
ATOM     18  C   UNL     1      47.933   9.391  13.943  0.00  0.00    +0.000 A 
ATOM     19  C   UNL     1      47.161   8.288  13.535  0.00  0.00    +0.000 A 
BRANCH  17  20
ATOM     20  C   UNL     1      50.030  10.826  13.731  0.00  0.00    +0.000 C 
BRANCH  20  21
ATOM     21  N   UNL     1      51.051  10.422  14.689  0.00  0.00    +0.000 NA
ATOM     22  C   UNL     1      51.717   9.141  14.462  0.00  0.00    +0.000 C 
ATOM     23  C   UNL     1      51.122   7.958  15.245  0.00  0.00    +0.000 C 
ATOM     24  O   UNL     1      50.957   8.257  16.637  0.00  0.00    +0.000 OA
ATOM     25  C   UNL     1      50.153   9.428  16.819  0.00  0.00    +0.000 C 
ATOM     26  C   UNL     1      50.770  10.640  16.108  0.00  0.00    +0.000 C 
ENDBRANCH  20  21
ENDBRANCH  17  20
ENDBRANCH   2  14
BRANCH   1  27
ATOM     27  N   UNL     1      44.814   7.434  11.128  0.00  0.00    +0.000 N 
ATOM     28  H   UNL     1      43.945   7.479  11.657  0.00  0.00    +0.000 HD
ATOM     29  H   UNL     1      45.354   8.288  11.242  0.00  0.00    +0.000 HD
ENDBRANCH   1  27
TORSDOF 5
ENDMDL
MODEL 3
REMARK VINA RESULT:    -6.019      1.701      2.478
REMARK INTER + INTRA:          -8.185
REMARK INTER:                  -7.740
REMARK INTRA:                  -0.445
REMARK UNBOUND:                -0.583
REMARK  Name = 
REMARK  5 active torsions:
REMARK  status: ('A' for Active; 'I' for Inactive)
REMARK    1  A    between atoms: N_1  and  C_2
REMARK    2  A    between atoms: C_2  and  C_17
REMARK    3  A    between atoms: C_3  and  C_4
REMARK    4  A    between atoms: C_7  and  C_8
REMARK    5  A    between atoms: C_8  and  N_9
REMARK                            x       y       z     vdW  Elec       q    Type
REMARK                         _______ _______ _______ _____ _____    ______ ____
ROOT
ATOM      1  C   UNL     1      48.641   5.898  16.464  0.00  0.00    +0.000 C 
ATOM      2  C   UNL     1      48.804   6.420  15.228  0.00  0.00    +0.000 C 
ENDROOT
BRANCH   1   3
ATOM      3  C   UNL     1      49.619   6.157  17.490  0.00  0.00    +0.000 A 
ATOM      4  C   UNL     1      49.711   7.388  18.110  0.00  0.00    +0.000 A 
ATOM      5  S   UNL     1      50.967   7.438  19.272  0.00  0.00    +0.000 S 
ATOM      6  C   UNL     1      51.376   5.807  18.990  0.00  0.00    +0.000 A 
ATOM      7  N   UNL     1      52.395   5.199  19.654  0.00  0.00    +0.000 NA
ATOM      8  C   UNL     1      52.571   3.961  19.334  0.00  0.00    +0.000 A 
ATOM      9  N   UNL     1      51.823   3.268  18.417  0.00  0.00    +0.000 N 
ATOM     10  C   UNL     1      50.763   3.828  17.736  0.00  0.00    +0.000 A 
ATOM     11  O   UNL     1      50.067   3.161  16.974  0.00  0.00    +0.000 OA
ATOM     12  C   UNL     1      50.558   5.229  18.032  0.00  0.00    +0.000 A 
ATOM     13  H   UNL     1      51.995   2.290  18.239  0.00  0.00    +0.000 HD
ENDBRANCH   1   3
BRANCH   2  14
ATOM     14  C   UNL     1      47.759   6.413  14.192  0.00  0.00    +0.000 A 
ATOM     15  C   UNL     1      47.372   5.173  13.670  0.00  0.00    +0.000 A 
ATOM     16  C   UNL     1      46.492   5.096  12.589  0.00  0.00    +0.000 A 
ATOM     17  C   UNL     1      45.968   6.256  12.006  0.00  0.00    +0.000 A 
ATOM     18  C   UNL     1      46.306   7.498  12.576  0.00  0.00    +0.000 A 
ATOM     19  C   UNL     1      47.198   7.574  13.661  0.00  0.00    +0.000 A 
BRANCH  17  20
ATOM     20  C   UNL     1      45.220   6.168  10.691  0.00  0.00    +0.000 C 
BRANCH  20  21
ATOM     21  N   UNL     1      43.925   5.504  10.618  0.00  0.00    +0.000 NA
ATOM     22  C   UNL     1      43.126   5.452  11.840  0.00  0.00    +0.000 C 
ATOM     23  C   UNL     1      43.268   4.151  12.648  0.00  0.00    +0.000 C 
ATOM     24  O   UNL     1      43.105   2.984  11.831  0.00  0.00    +0.000 OA
ATOM     25  C   UNL     1      44.027   2.992  10.735  0.00  0.00    +0.000 C 
ATOM     26  C   UNL     1      43.850   4.248   9.871  0.00  0.00    +0.000 C 
ENDBRANCH  20  21
ENDBRANCH  17  20
ENDBRANCH   2  14
BRANCH   1  27
ATOM     27  N   UNL     1      47.539   5.151  16.844  0.00  0.00    +0.000 N 
ATOM     28  H   UNL     1      46.779   5.742  17.178  0.00  0.00    +0.000 HD
ATOM     29  H   UNL     1      47.221   4.540  16.095  0.00  0.00    +0.000 HD
ENDBRANCH   1  27
TORSDOF 5
ENDMDL
MODEL 4
REMARK VINA RESULT:    -5.908      4.538      9.180
REMARK INTER + INTRA:          -8.046
REMARK INTER:                  -7.131
REMARK INTRA:                  -0.915
REMARK UNBOUND:                -0.583
REMARK  Name = 
REMARK  5 active torsions:
REMARK  status: ('A' for Active; 'I' for Inactive)
REMARK    1  A    between atoms: N_1  and  C_2
REMARK    2  A    between atoms: C_2  and  C_17
REMARK    3  A    between atoms: C_3  and  C_4
REMARK    4  A    between atoms: C_7  and  C_8
REMARK    5  A    between atoms: C_8  and  N_9
REMARK                            x       y       z     vdW  Elec       q    Type
REMARK                         _______ _______ _______ _____ _____    ______ ____
ROOT
ATOM      1  C   UNL     1      46.170   6.885  11.423  0.00  0.00    +0.000 C 
ATOM      2  C   UNL     1      47.495   6.955  11.680  0.00  0.00    +0.000 C 
ENDROOT
BRANCH   1   3
ATOM      3  C   UNL     1      45.625   5.732  10.756  0.00  0.00    +0.000 A 
ATOM      4  C   UNL     1      45.838   5.504   9.409  0.00  0.00    +0.000 A 
ATOM      5  S   UNL     1      45.065   4.079   8.861  0.00  0.00    +0.000 S 
ATOM      6  C   UNL     1      44.469   3.728  10.419  0.00  0.00    +0.000 A 
ATOM      7  N   UNL     1      43.700   2.634  10.662  0.00  0.00    +0.000 NA
ATOM      8  C   UNL     1      43.338   2.504  11.895  0.00  0.00    +0.000 A 
ATOM      9  N   UNL     1      43.676   3.361  12.911  0.00  0.00    +0.000 N 
ATOM     10  C   UNL     1      44.474   4.469  12.724  0.00  0.00    +0.000 A 
ATOM     11  O   UNL     1      44.816   5.177  13.668  0.00  0.00    +0.000 OA
ATOM     12  C   UNL     1      44.866   4.677  11.348  0.00  0.00    +0.000 A 
ATOM     13  H   UNL     1      43.384   3.181  13.860  0.00  0.00    +0.000 HD
ENDBRANCH   1   3
BRANCH   2  14
ATOM     14  C   UNL     1      48.107   7.966  12.556  0.00  0.00    +0.000 A 
ATOM     15  C   UNL     1      48.063   7.740  13.937  0.00  0.00    +0.000 A 
ATOM     16  C   UNL     1      48.495   8.717  14.835  0.00  0.00    +0.000 A 
ATOM     17  C   UNL     1      48.992   9.944  14.378  0.00  0.00    +0.000 A 
ATOM     18  C   UNL     1      49.098  10.141  12.988  0.00  0.00    +0.000 A 
ATOM     19  C   UNL     1      48.655   9.158  12.085  0.00  0.00    +0.000 A 
BRANCH  17  20
ATOM     20  C   UNL     1      49.221  11.077  15.356  0.00  0.00    +0.000 C 
BRANCH  20  21
ATOM     21  N   UNL     1      50.443  11.139  16.147  0.00  0.00    +0.000 NA
ATOM     22  C   UNL     1      51.684  10.715  15.501  0.00  0.00    +0.000 C 
ATOM     23  C   UNL     1      52.087   9.256  15.777  0.00  0.00    +0.000 C 
ATOM     24  O   UNL     1      52.054   8.939  17.175  0.00  0.00    +0.000 OA
ATOM     25  C   UNL     1      50.763   9.211  17.732  0.00  0.00    +0.000 C 
ATOM     26  C   UNL     1      50.374  10.683  17.535  0.00  0.00    +0.000 C 
ENDBRANCH  20  21
ENDBRANCH  17  20
ENDBRANCH   2  14
BRANCH   1  27
ATOM     27  N   UNL     1      45.259   7.852  11.817  0.00  0.00    +0.000 N 
ATOM     28  H   UNL     1      44.507   7.455  12.378  0.00  0.00    +0.000 HD
ATOM     29  H   UNL     1      45.712   8.619  12.308  0.00  0.00    +0.000 HD
ENDBRANCH   1  27
TORSDOF 5
ENDMDL
MODEL 5
REMARK VINA RESULT:    -5.418      2.779      8.988
REMARK INTER + INTRA:          -7.426
REMARK INTER:                  -7.208
REMARK INTRA:                  -0.218
REMARK UNBOUND:                -0.583
REMARK  Name = 
REMARK  5 active torsions:
REMARK  status: ('A' for Active; 'I' for Inactive)
REMARK    1  A    between atoms: N_1  and  C_2
REMARK    2  A    between atoms: C_2  and  C_17
REMARK    3  A    between atoms: C_3  and  C_4
REMARK    4  A    between atoms: C_7  and  C_8
REMARK    5  A    between atoms: C_8  and  N_9
REMARK                            x       y       z     vdW  Elec       q    Type
REMARK                         _______ _______ _______ _____ _____    ______ ____
ROOT
ATOM      1  C   UNL     1      47.265   5.708  13.826  0.00  0.00    +0.000 C 
ATOM      2  C   UNL     1      47.031   5.130  15.026  0.00  0.00    +0.000 C 
ENDROOT
BRANCH   1   3
ATOM      3  C   UNL     1      46.178   5.929  12.908  0.00  0.00    +0.000 A 
ATOM      4  C   UNL     1      45.853   7.195  12.460  0.00  0.00    +0.000 A 
ATOM      5  S   UNL     1      44.510   7.182  11.397  0.00  0.00    +0.000 S 
ATOM      6  C   UNL     1      44.372   5.486  11.491  0.00  0.00    +0.000 A 
ATOM      7  N   UNL     1      43.403   4.807  10.822  0.00  0.00    +0.000 NA
ATOM      8  C   UNL     1      43.440   3.528  10.989  0.00  0.00    +0.000 A 
ATOM      9  N   UNL     1      44.357   2.858  11.759  0.00  0.00    +0.000 N 
ATOM     10  C   UNL     1      45.375   3.494  12.437  0.00  0.00    +0.000 A 
ATOM     11  O   UNL     1      46.224   2.860  13.059  0.00  0.00    +0.000 OA
ATOM     12  C   UNL     1      45.345   4.935  12.312  0.00  0.00    +0.000 A 
ATOM     13  H   UNL     1      44.348   1.852  11.820  0.00  0.00    +0.000 HD
ENDBRANCH   1   3
BRANCH   2  14
ATOM     14  C   UNL     1      48.017   5.078  16.116  0.00  0.00    +0.000 A 
ATOM     15  C   UNL     1      48.251   3.836  16.719  0.00  0.00    +0.000 A 
ATOM     16  C   UNL     1      49.064   3.732  17.849  0.00  0.00    +0.000 A 
ATOM     17  C   UNL     1      49.673   4.866  18.402  0.00  0.00    +0.000 A 
ATOM     18  C   UNL     1      49.491   6.101  17.753  0.00  0.00    +0.000 A 
ATOM     19  C   UNL     1      48.665   6.205  16.619  0.00  0.00    +0.000 A 
BRANCH  17  20
ATOM     20  C   UNL     1      50.342   4.776  19.759  0.00  0.00    +0.000 C 
BRANCH  20  21
ATOM     21  N   UNL     1      51.794   4.754  19.869  0.00  0.00    +0.000 NA
ATOM     22  C   UNL     1      52.471   6.026  20.112  0.00  0.00    +0.000 C 
ATOM     23  C   UNL     1      53.005   6.724  18.850  0.00  0.00    +0.000 C 
ATOM     24  O   UNL     1      53.773   5.838  18.024  0.00  0.00    +0.000 OA
ATOM     25  C   UNL     1      53.011   4.680  17.666  0.00  0.00    +0.000 C 
ATOM     26  C   UNL     1      52.532   3.925  18.914  0.00  0.00    +0.000 C 
ENDBRANCH  20  21
ENDBRANCH  17  20
ENDBRANCH   2  14
BRANCH   1  27
ATOM     27  N   UNL     1      48.509   6.168  13.424  0.00  0.00    +0.000 N 
ATOM     28  H   UNL     1      48.870   6.880  14.056  0.00  0.00    +0.000 HD
ATOM     29  H   UNL     1      49.175   5.406  13.317  0.00  0.00    +0.000 HD
ENDBRANCH   1  27
TORSDOF 5
ENDMDL
MODEL 6
REMARK VINA RESULT:    -5.413      4.214      9.490
REMARK INTER + INTRA:          -7.420
REMARK INTER:                  -6.655
REMARK INTRA:                  -0.765
REMARK UNBOUND:                -0.583
REMARK  Name = 
REMARK  5 active torsions:
REMARK  status: ('A' for Active; 'I' for Inactive)
REMARK    1  A    between atoms: N_1  and  C_2
REMARK    2  A    between atoms: C_2  and  C_17
REMARK    3  A    between atoms: C_3  and  C_4
REMARK    4  A    between atoms: C_7  and  C_8
REMARK    5  A    between atoms: C_8  and  N_9
REMARK                            x       y       z     vdW  Elec       q    Type
REMARK                         _______ _______ _______ _____ _____    ______ ____
ROOT
ATOM      1  C   UNL     1      46.247   6.447  12.546  0.00  0.00    +0.000 C 
ATOM      2  C   UNL     1      47.568   6.456  12.834  0.00  0.00    +0.000 C 
ENDROOT
BRANCH   1   3
ATOM      3  C   UNL     1      45.747   5.614  11.483  0.00  0.00    +0.000 A 
ATOM      4  C   UNL     1      46.014   5.893  10.156  0.00  0.00    +0.000 A 
ATOM      5  S   UNL     1      45.285   4.764   9.096  0.00  0.00    +0.000 S 
ATOM      6  C   UNL     1      44.638   3.868  10.394  0.00  0.00    +0.000 A 
ATOM      7  N   UNL     1      43.878   2.760  10.191  0.00  0.00    +0.000 NA
ATOM      8  C   UNL     1      43.472   2.190  11.276  0.00  0.00    +0.000 A 
ATOM      9  N   UNL     1      43.756   2.619  12.547  0.00  0.00    +0.000 N 
ATOM     10  C   UNL     1      44.543   3.720  12.809  0.00  0.00    +0.000 A 
ATOM     11  O   UNL     1      44.838   4.037  13.959  0.00  0.00    +0.000 OA
ATOM     12  C   UNL     1      44.983   4.415  11.620  0.00  0.00    +0.000 A 
ATOM     13  H   UNL     1      43.433   2.106  13.353  0.00  0.00    +0.000 HD
ENDBRANCH   1   3
BRANCH   2  14
ATOM     14  C   UNL     1      48.140   7.080  14.036  0.00  0.00    +0.000 A 
ATOM     15  C   UNL     1      48.503   6.237  15.094  0.00  0.00    +0.000 A 
ATOM     16  C   UNL     1      48.919   6.764  16.317  0.00  0.00    +0.000 A 
ATOM     17  C   UNL     1      48.992   8.149  16.516  0.00  0.00    +0.000 A 
ATOM     18  C   UNL     1      48.692   8.992  15.429  0.00  0.00    +0.000 A 
ATOM     19  C   UNL     1      48.265   8.458  14.200  0.00  0.00    +0.000 A 
BRANCH  17  20
ATOM     20  C   UNL     1      49.202   8.701  17.910  0.00  0.00    +0.000 C 
BRANCH  20  21
ATOM     21  N   UNL     1      49.114  10.133  18.161  0.00  0.00    +0.000 NA
ATOM     22  C   UNL     1      50.242  10.769  18.840  0.00  0.00    +0.000 C 
ATOM     23  C   UNL     1      50.074  10.926  20.360  0.00  0.00    +0.000 C 
ATOM     24  O   UNL     1      48.815  11.516  20.709  0.00  0.00    +0.000 OA
ATOM     25  C   UNL     1      47.726  10.763  20.164  0.00  0.00    +0.000 C 
ATOM     26  C   UNL     1      47.834  10.659  18.637  0.00  0.00    +0.000 C 
ENDBRANCH  20  21
ENDBRANCH  17  20
ENDBRANCH   2  14
BRANCH   1  27
ATOM     27  N   UNL     1      45.300   7.163  13.260  0.00  0.00    +0.000 N 
ATOM     28  H   UNL     1      45.606   8.117  13.441  0.00  0.00    +0.000 HD
ATOM     29  H   UNL     1      44.394   7.155  12.797  0.00  0.00    +0.000 HD
ENDBRANCH   1  27
TORSDOF 5
ENDMDL
MODEL 7
REMARK VINA RESULT:    -5.093      3.247      9.221
REMARK INTER + INTRA:          -7.016
REMARK INTER:                  -6.566
REMARK INTRA:                  -0.450
REMARK UNBOUND:                -0.583
REMARK  Name = 
REMARK  5 active torsions:
REMARK  status: ('A' for Active; 'I' for Inactive)
REMARK    1  A    between atoms: N_1  and  C_2
REMARK    2  A    between atoms: C_2  and  C_17
REMARK    3  A    between atoms: C_3  and  C_4
REMARK    4  A    between atoms: C_7  and  C_8
REMARK    5  A    between atoms: C_8  and  N_9
REMARK                            x       y       z     vdW  Elec       q    Type
REMARK                         _______ _______ _______ _____ _____    ______ ____
ROOT
ATOM      1  C   UNL     1      46.665   4.747  13.776  0.00  0.00    +0.000 C 
ATOM      2  C   UNL     1      46.677   4.202  15.013  0.00  0.00    +0.000 C 
ENDROOT
BRANCH   1   3
ATOM      3  C   UNL     1      45.459   4.721  12.989  0.00  0.00    +0.000 A 
ATOM      4  C   UNL     1      44.792   3.541  12.721  0.00  0.00    +0.000 A 
ATOM      5  S   UNL     1      43.404   3.785  11.749  0.00  0.00    +0.000 S 
ATOM      6  C   UNL     1      43.654   5.471  11.707  0.00  0.00    +0.000 A 
ATOM      7  N   UNL     1      42.823   6.301  11.023  0.00  0.00    +0.000 NA
ATOM      8  C   UNL     1      43.142   7.550  11.097  0.00  0.00    +0.000 A 
ATOM      9  N   UNL     1      44.212   8.051  11.795  0.00  0.00    +0.000 N 
ATOM     10  C   UNL     1      45.069   7.257  12.527  0.00  0.00    +0.000 A 
ATOM     11  O   UNL     1      45.975   7.744  13.200  0.00  0.00    +0.000 OA
ATOM     12  C   UNL     1      44.773   5.844  12.435  0.00  0.00    +0.000 A 
ATOM     13  H   UNL     1      44.385   9.043  11.838  0.00  0.00    +0.000 HD
ENDBRANCH   1   3
BRANCH   2  14
ATOM     14  C   UNL     1      47.773   4.384  15.977  0.00  0.00    +0.000 A 
ATOM     15  C   UNL     1      48.222   3.252  16.669  0.00  0.00    +0.000 A 
ATOM     16  C   UNL     1      49.158   3.370  17.698  0.00  0.00    +0.000 A 
ATOM     17  C   UNL     1      49.678   4.619  18.058  0.00  0.00    +0.000 A 
ATOM     18  C   UNL     1      49.275   5.745  17.315  0.00  0.00    +0.000 A 
ATOM     19  C   UNL     1      48.326   5.626  16.283  0.00  0.00    +0.000 A 
BRANCH  17  20
ATOM     20  C   UNL     1      50.493   4.760  19.327  0.00  0.00    +0.000 C 
BRANCH  20  21
ATOM     21  N   UNL     1      51.916   4.447  19.331  0.00  0.00    +0.000 NA
ATOM     22  C   UNL     1      52.772   5.214  20.235  0.00  0.00    +0.000 C 
ATOM     23  C   UNL     1      53.475   6.419  19.589  0.00  0.00    +0.000 C 
ATOM     24  O   UNL     1      54.136   6.070  18.365  0.00  0.00    +0.000 OA
ATOM     25  C   UNL     1      53.221   5.474  17.440  0.00  0.00    +0.000 C 
ATOM     26  C   UNL     1      52.563   4.222  18.038  0.00  0.00    +0.000 C 
ENDBRANCH  20  21
ENDBRANCH  17  20
ENDBRANCH   2  14
BRANCH   1  27
ATOM     27  N   UNL     1      47.749   5.399  13.212  0.00  0.00    +0.000 N 
ATOM     28  H   UNL     1      48.041   4.962  12.340  0.00  0.00    +0.000 HD
ATOM     29  H   UNL     1      47.564   6.390  13.077  0.00  0.00    +0.000 HD
ENDBRANCH   1  27
TORSDOF 5
ENDMDL
MODEL 8
REMARK VINA RESULT:    -4.783     10.556     12.493
REMARK INTER + INTRA:          -6.624
REMARK INTER:                  -5.969
REMARK INTRA:                  -0.655
REMARK UNBOUND:                -0.583
REMARK  Name = 
REMARK  5 active torsions:
REMARK  status: ('A' for Active; 'I' for Inactive)
REMARK    1  A    between atoms: N_1  and  C_2
REMARK    2  A    between atoms: C_2  and  C_17
REMARK    3  A    between atoms: C_3  and  C_4
REMARK    4  A    between atoms: C_7  and  C_8
REMARK    5  A    between atoms: C_8  and  N_9
REMARK                            x       y       z     vdW  Elec       q    Type
REMARK                         _______ _______ _______ _____ _____    ______ ____
ROOT
ATOM      1  C   UNL     1      38.676  -1.331  16.253  0.00  0.00    +0.000 C 
ATOM      2  C   UNL     1      40.010  -1.462  16.077  0.00  0.00    +0.000 C 
ENDROOT
BRANCH   1   3
ATOM      3  C   UNL     1      38.003  -0.141  15.802  0.00  0.00    +0.000 A 
ATOM      4  C   UNL     1      37.364  -0.089  14.578  0.00  0.00    +0.000 A 
ATOM      5  S   UNL     1      36.665   1.445  14.275  0.00  0.00    +0.000 S 
ATOM      6  C   UNL     1      37.172   2.044  15.788  0.00  0.00    +0.000 A 
ATOM      7  N   UNL     1      36.913   3.321  16.176  0.00  0.00    +0.000 NA
ATOM      8  C   UNL     1      37.355   3.617  17.352  0.00  0.00    +0.000 A 
ATOM      9  N   UNL     1      38.029   2.757  18.182  0.00  0.00    +0.000 N 
ATOM     10  C   UNL     1      38.294   1.446  17.849  0.00  0.00    +0.000 A 
ATOM     11  O   UNL     1      38.836   0.681  18.644  0.00  0.00    +0.000 OA
ATOM     12  C   UNL     1      37.854   1.085  16.519  0.00  0.00    +0.000 A 
ATOM     13  H   UNL     1      38.318   3.046  19.104  0.00  0.00    +0.000 HD
ENDBRANCH   1   3
BRANCH   2  14
ATOM     14  C   UNL     1      40.743  -2.720  16.284  0.00  0.00    +0.000 A 
ATOM     15  C   UNL     1      41.189  -3.005  17.581  0.00  0.00    +0.000 A 
ATOM     16  C   UNL     1      42.010  -4.106  17.828  0.00  0.00    +0.000 A 
ATOM     17  C   UNL     1      42.403  -4.958  16.788  0.00  0.00    +0.000 A 
ATOM     18  C   UNL     1      41.899  -4.707  15.498  0.00  0.00    +0.000 A 
ATOM     19  C   UNL     1      41.077  -3.593  15.249  0.00  0.00    +0.000 A 
BRANCH  17  20
ATOM     20  C   UNL     1      43.485  -5.991  17.026  0.00  0.00    +0.000 C 
BRANCH  20  21
ATOM     21  N   UNL     1      44.220  -6.016  18.284  0.00  0.00    +0.000 NA
ATOM     22  C   UNL     1      45.458  -5.241  18.356  0.00  0.00    +0.000 C 
ATOM     23  C   UNL     1      46.739  -6.047  18.084  0.00  0.00    +0.000 C 
ATOM     24  O   UNL     1      46.796  -7.253  18.856  0.00  0.00    +0.000 OA
ATOM     25  C   UNL     1      45.640  -8.066  18.626  0.00  0.00    +0.000 C 
ATOM     26  C   UNL     1      44.351  -7.304  18.965  0.00  0.00    +0.000 C 
ENDBRANCH  20  21
ENDBRANCH  17  20
ENDBRANCH   2  14
BRANCH   1  27
ATOM     27  N   UNL     1      37.874  -2.314  16.808  0.00  0.00    +0.000 N 
ATOM     28  H   UNL     1      37.431  -2.888  16.092  0.00  0.00    +0.000 HD
ATOM     29  H   UNL     1      38.388  -2.892  17.468  0.00  0.00    +0.000 HD
ENDBRANCH   1  27
TORSDOF 5
ENDMDL
MODEL 9
REMARK VINA RESULT:    -4.591      4.291      9.457
REMARK INTER + INTRA:          -6.382
REMARK INTER:                  -5.450
REMARK INTRA:                  -0.933
REMARK UNBOUND:                -0.583
REMARK  Name = 
REMARK  5 active torsions:
REMARK  status: ('A' for Active; 'I' for Inactive)
REMARK    1  A    between atoms: N_1  and  C_2
REMARK    2  A    between atoms: C_2  and  C_17
REMARK    3  A    between atoms: C_3  and  C_4
REMARK    4  A    between atoms: C_7  and  C_8
REMARK    5  A    between atoms: C_8  and  N_9
REMARK                            x       y       z     vdW  Elec       q    Type
REMARK                         _______ _______ _______ _____ _____    ______ ____
ROOT
ATOM      1  C   UNL     1      47.821   6.116  13.705  0.00  0.00    +0.000 C 
ATOM      2  C   UNL     1      48.027   6.183  15.040  0.00  0.00    +0.000 C 
ENDROOT
BRANCH   1   3
ATOM      3  C   UNL     1      46.741   5.319  13.183  0.00  0.00    +0.000 A 
ATOM      4  C   UNL     1      46.756   3.939  13.254  0.00  0.00    +0.000 A 
ATOM      5  S   UNL     1      45.367   3.237  12.542  0.00  0.00    +0.000 S 
ATOM      6  C   UNL     1      44.710   4.764  12.167  0.00  0.00    +0.000 A 
ATOM      7  N   UNL     1      43.518   4.894  11.526  0.00  0.00    +0.000 NA
ATOM      8  C   UNL     1      43.155   6.116  11.325  0.00  0.00    +0.000 A 
ATOM      9  N   UNL     1      43.867   7.225  11.708  0.00  0.00    +0.000 N 
ATOM     10  C   UNL     1      45.066   7.150  12.383  0.00  0.00    +0.000 A 
ATOM     11  O   UNL     1      45.644   8.161  12.775  0.00  0.00    +0.000 OA
ATOM     12  C   UNL     1      45.532   5.796  12.590  0.00  0.00    +0.000 A 
ATOM     13  H   UNL     1      43.508   8.153  11.547  0.00  0.00    +0.000 HD
ENDBRANCH   1   3
BRANCH   2  14
ATOM     14  C   UNL     1      48.941   7.143  15.679  0.00  0.00    +0.000 A 
ATOM     15  C   UNL     1      50.184   6.665  16.112  0.00  0.00    +0.000 A 
ATOM     16  C   UNL     1      51.044   7.478  16.851  0.00  0.00    +0.000 A 
ATOM     17  C   UNL     1      50.690   8.795  17.171  0.00  0.00    +0.000 A 
ATOM     18  C   UNL     1      49.470   9.294  16.676  0.00  0.00    +0.000 A 
ATOM     19  C   UNL     1      48.601   8.470  15.938  0.00  0.00    +0.000 A 
BRANCH  17  20
ATOM     20  C   UNL     1      51.514   9.575  18.175  0.00  0.00    +0.000 C 
BRANCH  20  21
ATOM     21  N   UNL     1      52.740  10.247  17.765  0.00  0.00    +0.000 NA
ATOM     22  C   UNL     1      52.751  10.885  16.450  0.00  0.00    +0.000 C 
ATOM     23  C   UNL     1      53.349  10.028  15.322  0.00  0.00    +0.000 C 
ATOM     24  O   UNL     1      54.623   9.475  15.679  0.00  0.00    +0.000 OA
ATOM     25  C   UNL     1      54.531   8.712  16.888  0.00  0.00    +0.000 C 
ATOM     26  C   UNL     1      54.007   9.571  18.046  0.00  0.00    +0.000 C 
ENDBRANCH  20  21
ENDBRANCH  17  20
ENDBRANCH   2  14
BRANCH   1  27
ATOM     27  N   UNL     1      48.564   6.823  12.775  0.00  0.00    +0.000 N 
ATOM     28  H   UNL     1      48.737   6.276  11.935  0.00  0.00    +0.000 HD
ATOM     29  H   UNL     1      48.130   7.714  12.545  0.00  0.00    +0.000 HD
ENDBRANCH   1  27
TORSDOF 5
ENDMDL
