MODEL 1
REMARK VINA RESULT:    -7.980      0.000      0.000
REMARK INTER + INTRA:         -12.982
REMARK INTER:                 -11.712
REMARK INTRA:                  -1.270
REMARK UNBOUND:                -1.270
REMARK  Name = 
REMARK  9 active torsions:
REMARK  status: ('A' for Active; 'I' for Inactive)
REMARK    1  A    between atoms: C_1  and  O_2
REMARK    2  A    between atoms: O_2  and  C_3
REMARK    3  A    between atoms: C_5  and  C_6
REMARK    4  A    between atoms: C_6  and  N_7
REMARK    5  A    between atoms: N_7  and  C_8
REMARK    6  A    between atoms: C_8  and  C_9
REMARK    7  A    between atoms: C_17  and  C_18
REMARK    8  A    between atoms: C_18  and  N_19
REMARK    9  A    between atoms: C_20  and  C_22
REMARK                            x       y       z     vdW  Elec       q    Type
REMARK                         _______ _______ _______ _____ _____    ______ ____
ROOT
ATOM      1  C   UNL     1      46.665   5.273  12.968  0.00  0.00    +0.000 A 
ATOM      2  C   UNL     1      45.595   4.672  12.290  0.00  0.00    +0.000 A 
ATOM      3  C   UNL     1      44.728   5.429  11.485  0.00  0.00    +0.000 A 
ATOM      4  C   UNL     1      44.946   6.804  11.363  0.00  0.00    +0.000 A 
ATOM      5  C   UNL     1      46.003   7.410  12.040  0.00  0.00    +0.000 A 
ATOM      6  C   UNL     1      46.870   6.658  12.850  0.00  0.00    +0.000 A 
ENDROOT
BRANCH   1   8
ATOM      7  C   UNL     1      46.957   3.938  14.914  0.00  0.00    +0.000 C 
ATOM      8  O   UNL     1      47.530   4.589  13.785  0.00  0.00    +0.000 OA
ENDBRANCH   1   8
BRANCH   3   9
ATOM      9  C   UNL     1      43.619   4.756  10.712  0.00  0.00    +0.000 C 
BRANCH   9  10
ATOM     10  N   UNL     1      44.112   4.310   9.413  0.00  0.00    +0.000 NA
ATOM     11  H   UNL     1      44.961   4.831   9.186  0.00  0.00    +0.000 HD
BRANCH  10  12
ATOM     12  C   UNL     1      44.428   2.879   9.421  0.00  0.00    +0.000 C 
BRANCH  12  13
ATOM     13  C   UNL     1      45.550   2.539   8.467  0.00  0.00    +0.000 A 
ATOM     14  C   UNL     1      46.112   3.523   7.657  0.00  0.00    +0.000 A 
ATOM     15  N   UNL     1      47.112   3.275   6.776  0.00  0.00    +0.000 NA
ATOM     16  C   UNL     1      47.537   1.994   6.739  0.00  0.00    +0.000 A 
ATOM     17  C   UNL     1      46.989   1.007   7.538  0.00  0.00    +0.000 A 
ATOM     18  N   UNL     1      45.989   1.251   8.417  0.00  0.00    +0.000 NA
ENDBRANCH  12  13
ENDBRANCH  10  12
ENDBRANCH   9  10
ENDBRANCH   3   9
BRANCH   6  19
ATOM     19  C   UNL     1      48.020   7.365  13.527  0.00  0.00    +0.000 C 
BRANCH  19  20
ATOM     20  N   UNL     1      47.960   7.260  14.965  0.00  0.00    +0.000 N 
ATOM     21  C   UNL     1      49.049   6.995  15.750  0.00  0.00    +0.000 C 
ATOM     22  O   UNL     1      50.153   6.716  15.284  0.00  0.00    +0.000 OA
ATOM     23  H   UNL     1      47.085   7.543  15.392  0.00  0.00    +0.000 HD
BRANCH  21  24
ATOM     24  C   UNL     1      48.829   7.049  17.201  0.00  0.00    +0.000 A 
ATOM     25  C   UNL     1      48.416   8.231  17.800  0.00  0.00    +0.000 A 
ATOM     26  S   UNL     1      48.173   8.094  19.483  0.00  0.00    +0.000 S 
ATOM     27  C   UNL     1      48.574   6.441  19.463  0.00  0.00    +0.000 A 
ATOM     28  N   UNL     1      48.521   5.694  20.600  0.00  0.00    +0.000 NA
ATOM     29  C   UNL     1      48.800   4.445  20.430  0.00  0.00    +0.000 A 
ATOM     30  N   UNL     1      49.145   3.879  19.232  0.00  0.00    +0.000 N 
ATOM     31  C   UNL     1      49.285   4.607  18.074  0.00  0.00    +0.000 A 
ATOM     32  O   UNL     1      49.720   4.090  17.050  0.00  0.00    +0.000 OA
ATOM     33  C   UNL     1      48.925   6.007  18.198  0.00  0.00    +0.000 A 
ATOM     34  H   UNL     1      49.387   2.900  19.172  0.00  0.00    +0.000 HD
ENDBRANCH  21  24
ENDBRANCH  19  20
ENDBRANCH   6  19
TORSDOF 8
ENDMDL
MODEL 2
REMARK VINA RESULT:    -7.579      1.669      2.499
REMARK INTER + INTRA:         -12.394
REMARK INTER:                 -11.416
REMARK INTRA:                  -0.977
REMARK UNBOUND:                -1.270
REMARK  Name = 
REMARK  9 active torsions:
REMARK  status: ('A' for Active; 'I' for Inactive)
REMARK    1  A    between atoms: C_1  and  O_2
REMARK    2  A    between atoms: O_2  and  C_3
REMARK    3  A    between atoms: C_5  and  C_6
REMARK    4  A    between atoms: C_6  and  N_7
REMARK    5  A    between atoms: N_7  and  C_8
REMARK    6  A    between atoms: C_8  and  C_9
REMARK    7  A    between atoms: C_17  and  C_18
REMARK    8  A    between atoms: C_18  and  N_19
REMARK    9  A    between atoms: C_20  and  C_22
REMARK                            x       y       z     vdW  Elec       q    Type
REMARK                         _______ _______ _______ _____ _____    ______ ____
ROOT
ATOM      1  C   UNL     1      45.368   8.065  12.088  0.00  0.00    +0.000 A 
ATOM      2  C   UNL     1      44.481   7.255  11.365  0.00  0.00    +0.000 A 
ATOM      3  C   UNL     1      44.588   5.855  11.393  0.00  0.00    +0.000 A 
ATOM      4  C   UNL     1      45.599   5.270  12.160  0.00  0.00    +0.000 A 
ATOM      5  C   UNL     1      46.490   6.067  12.876  0.00  0.00    +0.000 A 
ATOM      6  C   UNL     1      46.390   7.469  12.847  0.00  0.00    +0.000 A 
ENDROOT
BRANCH   1   8
ATOM      7  C   UNL     1      44.217  10.036  11.421  0.00  0.00    +0.000 C 
ATOM      8  O   UNL     1      45.327   9.437  12.081  0.00  0.00    +0.000 OA
ENDBRANCH   1   8
BRANCH   3   9
ATOM      9  C   UNL     1      43.586   4.997  10.659  0.00  0.00    +0.000 C 
BRANCH   9  10
ATOM     10  N   UNL     1      44.130   4.587   9.367  0.00  0.00    +0.000 NA
ATOM     11  H   UNL     1      44.991   5.106   9.192  0.00  0.00    +0.000 HD
BRANCH  10  12
ATOM     12  C   UNL     1      44.433   3.153   9.343  0.00  0.00    +0.000 C 
BRANCH  12  13
ATOM     13  C   UNL     1      45.477   2.811   8.305  0.00  0.00    +0.000 A 
ATOM     14  C   UNL     1      46.078   1.554   8.294  0.00  0.00    +0.000 A 
ATOM     15  N   UNL     1      47.027   1.196   7.395  0.00  0.00    +0.000 NA
ATOM     16  C   UNL     1      47.352   2.148   6.494  0.00  0.00    +0.000 A 
ATOM     17  C   UNL     1      46.762   3.399   6.494  0.00  0.00    +0.000 A 
ATOM     18  N   UNL     1      45.816   3.762   7.392  0.00  0.00    +0.000 NA
ENDBRANCH  12  13
ENDBRANCH  10  12
ENDBRANCH   9  10
ENDBRANCH   3   9
BRANCH   6  19
ATOM     19  C   UNL     1      47.360   8.278  13.674  0.00  0.00    +0.000 C 
BRANCH  19  20
ATOM     20  N   UNL     1      47.817   7.563  14.840  0.00  0.00    +0.000 N 
ATOM     21  C   UNL     1      49.078   7.047  14.965  0.00  0.00    +0.000 C 
ATOM     22  O   UNL     1      49.895   7.056  14.044  0.00  0.00    +0.000 OA
ATOM     23  H   UNL     1      47.199   7.587  15.644  0.00  0.00    +0.000 HD
BRANCH  21  24
ATOM     24  C   UNL     1      49.413   6.461  16.269  0.00  0.00    +0.000 A 
ATOM     25  C   UNL     1      50.295   7.111  17.121  0.00  0.00    +0.000 A 
ATOM     26  S   UNL     1      50.530   6.304  18.604  0.00  0.00    +0.000 S 
ATOM     27  C   UNL     1      49.431   5.078  18.177  0.00  0.00    +0.000 A 
ATOM     28  N   UNL     1      49.131   4.073  19.044  0.00  0.00    +0.000 NA
ATOM     29  C   UNL     1      48.244   3.241  18.610  0.00  0.00    +0.000 A 
ATOM     30  N   UNL     1      47.643   3.313  17.381  0.00  0.00    +0.000 N 
ATOM     31  C   UNL     1      47.969   4.265  16.445  0.00  0.00    +0.000 A 
ATOM     32  O   UNL     1      47.505   4.221  15.310  0.00  0.00    +0.000 OA
ATOM     33  C   UNL     1      48.919   5.260  16.905  0.00  0.00    +0.000 A 
ATOM     34  H   UNL     1      46.981   2.609  17.087  0.00  0.00    +0.000 HD
ENDBRANCH  21  24
ENDBRANCH  19  20
ENDBRANCH   6  19
TORSDOF 8
ENDMDL
MODEL 3
REMARK VINA RESULT:    -7.438      1.557      2.425
REMARK INTER + INTRA:         -12.186
REMARK INTER:                 -10.806
REMARK INTRA:                  -1.380
REMARK UNBOUND:                -1.270
REMARK  Name = 
REMARK  9 active torsions:
REMARK  status: ('A' for Active; 'I' for Inactive)
REMARK    1  A    between atoms: C_1  and  O_2
REMARK    2  A    between atoms: O_2  and  C_3
REMARK    3  A    between atoms: C_5  and  C_6
REMARK    4  A    between atoms: C_6  and  N_7
REMARK    5  A    between atoms: N_7  and  C_8
REMARK    6  A    between atoms: C_8  and  C_9
REMARK    7  A    between atoms: C_17  and  C_18
REMARK    8  A    between atoms: C_18  and  N_19
REMARK    9  A    between atoms: C_20  and  C_22
REMARK                            x       y       z     vdW  Elec       q    Type
REMARK                         _______ _______ _______ _____ _____    ______ ____
ROOT
ATOM      1  C   UNL     1      46.733   5.151  13.188  0.00  0.00    +0.000 A 
ATOM      2  C   UNL     1      45.630   4.644  12.488  0.00  0.00    +0.000 A 
ATOM      3  C   UNL     1      44.788   5.490  11.748  0.00  0.00    +0.000 A 
ATOM      4  C   UNL     1      45.065   6.858  11.715  0.00  0.00    +0.000 A 
ATOM      5  C   UNL     1      46.156   7.372  12.414  0.00  0.00    +0.000 A 
ATOM      6  C   UNL     1      46.998   6.531  13.160  0.00  0.00    +0.000 A 
ENDROOT
BRANCH   1   8
ATOM      7  C   UNL     1      47.043   3.854  15.158  0.00  0.00    +0.000 C 
ATOM      8  O   UNL     1      47.578   4.377  13.946  0.00  0.00    +0.000 OA
ENDBRANCH   1   8
BRANCH   3   9
ATOM      9  C   UNL     1      43.640   4.919  10.950  0.00  0.00    +0.000 C 
BRANCH   9  10
ATOM     10  N   UNL     1      44.082   4.603   9.594  0.00  0.00    +0.000 NA
ATOM     11  H   UNL     1      44.951   5.103   9.406  0.00  0.00    +0.000 HD
BRANCH  10  12
ATOM     12  C   UNL     1      44.321   3.167   9.429  0.00  0.00    +0.000 C 
BRANCH  12  13
ATOM     13  C   UNL     1      45.440   2.886   8.452  0.00  0.00    +0.000 A 
ATOM     14  C   UNL     1      46.000   1.614   8.366  0.00  0.00    +0.000 A 
ATOM     15  N   UNL     1      47.012   1.307   7.517  0.00  0.00    +0.000 NA
ATOM     16  C   UNL     1      47.443   2.328   6.747  0.00  0.00    +0.000 A 
ATOM     17  C   UNL     1      46.895   3.597   6.822  0.00  0.00    +0.000 A 
ATOM     18  N   UNL     1      45.886   3.907   7.670  0.00  0.00    +0.000 NA
ENDBRANCH  12  13
ENDBRANCH  10  12
ENDBRANCH   9  10
ENDBRANCH   3   9
BRANCH   6  19
ATOM     19  C   UNL     1      48.187   7.140  13.864  0.00  0.00    +0.000 C 
BRANCH  19  20
ATOM     20  N   UNL     1      48.065   7.077  15.301  0.00  0.00    +0.000 N 
ATOM     21  C   UNL     1      49.103   6.762  16.135  0.00  0.00    +0.000 C 
ATOM     22  O   UNL     1      50.202   6.398  15.720  0.00  0.00    +0.000 OA
ATOM     23  H   UNL     1      47.196   7.430  15.686  0.00  0.00    +0.000 HD
BRANCH  21  24
ATOM     24  C   UNL     1      48.833   6.870  17.574  0.00  0.00    +0.000 A 
ATOM     25  C   UNL     1      49.112   5.803  18.418  0.00  0.00    +0.000 A 
ATOM     26  S   UNL     1      48.773   6.125  20.058  0.00  0.00    +0.000 S 
ATOM     27  C   UNL     1      48.280   7.714  19.704  0.00  0.00    +0.000 A 
ATOM     28  N   UNL     1      47.898   8.566  20.693  0.00  0.00    +0.000 NA
ATOM     29  C   UNL     1      47.599   9.755  20.287  0.00  0.00    +0.000 A 
ATOM     30  N   UNL     1      47.629  10.163  18.981  0.00  0.00    +0.000 N 
ATOM     31  C   UNL     1      47.935   9.317  17.940  0.00  0.00    +0.000 A 
ATOM     32  O   UNL     1      47.826   9.684  16.775  0.00  0.00    +0.000 OA
ATOM     33  C   UNL     1      48.336   7.985  18.348  0.00  0.00    +0.000 A 
ATOM     34  H   UNL     1      47.348  11.099  18.724  0.00  0.00    +0.000 HD
ENDBRANCH  21  24
ENDBRANCH  19  20
ENDBRANCH   6  19
TORSDOF 8
ENDMDL
MODEL 4
REMARK VINA RESULT:    -7.096      2.284      3.098
REMARK INTER + INTRA:         -11.685
REMARK INTER:                 -10.877
REMARK INTRA:                  -0.808
REMARK UNBOUND:                -1.270
REMARK  Name = 
REMARK  9 active torsions:
REMARK  status: ('A' for Active; 'I' for Inactive)
REMARK    1  A    between atoms: C_1  and  O_2
REMARK    2  A    between atoms: O_2  and  C_3
REMARK    3  A    between atoms: C_5  and  C_6
REMARK    4  A    between atoms: C_6  and  N_7
REMARK    5  A    between atoms: N_7  and  C_8
REMARK    6  A    between atoms: C_8  and  C_9
REMARK    7  A    between atoms: C_17  and  C_18
REMARK    8  A    between atoms: C_18  and  N_19
REMARK    9  A    between atoms: C_20  and  C_22
REMARK                            x       y       z     vdW  Elec       q    Type
REMARK                         _______ _______ _______ _____ _____    ______ ____
ROOT
ATOM      1  C   UNL     1      46.852   6.523  13.098  0.00  0.00    +0.000 A 
ATOM      2  C   UNL     1      46.077   5.623  12.352  0.00  0.00    +0.000 A 
ATOM      3  C   UNL     1      45.945   4.281  12.744  0.00  0.00    +0.000 A 
ATOM      4  C   UNL     1      46.598   3.846  13.900  0.00  0.00    +0.000 A 
ATOM      5  C   UNL     1      47.376   4.732  14.643  0.00  0.00    +0.000 A 
ATOM      6  C   UNL     1      47.516   6.075  14.253  0.00  0.00    +0.000 A 
ENDROOT
BRANCH   1   8
ATOM      7  C   UNL     1      45.909   8.697  12.897  0.00  0.00    +0.000 C 
ATOM      8  O   UNL     1      47.036   7.839  12.753  0.00  0.00    +0.000 OA
ENDBRANCH   1   8
BRANCH   3   9
ATOM      9  C   UNL     1      45.057   3.340  11.964  0.00  0.00    +0.000 C 
BRANCH   9  10
ATOM     10  N   UNL     1      44.906   3.817  10.592  0.00  0.00    +0.000 NA
ATOM     11  H   UNL     1      45.796   4.206  10.278  0.00  0.00    +0.000 HD
BRANCH  10  12
ATOM     12  C   UNL     1      44.523   2.730   9.686  0.00  0.00    +0.000 C 
BRANCH  12  13
ATOM     13  C   UNL     1      45.568   2.484   8.622  0.00  0.00    +0.000 A 
ATOM     14  C   UNL     1      46.037   3.533   7.835  0.00  0.00    +0.000 A 
ATOM     15  N   UNL     1      46.964   3.370   6.860  0.00  0.00    +0.000 NA
ATOM     16  C   UNL     1      47.414   2.107   6.703  0.00  0.00    +0.000 A 
ATOM     17  C   UNL     1      46.958   1.056   7.479  0.00  0.00    +0.000 A 
ATOM     18  N   UNL     1      46.031   1.215   8.452  0.00  0.00    +0.000 NA
ENDBRANCH  12  13
ENDBRANCH  10  12
ENDBRANCH   9  10
ENDBRANCH   3   9
BRANCH   6  19
ATOM     19  C   UNL     1      48.340   6.996  15.120  0.00  0.00    +0.000 C 
BRANCH  19  20
ATOM     20  N   UNL     1      49.486   6.333  15.692  0.00  0.00    +0.000 N 
ATOM     21  C   UNL     1      49.500   5.800  16.953  0.00  0.00    +0.000 C 
ATOM     22  O   UNL     1      48.569   5.938  17.744  0.00  0.00    +0.000 OA
ATOM     23  H   UNL     1      50.250   6.142  15.054  0.00  0.00    +0.000 HD
BRANCH  21  24
ATOM     24  C   UNL     1      50.707   5.051  17.325  0.00  0.00    +0.000 A 
ATOM     25  C   UNL     1      51.828   5.722  17.795  0.00  0.00    +0.000 A 
ATOM     26  S   UNL     1      53.116   4.686  18.217  0.00  0.00    +0.000 S 
ATOM     27  C   UNL     1      52.207   3.303  17.824  0.00  0.00    +0.000 A 
ATOM     28  N   UNL     1      52.719   2.054  18.002  0.00  0.00    +0.000 NA
ATOM     29  C   UNL     1      51.903   1.097  17.712  0.00  0.00    +0.000 A 
ATOM     30  N   UNL     1      50.628   1.274  17.244  0.00  0.00    +0.000 N 
ATOM     31  C   UNL     1      50.095   2.513  16.978  0.00  0.00    +0.000 A 
ATOM     32  O   UNL     1      48.999   2.627  16.439  0.00  0.00    +0.000 OA
ATOM     33  C   UNL     1      50.951   3.626  17.342  0.00  0.00    +0.000 A 
ATOM     34  H   UNL     1      50.051   0.481  17.002  0.00  0.00    +0.000 HD
ENDBRANCH  21  24
ENDBRANCH  19  20
ENDBRANCH   6  19
TORSDOF 8
ENDMDL
MODEL 5
REMARK VINA RESULT:    -6.901      2.529      2.970
REMARK INTER + INTRA:         -11.398
REMARK INTER:                 -10.090
REMARK INTRA:                  -1.309
REMARK UNBOUND:                -1.270
REMARK  Name = 
REMARK  9 active torsions:
REMARK  status: ('A' for Active; 'I' for Inactive)
REMARK    1  A    between atoms: C_1  and  O_2
REMARK    2  A    between atoms: O_2  and  C_3
REMARK    3  A    between atoms: C_5  and  C_6
REMARK    4  A    between atoms: C_6  and  N_7
REMARK    5  A    between atoms: N_7  and  C_8
REMARK    6  A    between atoms: C_8  and  C_9
REMARK    7  A    between atoms: C_17  and  C_18
REMARK    8  A    between atoms: C_18  and  N_19
REMARK    9  A    between atoms: C_20  and  C_22
REMARK                            x       y       z     vdW  Elec       q    Type
REMARK                         _______ _______ _______ _____ _____    ______ ____
ROOT
ATOM      1  C   UNL     1      47.262   5.727  13.931  0.00  0.00    +0.000 A 
ATOM      2  C   UNL     1      46.472   4.925  13.096  0.00  0.00    +0.000 A 
ATOM      3  C   UNL     1      45.872   5.451  11.941  0.00  0.00    +0.000 A 
ATOM      4  C   UNL     1      46.075   6.796  11.626  0.00  0.00    +0.000 A 
ATOM      5  C   UNL     1      46.854   7.602  12.454  0.00  0.00    +0.000 A 
ATOM      6  C   UNL     1      47.452   7.083  13.614  0.00  0.00    +0.000 A 
ENDROOT
BRANCH   1   8
ATOM      7  C   UNL     1      47.196   4.211  15.762  0.00  0.00    +0.000 C 
ATOM      8  O   UNL     1      47.855   5.276  15.085  0.00  0.00    +0.000 OA
ENDBRANCH   1   8
BRANCH   3   9
ATOM      9  C   UNL     1      45.074   4.558  11.019  0.00  0.00    +0.000 C 
BRANCH   9  10
ATOM     10  N   UNL     1      45.143   5.062   9.651  0.00  0.00    +0.000 NA
ATOM     11  H   UNL     1      46.122   5.211   9.403  0.00  0.00    +0.000 HD
BRANCH  10  12
ATOM     12  C   UNL     1      44.558   4.113   8.700  0.00  0.00    +0.000 C 
BRANCH  12  13
ATOM     13  C   UNL     1      45.595   3.180   8.117  0.00  0.00    +0.000 A 
ATOM     14  C   UNL     1      45.651   1.847   8.519  0.00  0.00    +0.000 A 
ATOM     15  N   UNL     1      46.565   0.968   8.039  0.00  0.00    +0.000 NA
ATOM     16  C   UNL     1      47.426   1.475   7.131  0.00  0.00    +0.000 A 
ATOM     17  C   UNL     1      47.380   2.797   6.723  0.00  0.00    +0.000 A 
ATOM     18  N   UNL     1      46.470   3.677   7.201  0.00  0.00    +0.000 NA
ENDBRANCH  12  13
ENDBRANCH  10  12
ENDBRANCH   9  10
ENDBRANCH   3   9
BRANCH   6  19
ATOM     19  C   UNL     1      48.317   7.995  14.451  0.00  0.00    +0.000 C 
BRANCH  19  20
ATOM     20  N   UNL     1      49.611   7.421  14.730  0.00  0.00    +0.000 N 
ATOM     21  C   UNL     1      50.647   8.124  15.282  0.00  0.00    +0.000 C 
ATOM     22  O   UNL     1      50.594   9.336  15.487  0.00  0.00    +0.000 OA
ATOM     23  H   UNL     1      49.677   6.414  14.635  0.00  0.00    +0.000 HD
BRANCH  21  24
ATOM     24  C   UNL     1      51.850   7.351  15.615  0.00  0.00    +0.000 A 
ATOM     25  C   UNL     1      53.059   7.642  14.998  0.00  0.00    +0.000 A 
ATOM     26  S   UNL     1      54.352   6.669  15.538  0.00  0.00    +0.000 S 
ATOM     27  C   UNL     1      53.350   5.852  16.644  0.00  0.00    +0.000 A 
ATOM     28  N   UNL     1      53.854   4.900  17.475  0.00  0.00    +0.000 NA
ATOM     29  C   UNL     1      52.993   4.399  18.296  0.00  0.00    +0.000 A 
ATOM     30  N   UNL     1      51.671   4.750  18.350  0.00  0.00    +0.000 N 
ATOM     31  C   UNL     1      51.101   5.652  17.482  0.00  0.00    +0.000 A 
ATOM     32  O   UNL     1      49.889   5.845  17.476  0.00  0.00    +0.000 OA
ATOM     33  C   UNL     1      52.038   6.288  16.576  0.00  0.00    +0.000 A 
ATOM     34  H   UNL     1      51.039   4.294  18.994  0.00  0.00    +0.000 HD
ENDBRANCH  21  24
ENDBRANCH  19  20
ENDBRANCH   6  19
TORSDOF 8
ENDMDL
MODEL 6
REMARK VINA RESULT:    -6.842      3.552      4.997
REMARK INTER + INTRA:         -11.312
REMARK INTER:                 -10.041
REMARK INTRA:                  -1.271
REMARK UNBOUND:                -1.270
REMARK  Name = 
REMARK  9 active torsions:
REMARK  status: ('A' for Active; 'I' for Inactive)
REMARK    1  A    between atoms: C_1  and  O_2
REMARK    2  A    between atoms: O_2  and  C_3
REMARK    3  A    between atoms: C_5  and  C_6
REMARK    4  A    between atoms: C_6  and  N_7
REMARK    5  A    between atoms: N_7  and  C_8
REMARK    6  A    between atoms: C_8  and  C_9
REMARK    7  A    between atoms: C_17  and  C_18
REMARK    8  A    between atoms: C_18  and  N_19
REMARK    9  A    between atoms: C_20  and  C_22
REMARK                            x       y       z     vdW  Elec       q    Type
REMARK                         _______ _______ _______ _____ _____    ______ ____
ROOT
ATOM      1  C   UNL     1      46.709   5.254  13.345  0.00  0.00    +0.000 A 
ATOM      2  C   UNL     1      45.904   4.194  12.903  0.00  0.00    +0.000 A 
ATOM      3  C   UNL     1      44.986   4.368  11.855  0.00  0.00    +0.000 A 
ATOM      4  C   UNL     1      44.882   5.622  11.248  0.00  0.00    +0.000 A 
ATOM      5  C   UNL     1      45.673   6.683  11.685  0.00  0.00    +0.000 A 
ATOM      6  C   UNL     1      46.590   6.516  12.737  0.00  0.00    +0.000 A 
ENDROOT
BRANCH   1   8
ATOM      7  C   UNL     1      47.211   4.348  15.485  0.00  0.00    +0.000 C 
ATOM      8  O   UNL     1      47.607   5.150  14.378  0.00  0.00    +0.000 OA
ENDBRANCH   1   8
BRANCH   3   9
ATOM      9  C   UNL     1      44.171   3.201  11.350  0.00  0.00    +0.000 C 
BRANCH   9  10
ATOM     10  N   UNL     1      44.923   2.466  10.337  0.00  0.00    +0.000 NA
ATOM     11  H   UNL     1      44.693   1.474  10.410  0.00  0.00    +0.000 HD
BRANCH  10  12
ATOM     12  C   UNL     1      44.593   2.927   8.985  0.00  0.00    +0.000 C 
BRANCH  12  13
ATOM     13  C   UNL     1      45.698   2.627   7.997  0.00  0.00    +0.000 A 
ATOM     14  C   UNL     1      46.394   1.422   8.059  0.00  0.00    +0.000 A 
ATOM     15  N   UNL     1      47.400   1.105   7.207  0.00  0.00    +0.000 NA
ATOM     16  C   UNL     1      47.683   2.044   6.280  0.00  0.00    +0.000 A 
ATOM     17  C   UNL     1      46.999   3.244   6.207  0.00  0.00    +0.000 A 
ATOM     18  N   UNL     1      45.996   3.565   7.057  0.00  0.00    +0.000 NA
ENDBRANCH  12  13
ENDBRANCH  10  12
ENDBRANCH   9  10
ENDBRANCH   3   9
BRANCH   6  19
ATOM     19  C   UNL     1      47.447   7.691  13.141  0.00  0.00    +0.000 C 
BRANCH  19  20
ATOM     20  N   UNL     1      48.822   7.533  12.733  0.00  0.00    +0.000 N 
ATOM     21  C   UNL     1      49.451   8.372  11.854  0.00  0.00    +0.000 C 
ATOM     22  O   UNL     1      48.861   9.269  11.252  0.00  0.00    +0.000 OA
ATOM     23  H   UNL     1      49.360   6.847  13.250  0.00  0.00    +0.000 HD
BRANCH  21  24
ATOM     24  C   UNL     1      50.886   8.139  11.649  0.00  0.00    +0.000 A 
ATOM     25  C   UNL     1      51.345   7.628  10.443  0.00  0.00    +0.000 A 
ATOM     26  S   UNL     1      53.041   7.463  10.374  0.00  0.00    +0.000 S 
ATOM     27  C   UNL     1      53.225   8.105  11.938  0.00  0.00    +0.000 A 
ATOM     28  N   UNL     1      54.460   8.284  12.482  0.00  0.00    +0.000 NA
ATOM     29  C   UNL     1      54.453   8.827  13.654  0.00  0.00    +0.000 A 
ATOM     30  N   UNL     1      53.324   9.191  14.338  0.00  0.00    +0.000 N 
ATOM     31  C   UNL     1      52.054   8.962  13.861  0.00  0.00    +0.000 A 
ATOM     32  O   UNL     1      51.069   9.184  14.556  0.00  0.00    +0.000 OA
ATOM     33  C   UNL     1      52.007   8.407  12.522  0.00  0.00    +0.000 A 
ATOM     34  H   UNL     1      53.385   9.580  15.268  0.00  0.00    +0.000 HD
ENDBRANCH  21  24
ENDBRANCH  19  20
ENDBRANCH   6  19
TORSDOF 8
ENDMDL
MODEL 7
REMARK VINA RESULT:    -6.816      1.960      2.734
REMARK INTER + INTRA:         -11.274
REMARK INTER:                 -10.335
REMARK INTRA:                  -0.939
REMARK UNBOUND:                -1.270
REMARK  Name = 
REMARK  9 active torsions:
REMARK  status: ('A' for Active; 'I' for Inactive)
REMARK    1  A    between atoms: C_1  and  O_2
REMARK    2  A    between atoms: O_2  and  C_3
REMARK    3  A    between atoms: C_5  and  C_6
REMARK    4  A    between atoms: C_6  and  N_7
REMARK    5  A    between atoms: N_7  and  C_8
REMARK    6  A    between atoms: C_8  and  C_9
REMARK    7  A    between atoms: C_17  and  C_18
REMARK    8  A    between atoms: C_18  and  N_19
REMARK    9  A    between atoms: C_20  and  C_22
REMARK                            x       y       z     vdW  Elec       q    Type
REMARK                         _______ _______ _______ _____ _____    ______ ____
ROOT
ATOM      1  C   UNL     1      45.228   6.608  12.583  0.00  0.00    +0.000 A 
ATOM      2  C   UNL     1      44.334   5.752  11.924  0.00  0.00    +0.000 A 
ATOM      3  C   UNL     1      44.603   4.379  11.798  0.00  0.00    +0.000 A 
ATOM      4  C   UNL     1      45.782   3.868  12.344  0.00  0.00    +0.000 A 
ATOM      5  C   UNL     1      46.680   4.713  12.995  0.00  0.00    +0.000 A 
ATOM      6  C   UNL     1      46.419   6.088  13.119  0.00  0.00    +0.000 A 
ENDROOT
BRANCH   1   8
ATOM      7  C   UNL     1      44.959   8.714  11.513  0.00  0.00    +0.000 C 
ATOM      8  O   UNL     1      45.031   7.960  12.718  0.00  0.00    +0.000 OA
ENDBRANCH   1   8
BRANCH   3   9
ATOM      9  C   UNL     1      43.600   3.461  11.140  0.00  0.00    +0.000 C 
BRANCH   9  10
ATOM     10  N   UNL     1      43.877   3.361   9.710  0.00  0.00    +0.000 NA
ATOM     11  H   UNL     1      44.516   4.111   9.444  0.00  0.00    +0.000 HD
BRANCH  10  12
ATOM     12  C   UNL     1      44.495   2.076   9.372  0.00  0.00    +0.000 C 
BRANCH  12  13
ATOM     13  C   UNL     1      45.649   2.237   8.408  0.00  0.00    +0.000 A 
ATOM     14  C   UNL     1      46.382   1.128   7.992  0.00  0.00    +0.000 A 
ATOM     15  N   UNL     1      47.432   1.214   7.138  0.00  0.00    +0.000 NA
ATOM     16  C   UNL     1      47.721   2.461   6.708  0.00  0.00    +0.000 A 
ATOM     17  C   UNL     1      47.000   3.570   7.113  0.00  0.00    +0.000 A 
ATOM     18  N   UNL     1      45.952   3.488   7.967  0.00  0.00    +0.000 NA
ENDBRANCH  12  13
ENDBRANCH  10  12
ENDBRANCH   9  10
ENDBRANCH   3   9
BRANCH   6  19
ATOM     19  C   UNL     1      47.410   6.946  13.868  0.00  0.00    +0.000 C 
BRANCH  19  20
ATOM     20  N   UNL     1      48.048   6.232  14.948  0.00  0.00    +0.000 N 
ATOM     21  C   UNL     1      48.749   6.845  15.950  0.00  0.00    +0.000 C 
ATOM     22  O   UNL     1      48.987   8.052  15.953  0.00  0.00    +0.000 OA
ATOM     23  H   UNL     1      47.825   5.245  15.018  0.00  0.00    +0.000 HD
BRANCH  21  24
ATOM     24  C   UNL     1      49.223   5.977  17.035  0.00  0.00    +0.000 A 
ATOM     25  C   UNL     1      48.313   5.353  17.878  0.00  0.00    +0.000 A 
ATOM     26  S   UNL     1      49.045   4.352  19.049  0.00  0.00    +0.000 S 
ATOM     27  C   UNL     1      50.600   4.685  18.446  0.00  0.00    +0.000 A 
ATOM     28  N   UNL     1      51.702   4.095  18.985  0.00  0.00    +0.000 NA
ATOM     29  C   UNL     1      52.811   4.399  18.397  0.00  0.00    +0.000 A 
ATOM     30  N   UNL     1      52.920   5.252  17.332  0.00  0.00    +0.000 N 
ATOM     31  C   UNL     1      51.846   5.928  16.802  0.00  0.00    +0.000 A 
ATOM     32  O   UNL     1      52.001   6.780  15.934  0.00  0.00    +0.000 OA
ATOM     33  C   UNL     1      50.567   5.578  17.390  0.00  0.00    +0.000 A 
ATOM     34  H   UNL     1      53.823   5.476  16.938  0.00  0.00    +0.000 HD
ENDBRANCH  21  24
ENDBRANCH  19  20
ENDBRANCH   6  19
TORSDOF 8
ENDMDL
MODEL 8
REMARK VINA RESULT:    -6.744      3.165      4.478
REMARK INTER + INTRA:         -11.168
REMARK INTER:                  -9.773
REMARK INTRA:                  -1.395
REMARK UNBOUND:                -1.270
REMARK  Name = 
REMARK  9 active torsions:
REMARK  status: ('A' for Active; 'I' for Inactive)
REMARK    1  A    between atoms: C_1  and  O_2
REMARK    2  A    between atoms: O_2  and  C_3
REMARK    3  A    between atoms: C_5  and  C_6
REMARK    4  A    between atoms: C_6  and  N_7
REMARK    5  A    between atoms: N_7  and  C_8
REMARK    6  A    between atoms: C_8  and  C_9
REMARK    7  A    between atoms: C_17  and  C_18
REMARK    8  A    between atoms: C_18  and  N_19
REMARK    9  A    between atoms: C_20  and  C_22
REMARK                            x       y       z     vdW  Elec       q    Type
REMARK                         _______ _______ _______ _____ _____    ______ ____
ROOT
ATOM      1  C   UNL     1      47.911   4.923  16.408  0.00  0.00    +0.000 A 
ATOM      2  C   UNL     1      47.165   4.658  15.251  0.00  0.00    +0.000 A 
ATOM      3  C   UNL     1      47.296   5.457  14.104  0.00  0.00    +0.000 A 
ATOM      4  C   UNL     1      48.189   6.531  14.126  0.00  0.00    +0.000 A 
ATOM      5  C   UNL     1      48.929   6.806  15.274  0.00  0.00    +0.000 A 
ATOM      6  C   UNL     1      48.799   6.013  16.427  0.00  0.00    +0.000 A 
ENDROOT
BRANCH   1   8
ATOM      7  C   UNL     1      47.218   2.902  17.451  0.00  0.00    +0.000 C 
ATOM      8  O   UNL     1      47.810   4.191  17.565  0.00  0.00    +0.000 OA
ENDBRANCH   1   8
BRANCH   3   9
ATOM      9  C   UNL     1      46.531   5.120  12.846  0.00  0.00    +0.000 C 
BRANCH   9  10
ATOM     10  N   UNL     1      45.125   5.482  13.003  0.00  0.00    +0.000 NA
ATOM     11  H   UNL     1      45.050   6.216  13.709  0.00  0.00    +0.000 HD
BRANCH  10  12
ATOM     12  C   UNL     1      44.556   5.979  11.747  0.00  0.00    +0.000 C 
BRANCH  12  13
ATOM     13  C   UNL     1      44.717   4.986  10.618  0.00  0.00    +0.000 A 
ATOM     14  C   UNL     1      45.476   5.309   9.496  0.00  0.00    +0.000 A 
ATOM     15  N   UNL     1      45.646   4.463   8.450  0.00  0.00    +0.000 NA
ATOM     16  C   UNL     1      45.027   3.270   8.571  0.00  0.00    +0.000 A 
ATOM     17  C   UNL     1      44.271   2.936   9.681  0.00  0.00    +0.000 A 
ATOM     18  N   UNL     1      44.098   3.779  10.727  0.00  0.00    +0.000 NA
ENDBRANCH  12  13
ENDBRANCH  10  12
ENDBRANCH   9  10
ENDBRANCH   3   9
BRANCH   6  19
ATOM     19  C   UNL     1      49.656   6.336  17.627  0.00  0.00    +0.000 C 
BRANCH  19  20
ATOM     20  N   UNL     1      50.619   5.299  17.909  0.00  0.00    +0.000 N 
ATOM     21  C   UNL     1      51.881   5.275  17.379  0.00  0.00    +0.000 C 
ATOM     22  O   UNL     1      52.262   6.080  16.531  0.00  0.00    +0.000 OA
ATOM     23  H   UNL     1      50.369   4.653  18.649  0.00  0.00    +0.000 HD
BRANCH  21  24
ATOM     24  C   UNL     1      52.770   4.216  17.873  0.00  0.00    +0.000 A 
ATOM     25  C   UNL     1      53.974   4.543  18.482  0.00  0.00    +0.000 A 
ATOM     26  S   UNL     1      54.853   3.188  19.028  0.00  0.00    +0.000 S 
ATOM     27  C   UNL     1      53.637   2.118  18.506  0.00  0.00    +0.000 A 
ATOM     28  N   UNL     1      53.745   0.778  18.717  0.00  0.00    +0.000 NA
ATOM     29  C   UNL     1      52.728   0.091  18.316  0.00  0.00    +0.000 A 
ATOM     30  N   UNL     1      51.621   0.620  17.708  0.00  0.00    +0.000 N 
ATOM     31  C   UNL     1      51.500   1.957  17.408  0.00  0.00    +0.000 A 
ATOM     32  O   UNL     1      50.553   2.373  16.749  0.00  0.00    +0.000 OA
ATOM     33  C   UNL     1      52.592   2.781  17.889  0.00  0.00    +0.000 A 
ATOM     34  H   UNL     1      50.872   0.024  17.386  0.00  0.00    +0.000 HD
ENDBRANCH  21  24
ENDBRANCH  19  20
ENDBRANCH   6  19
TORSDOF 8
ENDMDL
MODEL 9
REMARK VINA RESULT:    -6.560      3.611      5.342
REMARK INTER + INTRA:         -10.897
REMARK INTER:                  -9.343
REMARK INTRA:                  -1.554
REMARK UNBOUND:                -1.270
REMARK  Name = 
REMARK  9 active torsions:
REMARK  status: ('A' for Active; 'I' for Inactive)
REMARK    1  A    between atoms: C_1  and  O_2
REMARK    2  A    between atoms: O_2  and  C_3
REMARK    3  A    between atoms: C_5  and  C_6
REMARK    4  A    between atoms: C_6  and  N_7
REMARK    5  A    between atoms: N_7  and  C_8
REMARK    6  A    between atoms: C_8  and  C_9
REMARK    7  A    between atoms: C_17  and  C_18
REMARK    8  A    between atoms: C_18  and  N_19
REMARK    9  A    between atoms: C_20  and  C_22
REMARK                            x       y       z     vdW  Elec       q    Type
REMARK                         _______ _______ _______ _____ _____    ______ ____
ROOT
ATOM      1  C   UNL     1      47.590   6.467  13.618  0.00  0.00    +0.000 A 
ATOM      2  C   UNL     1      46.882   5.468  12.935  0.00  0.00    +0.000 A 
ATOM      3  C   UNL     1      45.838   5.792  12.054  0.00  0.00    +0.000 A 
ATOM      4  C   UNL     1      45.509   7.136  11.860  0.00  0.00    +0.000 A 
ATOM      5  C   UNL     1      46.203   8.135  12.540  0.00  0.00    +0.000 A 
ATOM      6  C   UNL     1      47.245   7.816  13.428  0.00  0.00    +0.000 A 
ENDROOT
BRANCH   1   8
ATOM      7  C   UNL     1      48.222   5.656  15.762  0.00  0.00    +0.000 C 
ATOM      8  O   UNL     1      48.604   6.211  14.508  0.00  0.00    +0.000 OA
ENDBRANCH   1   8
BRANCH   3   9
ATOM      9  C   UNL     1      45.127   4.708  11.279  0.00  0.00    +0.000 C 
BRANCH   9  10
ATOM     10  N   UNL     1      44.817   5.177   9.932  0.00  0.00    +0.000 NA
ATOM     11  H   UNL     1      45.677   5.501   9.489  0.00  0.00    +0.000 HD
BRANCH  10  12
ATOM     12  C   UNL     1      44.240   4.108   9.111  0.00  0.00    +0.000 C 
BRANCH  12  13
ATOM     13  C   UNL     1      45.305   3.269   8.441  0.00  0.00    +0.000 A 
ATOM     14  C   UNL     1      45.437   1.918   8.751  0.00  0.00    +0.000 A 
ATOM     15  N   UNL     1      46.380   1.120   8.190  0.00  0.00    +0.000 NA
ATOM     16  C   UNL     1      47.188   1.729   7.297  0.00  0.00    +0.000 A 
ATOM     17  C   UNL     1      47.066   3.070   6.980  0.00  0.00    +0.000 A 
ATOM     18  N   UNL     1      46.128   3.870   7.539  0.00  0.00    +0.000 NA
ENDBRANCH  12  13
ENDBRANCH  10  12
ENDBRANCH   9  10
ENDBRANCH   3   9
BRANCH   6  19
ATOM     19  C   UNL     1      47.986   8.943  14.106  0.00  0.00    +0.000 C 
BRANCH  19  20
ATOM     20  N   UNL     1      49.240   9.244  13.458  0.00  0.00    +0.000 N 
ATOM     21  C   UNL     1      50.460   9.067  14.053  0.00  0.00    +0.000 C 
ATOM     22  O   UNL     1      50.584   8.738  15.232  0.00  0.00    +0.000 OA
ATOM     23  H   UNL     1      49.186   9.457  12.468  0.00  0.00    +0.000 HD
BRANCH  21  24
ATOM     24  C   UNL     1      51.634   9.304  13.204  0.00  0.00    +0.000 A 
ATOM     25  C   UNL     1      52.653  10.141  13.640  0.00  0.00    +0.000 A 
ATOM     26  S   UNL     1      53.952  10.263  12.542  0.00  0.00    +0.000 S 
ATOM     27  C   UNL     1      53.218   9.170  11.464  0.00  0.00    +0.000 A 
ATOM     28  N   UNL     1      53.842   8.794  10.314  0.00  0.00    +0.000 NA
ATOM     29  C   UNL     1      53.194   7.921   9.617  0.00  0.00    +0.000 A 
ATOM     30  N   UNL     1      51.973   7.404   9.955  0.00  0.00    +0.000 N 
ATOM     31  C   UNL     1      51.271   7.809  11.067  0.00  0.00    +0.000 A 
ATOM     32  O   UNL     1      50.126   7.419  11.268  0.00  0.00    +0.000 OA
ATOM     33  C   UNL     1      51.981   8.746  11.916  0.00  0.00    +0.000 A 
ATOM     34  H   UNL     1      51.501   6.749   9.348  0.00  0.00    +0.000 HD
ENDBRANCH  21  24
ENDBRANCH  19  20
ENDBRANCH   6  19
TORSDOF 8
ENDMDL
