MODEL 1
REMARK VINA RESULT:    -7.794      0.000      0.000
REMARK INTER + INTRA:         -10.582
REMARK INTER:                  -9.844
REMARK INTRA:                  -0.738
REMARK UNBOUND:                -0.738
REMARK  Name = 
REMARK  5 active torsions:
REMARK  status: ('A' for Active; 'I' for Inactive)
REMARK    1  A    between atoms: N_1  and  C_2
REMARK    2  A    between atoms: C_2  and  C_3
REMARK    3  A    between atoms: C_3  and  C_4
REMARK    4  A    between atoms: C_7  and  C_8
REMARK    5  A    between atoms: C_8  and  C_9
REMARK                            x       y       z     vdW  Elec       q    Type
REMARK                         _______ _______ _______ _____ _____    ______ ____
ROOT
ATOM      1  C   UNL     1      46.133   2.261   7.752  0.00  0.00    +0.000 A 
ATOM      2  C   UNL     1      45.356   1.652   8.745  0.00  0.00    +0.000 A 
ATOM      3  C   UNL     1      44.592   2.425   9.627  0.00  0.00    +0.000 A 
ATOM      4  C   UNL     1      44.584   3.823   9.531  0.00  0.00    +0.000 A 
ATOM      5  C   UNL     1      45.341   4.428   8.518  0.00  0.00    +0.000 A 
ATOM      6  C   UNL     1      46.104   3.656   7.635  0.00  0.00    +0.000 A 
ENDROOT
BRANCH   1   7
ATOM      7  C   UNL     1      47.007   1.432   6.841  0.00  0.00    +0.000 C 
BRANCH   7   8
ATOM      8  C   UNL     1      48.294   2.150   6.422  0.00  0.00    +0.000 C 
BRANCH   8   9
ATOM      9  N   UNL     1      48.272   2.459   4.991  0.00  0.00    +0.000 NA
ATOM     10  H   UNL     1      48.983   1.904   4.513  0.00  0.00    +0.000 HD
ATOM     11  H   UNL     1      48.529   3.435   4.846  0.00  0.00    +0.000 HD
ENDBRANCH   8   9
ENDBRANCH   7   8
ENDBRANCH   1   7
BRANCH   4  12
ATOM     12  C   UNL     1      43.756   4.660  10.477  0.00  0.00    +0.000 C 
BRANCH  12  13
ATOM     13  C   UNL     1      44.500   4.750  11.773  0.00  0.00    +0.000 A 
ATOM     14  C   UNL     1      44.231   4.032  12.931  0.00  0.00    +0.000 A 
ATOM     15  N   UNL     1      45.176   4.353  13.871  0.00  0.00    +0.000 N 
ATOM     16  C   UNL     1      46.071   5.241  13.346  0.00  0.00    +0.000 A 
ATOM     17  N   UNL     1      47.138   5.722  14.011  0.00  0.00    +0.000 NA
ATOM     18  C   UNL     1      47.874   6.579  13.268  0.00  0.00    +0.000 A 
ATOM     19  C   UNL     1      47.599   6.959  11.961  0.00  0.00    +0.000 A 
ATOM     20  C   UNL     1      46.479   6.426  11.320  0.00  0.00    +0.000 A 
ATOM     21  C   UNL     1      45.678   5.524  12.042  0.00  0.00    +0.000 A 
ATOM     22  H   UNL     1      45.244   3.985  14.808  0.00  0.00    +0.000 HD
ENDBRANCH  12  13
ENDBRANCH   4  12
TORSDOF 5
ENDMDL
MODEL 2
REMARK VINA RESULT:    -7.247      1.284      1.706
REMARK INTER + INTRA:          -9.891
REMARK INTER:                  -9.267
REMARK INTRA:                  -0.624
REMARK UNBOUND:                -0.738
REMARK  Name = 
REMARK  5 active torsions:
REMARK  status: ('A' for Active; 'I' for Inactive)
REMARK    1  A    between atoms: N_1  and  C_2
REMARK    2  A    between atoms: C_2  and  C_3
REMARK    3  A    between atoms: C_3  and  C_4
REMARK    4  A    between atoms: C_7  and  C_8
REMARK    5  A    between atoms: C_8  and  C_9
REMARK                            x       y       z     vdW  Elec       q    Type
REMARK                         _______ _______ _______ _____ _____    ______ ____
ROOT
ATOM      1  C   UNL     1      45.893   2.803   7.932  0.00  0.00    +0.000 A 
ATOM      2  C   UNL     1      46.179   4.173   7.981  0.00  0.00    +0.000 A 
ATOM      3  C   UNL     1      45.647   4.977   8.995  0.00  0.00    +0.000 A 
ATOM      4  C   UNL     1      44.822   4.428   9.986  0.00  0.00    +0.000 A 
ATOM      5  C   UNL     1      44.560   3.051   9.950  0.00  0.00    +0.000 A 
ATOM      6  C   UNL     1      45.092   2.247   8.937  0.00  0.00    +0.000 A 
ENDROOT
BRANCH   1   7
ATOM      7  C   UNL     1      46.414   1.947   6.802  0.00  0.00    +0.000 C 
BRANCH   7   8
ATOM      8  C   UNL     1      47.492   0.953   7.245  0.00  0.00    +0.000 C 
BRANCH   8   9
ATOM      9  N   UNL     1      46.888  -0.315   7.659  0.00  0.00    +0.000 NA
ATOM     10  H   UNL     1      45.895  -0.174   7.843  0.00  0.00    +0.000 HD
ATOM     11  H   UNL     1      47.301  -0.620   8.541  0.00  0.00    +0.000 HD
ENDBRANCH   8   9
ENDBRANCH   7   8
ENDBRANCH   1   7
BRANCH   4  12
ATOM     12  C   UNL     1      44.251   5.291  11.086  0.00  0.00    +0.000 C 
BRANCH  12  13
ATOM     13  C   UNL     1      45.177   5.205  12.258  0.00  0.00    +0.000 A 
ATOM     14  C   UNL     1      45.064   4.339  13.338  0.00  0.00    +0.000 A 
ATOM     15  N   UNL     1      46.142   4.528  14.164  0.00  0.00    +0.000 N 
ATOM     16  C   UNL     1      46.971   5.476  13.635  0.00  0.00    +0.000 A 
ATOM     17  N   UNL     1      48.135   5.860  14.192  0.00  0.00    +0.000 NA
ATOM     18  C   UNL     1      48.775   6.806  13.469  0.00  0.00    +0.000 A 
ATOM     19  C   UNL     1      48.321   7.358  12.278  0.00  0.00    +0.000 A 
ATOM     20  C   UNL     1      47.108   6.920  11.745  0.00  0.00    +0.000 A 
ATOM     21  C   UNL     1      46.399   5.932  12.451  0.00  0.00    +0.000 A 
ATOM     22  H   UNL     1      46.337   4.038  15.024  0.00  0.00    +0.000 HD
ENDBRANCH  12  13
ENDBRANCH   4  12
TORSDOF 5
ENDMDL
MODEL 3
REMARK VINA RESULT:    -6.498      2.008      6.266
REMARK INTER + INTRA:          -8.946
REMARK INTER:                  -8.238
REMARK INTRA:                  -0.708
REMARK UNBOUND:                -0.738
REMARK  Name = 
REMARK  5 active torsions:
REMARK  status: ('A' for Active; 'I' for Inactive)
REMARK    1  A    between atoms: N_1  and  C_2
REMARK    2  A    between atoms: C_2  and  C_3
REMARK    3  A    between atoms: C_3  and  C_4
REMARK    4  A    between atoms: C_7  and  C_8
REMARK    5  A    between atoms: C_8  and  C_9
REMARK                            x       y       z     vdW  Elec       q    Type
REMARK                         _______ _______ _______ _____ _____    ______ ____
ROOT
ATOM      1  C   UNL     1      47.485   7.220  13.162  0.00  0.00    +0.000 A 
ATOM      2  C   UNL     1      47.002   5.946  13.482  0.00  0.00    +0.000 A 
ATOM      3  C   UNL     1      45.822   5.464  12.904  0.00  0.00    +0.000 A 
ATOM      4  C   UNL     1      45.103   6.244  11.988  0.00  0.00    +0.000 A 
ATOM      5  C   UNL     1      45.603   7.509  11.649  0.00  0.00    +0.000 A 
ATOM      6  C   UNL     1      46.783   7.990  12.226  0.00  0.00    +0.000 A 
ENDROOT
BRANCH   1   7
ATOM      7  C   UNL     1      48.722   7.767  13.833  0.00  0.00    +0.000 C 
BRANCH   7   8
ATOM      8  C   UNL     1      48.513   9.156  14.444  0.00  0.00    +0.000 C 
BRANCH   8   9
ATOM      9  N   UNL     1      47.564   9.096  15.557  0.00  0.00    +0.000 NA
ATOM     10  H   UNL     1      47.196   8.148  15.638  0.00  0.00    +0.000 HD
ATOM     11  H   UNL     1      46.763   9.696  15.358  0.00  0.00    +0.000 HD
ENDBRANCH   8   9
ENDBRANCH   7   8
ENDBRANCH   1   7
BRANCH   4  12
ATOM     12  C   UNL     1      43.832   5.724  11.358  0.00  0.00    +0.000 C 
BRANCH  12  13
ATOM     13  C   UNL     1      44.103   4.336  10.868  0.00  0.00    +0.000 A 
ATOM     14  C   UNL     1      43.571   3.160  11.381  0.00  0.00    +0.000 A 
ATOM     15  N   UNL     1      44.013   2.112  10.618  0.00  0.00    +0.000 N 
ATOM     16  C   UNL     1      44.798   2.576   9.601  0.00  0.00    +0.000 A 
ATOM     17  N   UNL     1      45.355   1.794   8.657  0.00  0.00    +0.000 NA
ATOM     18  C   UNL     1      46.079   2.496   7.757  0.00  0.00    +0.000 A 
ATOM     19  C   UNL     1      46.263   3.872   7.763  0.00  0.00    +0.000 A 
ATOM     20  C   UNL     1      45.660   4.634   8.766  0.00  0.00    +0.000 A 
ATOM     21  C   UNL     1      44.889   3.958   9.728  0.00  0.00    +0.000 A 
ATOM     22  H   UNL     1      43.788   1.136  10.744  0.00  0.00    +0.000 HD
ENDBRANCH  12  13
ENDBRANCH   4  12
TORSDOF 5
ENDMDL
MODEL 4
REMARK VINA RESULT:    -6.472      1.768      6.380
REMARK INTER + INTRA:          -8.913
REMARK INTER:                  -8.348
REMARK INTRA:                  -0.566
REMARK UNBOUND:                -0.738
REMARK  Name = 
REMARK  5 active torsions:
REMARK  status: ('A' for Active; 'I' for Inactive)
REMARK    1  A    between atoms: N_1  and  C_2
REMARK    2  A    between atoms: C_2  and  C_3
REMARK    3  A    between atoms: C_3  and  C_4
REMARK    4  A    between atoms: C_7  and  C_8
REMARK    5  A    between atoms: C_8  and  C_9
REMARK                            x       y       z     vdW  Elec       q    Type
REMARK                         _______ _______ _______ _____ _____    ______ ____
ROOT
ATOM      1  C   UNL     1      46.573   5.571  13.150  0.00  0.00    +0.000 A 
ATOM      2  C   UNL     1      46.744   6.279  11.955  0.00  0.00    +0.000 A 
ATOM      3  C   UNL     1      46.037   5.916  10.803  0.00  0.00    +0.000 A 
ATOM      4  C   UNL     1      45.138   4.842  10.823  0.00  0.00    +0.000 A 
ATOM      5  C   UNL     1      44.948   4.152  12.029  0.00  0.00    +0.000 A 
ATOM      6  C   UNL     1      45.654   4.515  13.180  0.00  0.00    +0.000 A 
ENDROOT
BRANCH   1   7
ATOM      7  C   UNL     1      47.383   5.920  14.375  0.00  0.00    +0.000 C 
BRANCH   7   8
ATOM      8  C   UNL     1      47.439   4.788  15.405  0.00  0.00    +0.000 C 
BRANCH   8   9
ATOM      9  N   UNL     1      48.638   4.903  16.238  0.00  0.00    +0.000 NA
ATOM     10  H   UNL     1      49.191   4.050  16.156  0.00  0.00    +0.000 HD
ATOM     11  H   UNL     1      48.369   4.974  17.220  0.00  0.00    +0.000 HD
ENDBRANCH   8   9
ENDBRANCH   7   8
ENDBRANCH   1   7
BRANCH   4  12
ATOM     12  C   UNL     1      44.368   4.452   9.584  0.00  0.00    +0.000 C 
BRANCH  12  13
ATOM     13  C   UNL     1      44.926   3.153   9.093  0.00  0.00    +0.000 A 
ATOM     14  C   UNL     1      44.478   1.881   9.428  0.00  0.00    +0.000 A 
ATOM     15  N   UNL     1      45.208   0.962   8.721  0.00  0.00    +0.000 N 
ATOM     16  C   UNL     1      46.102   1.602   7.910  0.00  0.00    +0.000 A 
ATOM     17  N   UNL     1      46.940   0.975   7.063  0.00  0.00    +0.000 NA
ATOM     18  C   UNL     1      47.718   1.833   6.366  0.00  0.00    +0.000 A 
ATOM     19  C   UNL     1      47.697   3.217   6.477  0.00  0.00    +0.000 A 
ATOM     20  C   UNL     1      46.806   3.813   7.371  0.00  0.00    +0.000 A 
ATOM     21  C   UNL     1      45.966   2.970   8.121  0.00  0.00    +0.000 A 
ATOM     22  H   UNL     1      45.105  -0.042   8.750  0.00  0.00    +0.000 HD
ENDBRANCH  12  13
ENDBRANCH   4  12
TORSDOF 5
ENDMDL
MODEL 5
REMARK VINA RESULT:    -5.672      2.018      3.090
REMARK INTER + INTRA:          -7.902
REMARK INTER:                  -7.567
REMARK INTRA:                  -0.335
REMARK UNBOUND:                -0.738
REMARK  Name = 
REMARK  5 active torsions:
REMARK  status: ('A' for Active; 'I' for Inactive)
REMARK    1  A    between atoms: N_1  and  C_2
REMARK    2  A    between atoms: C_2  and  C_3
REMARK    3  A    between atoms: C_3  and  C_4
REMARK    4  A    between atoms: C_7  and  C_8
REMARK    5  A    between atoms: C_8  and  C_9
REMARK                            x       y       z     vdW  Elec       q    Type
REMARK                         _______ _______ _______ _____ _____    ______ ____
ROOT
ATOM      1  C   UNL     1      45.054   4.031   9.094  0.00  0.00    +0.000 A 
ATOM      2  C   UNL     1      44.317   3.488  10.154  0.00  0.00    +0.000 A 
ATOM      3  C   UNL     1      44.284   4.125  11.399  0.00  0.00    +0.000 A 
ATOM      4  C   UNL     1      44.980   5.323  11.611  0.00  0.00    +0.000 A 
ATOM      5  C   UNL     1      45.694   5.879  10.539  0.00  0.00    +0.000 A 
ATOM      6  C   UNL     1      45.727   5.243   9.294  0.00  0.00    +0.000 A 
ENDROOT
BRANCH   1   7
ATOM      7  C   UNL     1      45.144   3.312   7.770  0.00  0.00    +0.000 C 
BRANCH   7   8
ATOM      8  C   UNL     1      46.584   3.116   7.286  0.00  0.00    +0.000 C 
BRANCH   8   9
ATOM      9  N   UNL     1      46.887   4.026   6.179  0.00  0.00    +0.000 NA
ATOM     10  H   UNL     1      47.181   3.485   5.366  0.00  0.00    +0.000 HD
ATOM     11  H   UNL     1      47.679   4.618   6.428  0.00  0.00    +0.000 HD
ENDBRANCH   8   9
ENDBRANCH   7   8
ENDBRANCH   1   7
BRANCH   4  12
ATOM     12  C   UNL     1      44.940   6.016  12.951  0.00  0.00    +0.000 C 
BRANCH  12  13
ATOM     13  C   UNL     1      45.712   7.293  12.825  0.00  0.00    +0.000 A 
ATOM     14  C   UNL     1      45.181   8.566  12.659  0.00  0.00    +0.000 A 
ATOM     15  N   UNL     1      46.212   9.470  12.651  0.00  0.00    +0.000 N 
ATOM     16  C   UNL     1      47.399   8.822  12.837  0.00  0.00    +0.000 A 
ATOM     17  N   UNL     1      48.594   9.438  12.914  0.00  0.00    +0.000 NA
ATOM     18  C   UNL     1      49.616   8.575  13.111  0.00  0.00    +0.000 A 
ATOM     19  C   UNL     1      49.500   7.196  13.224  0.00  0.00    +0.000 A 
ATOM     20  C   UNL     1      48.236   6.611  13.138  0.00  0.00    +0.000 A 
ATOM     21  C   UNL     1      47.132   7.460  12.939  0.00  0.00    +0.000 A 
ATOM     22  H   UNL     1      46.135  10.471  12.553  0.00  0.00    +0.000 HD
ENDBRANCH  12  13
ENDBRANCH   4  12
TORSDOF 5
ENDMDL
MODEL 6
REMARK VINA RESULT:    -5.570      2.218      3.606
REMARK INTER + INTRA:          -7.773
REMARK INTER:                  -7.172
REMARK INTRA:                  -0.602
REMARK UNBOUND:                -0.738
REMARK  Name = 
REMARK  5 active torsions:
REMARK  status: ('A' for Active; 'I' for Inactive)
REMARK    1  A    between atoms: N_1  and  C_2
REMARK    2  A    between atoms: C_2  and  C_3
REMARK    3  A    between atoms: C_3  and  C_4
REMARK    4  A    between atoms: C_7  and  C_8
REMARK    5  A    between atoms: C_8  and  C_9
REMARK                            x       y       z     vdW  Elec       q    Type
REMARK                         _______ _______ _______ _____ _____    ______ ____
ROOT
ATOM      1  C   UNL     1      44.968   3.365   9.862  0.00  0.00    +0.000 A 
ATOM      2  C   UNL     1      45.304   4.675   9.500  0.00  0.00    +0.000 A 
ATOM      3  C   UNL     1      45.404   5.680  10.468  0.00  0.00    +0.000 A 
ATOM      4  C   UNL     1      45.177   5.396  11.822  0.00  0.00    +0.000 A 
ATOM      5  C   UNL     1      44.868   4.077  12.185  0.00  0.00    +0.000 A 
ATOM      6  C   UNL     1      44.768   3.072  11.217  0.00  0.00    +0.000 A 
ENDROOT
BRANCH   1   7
ATOM      7  C   UNL     1      44.795   2.295   8.811  0.00  0.00    +0.000 C 
BRANCH   7   8
ATOM      8  C   UNL     1      46.078   2.008   8.025  0.00  0.00    +0.000 C 
BRANCH   8   9
ATOM      9  N   UNL     1      46.408   0.582   8.073  0.00  0.00    +0.000 NA
ATOM     10  H   UNL     1      45.569   0.034   7.884  0.00  0.00    +0.000 HD
ATOM     11  H   UNL     1      46.707   0.331   9.015  0.00  0.00    +0.000 HD
ENDBRANCH   8   9
ENDBRANCH   7   8
ENDBRANCH   1   7
BRANCH   4  12
ATOM     12  C   UNL     1      45.291   6.476  12.871  0.00  0.00    +0.000 C 
BRANCH  12  13
ATOM     13  C   UNL     1      46.708   6.959  12.874  0.00  0.00    +0.000 A 
ATOM     14  C   UNL     1      47.837   6.205  13.171  0.00  0.00    +0.000 A 
ATOM     15  N   UNL     1      48.945   6.993  12.999  0.00  0.00    +0.000 N 
ATOM     16  C   UNL     1      48.570   8.234  12.569  0.00  0.00    +0.000 A 
ATOM     17  N   UNL     1      49.431   9.227  12.276  0.00  0.00    +0.000 NA
ATOM     18  C   UNL     1      48.810  10.354  11.863  0.00  0.00    +0.000 A 
ATOM     19  C   UNL     1      47.437  10.524  11.743  0.00  0.00    +0.000 A 
ATOM     20  C   UNL     1      46.591   9.460  12.059  0.00  0.00    +0.000 A 
ATOM     21  C   UNL     1      47.181   8.258  12.490  0.00  0.00    +0.000 A 
ATOM     22  H   UNL     1      49.907   6.720  13.133  0.00  0.00    +0.000 HD
ENDBRANCH  12  13
ENDBRANCH   4  12
TORSDOF 5
ENDMDL
MODEL 7
REMARK VINA RESULT:    -5.336      2.478      6.330
REMARK INTER + INTRA:          -7.477
REMARK INTER:                  -6.841
REMARK INTRA:                  -0.636
REMARK UNBOUND:                -0.738
REMARK  Name = 
REMARK  5 active torsions:
REMARK  status: ('A' for Active; 'I' for Inactive)
REMARK    1  A    between atoms: N_1  and  C_2
REMARK    2  A    between atoms: C_2  and  C_3
REMARK    3  A    between atoms: C_3  and  C_4
REMARK    4  A    between atoms: C_7  and  C_8
REMARK    5  A    between atoms: C_8  and  C_9
REMARK                            x       y       z     vdW  Elec       q    Type
REMARK                         _______ _______ _______ _____ _____    ______ ____
ROOT
ATOM      1  C   UNL     1      48.959   7.929  13.454  0.00  0.00    +0.000 A 
ATOM      2  C   UNL     1      47.780   8.434  14.015  0.00  0.00    +0.000 A 
ATOM      3  C   UNL     1      46.554   8.280  13.358  0.00  0.00    +0.000 A 
ATOM      4  C   UNL     1      46.479   7.610  12.129  0.00  0.00    +0.000 A 
ATOM      5  C   UNL     1      47.658   7.081  11.583  0.00  0.00    +0.000 A 
ATOM      6  C   UNL     1      48.883   7.235  12.239  0.00  0.00    +0.000 A 
ENDROOT
BRANCH   1   7
ATOM      7  C   UNL     1      50.291   8.152  14.129  0.00  0.00    +0.000 C 
BRANCH   7   8
ATOM      8  C   UNL     1      51.403   8.552  13.154  0.00  0.00    +0.000 C 
BRANCH   8   9
ATOM      9  N   UNL     1      52.676   7.938  13.539  0.00  0.00    +0.000 NA
ATOM     10  H   UNL     1      52.494   7.077  14.056  0.00  0.00    +0.000 HD
ATOM     11  H   UNL     1      53.175   8.555  14.180  0.00  0.00    +0.000 HD
ENDBRANCH   8   9
ENDBRANCH   7   8
ENDBRANCH   1   7
BRANCH   4  12
ATOM     12  C   UNL     1      45.157   7.436  11.420  0.00  0.00    +0.000 C 
BRANCH  12  13
ATOM     13  C   UNL     1      44.768   5.995  11.533  0.00  0.00    +0.000 A 
ATOM     14  C   UNL     1      44.139   5.391  12.614  0.00  0.00    +0.000 A 
ATOM     15  N   UNL     1      43.898   4.079  12.301  0.00  0.00    +0.000 N 
ATOM     16  C   UNL     1      44.329   3.817  11.032  0.00  0.00    +0.000 A 
ATOM     17  N   UNL     1      44.201   2.625  10.419  0.00  0.00    +0.000 NA
ATOM     18  C   UNL     1      44.698   2.627   9.162  0.00  0.00    +0.000 A 
ATOM     19  C   UNL     1      45.290   3.711   8.527  0.00  0.00    +0.000 A 
ATOM     20  C   UNL     1      45.394   4.924   9.210  0.00  0.00    +0.000 A 
ATOM     21  C   UNL     1      44.888   4.984  10.522  0.00  0.00    +0.000 A 
ATOM     22  H   UNL     1      43.448   3.391  12.887  0.00  0.00    +0.000 HD
ENDBRANCH  12  13
ENDBRANCH   4  12
TORSDOF 5
ENDMDL
MODEL 8
REMARK VINA RESULT:    -5.212      4.018      6.210
REMARK INTER + INTRA:          -7.322
REMARK INTER:                  -6.651
REMARK INTRA:                  -0.671
REMARK UNBOUND:                -0.738
REMARK  Name = 
REMARK  5 active torsions:
REMARK  status: ('A' for Active; 'I' for Inactive)
REMARK    1  A    between atoms: N_1  and  C_2
REMARK    2  A    between atoms: C_2  and  C_3
REMARK    3  A    between atoms: C_3  and  C_4
REMARK    4  A    between atoms: C_7  and  C_8
REMARK    5  A    between atoms: C_8  and  C_9
REMARK                            x       y       z     vdW  Elec       q    Type
REMARK                         _______ _______ _______ _____ _____    ______ ____
ROOT
ATOM      1  C   UNL     1      45.396   5.082  11.971  0.00  0.00    +0.000 A 
ATOM      2  C   UNL     1      45.928   6.152  11.241  0.00  0.00    +0.000 A 
ATOM      3  C   UNL     1      47.094   6.797  11.668  0.00  0.00    +0.000 A 
ATOM      4  C   UNL     1      47.758   6.382  12.831  0.00  0.00    +0.000 A 
ATOM      5  C   UNL     1      47.238   5.293  13.545  0.00  0.00    +0.000 A 
ATOM      6  C   UNL     1      46.073   4.647  13.117  0.00  0.00    +0.000 A 
ENDROOT
BRANCH   1   7
ATOM      7  C   UNL     1      44.103   4.428  11.547  0.00  0.00    +0.000 C 
BRANCH   7   8
ATOM      8  C   UNL     1      42.868   5.284  11.843  0.00  0.00    +0.000 C 
BRANCH   8   9
ATOM      9  N   UNL     1      42.643   5.387  13.287  0.00  0.00    +0.000 NA
ATOM     10  H   UNL     1      42.043   6.190  13.479  0.00  0.00    +0.000 HD
ATOM     11  H   UNL     1      43.527   5.572  13.760  0.00  0.00    +0.000 HD
ENDBRANCH   8   9
ENDBRANCH   7   8
ENDBRANCH   1   7
BRANCH   4  12
ATOM     12  C   UNL     1      49.020   7.071  13.291  0.00  0.00    +0.000 C 
BRANCH  12  13
ATOM     13  C   UNL     1      48.698   7.814  14.551  0.00  0.00    +0.000 A 
ATOM     14  C   UNL     1      47.932   8.968  14.656  0.00  0.00    +0.000 A 
ATOM     15  N   UNL     1      47.820   9.297  15.982  0.00  0.00    +0.000 N 
ATOM     16  C   UNL     1      48.470   8.371  16.747  0.00  0.00    +0.000 A 
ATOM     17  N   UNL     1      48.513   8.395  18.092  0.00  0.00    +0.000 NA
ATOM     18  C   UNL     1      49.212   7.362  18.613  0.00  0.00    +0.000 A 
ATOM     19  C   UNL     1      49.840   6.361  17.883  0.00  0.00    +0.000 A 
ATOM     20  C   UNL     1      49.761   6.385  16.490  0.00  0.00    +0.000 A 
ATOM     21  C   UNL     1      49.042   7.435  15.891  0.00  0.00    +0.000 A 
ATOM     22  H   UNL     1      47.317  10.082  16.369  0.00  0.00    +0.000 HD
ENDBRANCH  12  13
ENDBRANCH   4  12
TORSDOF 5
ENDMDL
MODEL 9
REMARK VINA RESULT:    -4.859      2.678      4.800
REMARK INTER + INTRA:          -6.876
REMARK INTER:                  -6.316
REMARK INTRA:                  -0.559
REMARK UNBOUND:                -0.738
REMARK  Name = 
REMARK  5 active torsions:
REMARK  status: ('A' for Active; 'I' for Inactive)
REMARK    1  A    between atoms: N_1  and  C_2
REMARK    2  A    between atoms: C_2  and  C_3
REMARK    3  A    between atoms: C_3  and  C_4
REMARK    4  A    between atoms: C_7  and  C_8
REMARK    5  A    between atoms: C_8  and  C_9
REMARK                            x       y       z     vdW  Elec       q    Type
REMARK                         _______ _______ _______ _____ _____    ______ ____
ROOT
ATOM      1  C   UNL     1      44.852   4.197  11.458  0.00  0.00    +0.000 A 
ATOM      2  C   UNL     1      45.300   4.272  12.782  0.00  0.00    +0.000 A 
ATOM      3  C   UNL     1      45.845   5.460  13.283  0.00  0.00    +0.000 A 
ATOM      4  C   UNL     1      45.947   6.600  12.474  0.00  0.00    +0.000 A 
ATOM      5  C   UNL     1      45.472   6.528  11.156  0.00  0.00    +0.000 A 
ATOM      6  C   UNL     1      44.927   5.342  10.655  0.00  0.00    +0.000 A 
ENDROOT
BRANCH   1   7
ATOM      7  C   UNL     1      44.324   2.898  10.896  0.00  0.00    +0.000 C 
BRANCH   7   8
ATOM      8  C   UNL     1      44.535   2.764   9.385  0.00  0.00    +0.000 C 
BRANCH   8   9
ATOM      9  N   UNL     1      45.370   1.600   9.079  0.00  0.00    +0.000 NA
ATOM     10  H   UNL     1      45.694   1.177   9.949  0.00  0.00    +0.000 HD
ATOM     11  H   UNL     1      46.206   1.898   8.578  0.00  0.00    +0.000 HD
ENDBRANCH   8   9
ENDBRANCH   7   8
ENDBRANCH   1   7
BRANCH   4  12
ATOM     12  C   UNL     1      46.528   7.884  13.014  0.00  0.00    +0.000 C 
BRANCH  12  13
ATOM     13  C   UNL     1      48.001   7.679  13.187  0.00  0.00    +0.000 A 
ATOM     14  C   UNL     1      48.909   7.334  12.194  0.00  0.00    +0.000 A 
ATOM     15  N   UNL     1      50.165   7.307  12.742  0.00  0.00    +0.000 N 
ATOM     16  C   UNL     1      50.103   7.654  14.062  0.00  0.00    +0.000 A 
ATOM     17  N   UNL     1      51.176   7.755  14.869  0.00  0.00    +0.000 NA
ATOM     18  C   UNL     1      50.850   8.123  16.129  0.00  0.00    +0.000 A 
ATOM     19  C   UNL     1      49.565   8.376  16.591  0.00  0.00    +0.000 A 
ATOM     20  C   UNL     1      48.490   8.258  15.708  0.00  0.00    +0.000 A 
ATOM     21  C   UNL     1      48.769   7.883  14.382  0.00  0.00    +0.000 A 
ATOM     22  H   UNL     1      51.028   7.095  12.264  0.00  0.00    +0.000 HD
ENDBRANCH  12  13
ENDBRANCH   4  12
TORSDOF 5
ENDMDL
