MODEL 1
REMARK VINA RESULT:    -7.689      0.000      0.000
REMARK INTER + INTRA:          -9.825
REMARK INTER:                  -9.712
REMARK INTRA:                  -0.113
REMARK UNBOUND:                -0.113
REMARK  Name = 
REMARK  5 active torsions:
REMARK  status: ('A' for Active; 'I' for Inactive)
REMARK    1  A    between atoms: N_1  and  C_2
REMARK    2  A    between atoms: C_2  and  C_3
REMARK    3  A    between atoms: C_6  and  C_7
REMARK    4  A    between atoms: C_7  and  N_8
REMARK    5  A    between atoms: C_13  and  C_14
REMARK                            x       y       z     vdW  Elec       q    Type
REMARK                         _______ _______ _______ _____ _____    ______ ____
ROOT
ATOM      1  N   UNL     1      44.163   4.371  10.299  0.00  0.00    +0.000 N 
ATOM      2  C   UNL     1      43.637   3.265  10.921  0.00  0.00    +0.000 A 
ATOM      3  C   UNL     1      44.176   2.146  10.322  0.00  0.00    +0.000 A 
ATOM      4  C   UNL     1      45.065   2.585   9.305  0.00  0.00    +0.000 A 
ATOM      5  C   UNL     1      45.873   1.952   8.343  0.00  0.00    +0.000 A 
ATOM      6  C   UNL     1      46.614   2.764   7.476  0.00  0.00    +0.000 A 
ATOM      7  C   UNL     1      46.545   4.146   7.643  0.00  0.00    +0.000 A 
ATOM      8  N   UNL     1      45.795   4.804   8.564  0.00  0.00    +0.000 NA
ATOM      9  C   UNL     1      45.069   3.978   9.343  0.00  0.00    +0.000 A 
ENDROOT
BRANCH   6  10
ATOM     10  C   UNL     1      47.459   2.240   6.374  0.00  0.00    +0.000 C 
ATOM     11  N   UNL     1      47.696   3.039   5.289  0.00  0.00    +0.000 N 
ATOM     12  O   UNL     1      47.953   1.120   6.427  0.00  0.00    +0.000 OA
ATOM     13  H   UNL     1      47.359   3.980   5.171  0.00  0.00    +0.000 HD
ATOM     14  H   UNL     1      48.305   2.663   4.574  0.00  0.00    +0.000 HD
ENDBRANCH   6  10
BRANCH   1  15
ATOM     15  C   UNL     1      43.838   5.746  10.633  0.00  0.00    +0.000 C 
BRANCH  15  19
ATOM     16  C   UNL     1      47.030   7.120  13.270  0.00  0.00    +0.000 C 
ATOM     17  C   UNL     1      45.908   8.122  12.970  0.00  0.00    +0.000 C 
ATOM     18  C   UNL     1      45.020   7.681  11.808  0.00  0.00    +0.000 C 
ATOM     19  C   UNL     1      44.456   6.256  11.957  0.00  0.00    +0.000 C 
ATOM     20  C   UNL     1      45.521   5.246  12.424  0.00  0.00    +0.000 C 
ATOM     21  C   UNL     1      46.392   5.756  13.569  0.00  0.00    +0.000 C 
BRANCH  16  22
ATOM     22  C   UNL     1      48.072   7.103  12.129  0.00  0.00    +0.000 C 
BRANCH  22  23
ATOM     23  N   UNL     1      49.384   6.641  12.573  0.00  0.00    +0.000 NA
ATOM     24  H   UNL     1      49.309   6.304  13.533  0.00  0.00    +0.000 HD
ATOM     25  H   UNL     1      50.030   7.428  12.609  0.00  0.00    +0.000 HD
ENDBRANCH  22  23
ENDBRANCH  16  22
ENDBRANCH  15  19
ENDBRANCH   1  15
TORSDOF 5
ENDMDL
MODEL 2
REMARK VINA RESULT:    -6.440      4.455      8.075
REMARK INTER + INTRA:          -8.247
REMARK INTER:                  -7.735
REMARK INTRA:                  -0.512
REMARK UNBOUND:                -0.113
REMARK  Name = 
REMARK  5 active torsions:
REMARK  status: ('A' for Active; 'I' for Inactive)
REMARK    1  A    between atoms: N_1  and  C_2
REMARK    2  A    between atoms: C_2  and  C_3
REMARK    3  A    between atoms: C_6  and  C_7
REMARK    4  A    between atoms: C_7  and  N_8
REMARK    5  A    between atoms: C_13  and  C_14
REMARK                            x       y       z     vdW  Elec       q    Type
REMARK                         _______ _______ _______ _____ _____    ______ ____
ROOT
ATOM      1  N   UNL     1      47.750   6.391  13.951  0.00  0.00    +0.000 N 
ATOM      2  C   UNL     1      48.171   7.695  14.034  0.00  0.00    +0.000 A 
ATOM      3  C   UNL     1      48.722   7.883  15.284  0.00  0.00    +0.000 A 
ATOM      4  C   UNL     1      48.638   6.650  15.985  0.00  0.00    +0.000 A 
ATOM      5  C   UNL     1      48.982   6.210  17.275  0.00  0.00    +0.000 A 
ATOM      6  C   UNL     1      48.712   4.875  17.604  0.00  0.00    +0.000 A 
ATOM      7  C   UNL     1      48.161   4.051  16.623  0.00  0.00    +0.000 A 
ATOM      8  N   UNL     1      47.826   4.424  15.361  0.00  0.00    +0.000 NA
ATOM      9  C   UNL     1      48.067   5.726  15.112  0.00  0.00    +0.000 A 
ENDROOT
BRANCH   6  10
ATOM     10  C   UNL     1      48.961   4.287  18.943  0.00  0.00    +0.000 C 
ATOM     11  N   UNL     1      48.277   3.160  19.305  0.00  0.00    +0.000 N 
ATOM     12  O   UNL     1      49.773   4.785  19.716  0.00  0.00    +0.000 OA
ATOM     13  H   UNL     1      47.617   2.666  18.728  0.00  0.00    +0.000 HD
ATOM     14  H   UNL     1      48.499   2.766  20.211  0.00  0.00    +0.000 HD
ENDBRANCH   6  10
BRANCH   1  15
ATOM     15  C   UNL     1      47.105   5.797  12.793  0.00  0.00    +0.000 C 
BRANCH  15  19
ATOM     16  C   UNL     1      43.028   4.703  11.694  0.00  0.00    +0.000 C 
ATOM     17  C   UNL     1      43.375   4.650  13.187  0.00  0.00    +0.000 C 
ATOM     18  C   UNL     1      44.877   4.733  13.446  0.00  0.00    +0.000 C 
ATOM     19  C   UNL     1      45.563   5.933  12.768  0.00  0.00    +0.000 C 
ATOM     20  C   UNL     1      45.111   6.123  11.308  0.00  0.00    +0.000 C 
ATOM     21  C   UNL     1      43.602   6.002  11.111  0.00  0.00    +0.000 C 
BRANCH  16  22
ATOM     22  C   UNL     1      43.495   3.417  10.975  0.00  0.00    +0.000 C 
BRANCH  22  23
ATOM     23  N   UNL     1      43.030   2.202  11.637  0.00  0.00    +0.000 NA
ATOM     24  H   UNL     1      43.513   2.107  12.530  0.00  0.00    +0.000 HD
ATOM     25  H   UNL     1      43.302   1.388  11.089  0.00  0.00    +0.000 HD
ENDBRANCH  22  23
ENDBRANCH  16  22
ENDBRANCH  15  19
ENDBRANCH   1  15
TORSDOF 5
ENDMDL
MODEL 3
REMARK VINA RESULT:    -6.265      3.928      6.047
REMARK INTER + INTRA:          -8.026
REMARK INTER:                  -7.578
REMARK INTRA:                  -0.448
REMARK UNBOUND:                -0.113
REMARK  Name = 
REMARK  5 active torsions:
REMARK  status: ('A' for Active; 'I' for Inactive)
REMARK    1  A    between atoms: N_1  and  C_2
REMARK    2  A    between atoms: C_2  and  C_3
REMARK    3  A    between atoms: C_6  and  C_7
REMARK    4  A    between atoms: C_7  and  N_8
REMARK    5  A    between atoms: C_13  and  C_14
REMARK                            x       y       z     vdW  Elec       q    Type
REMARK                         _______ _______ _______ _____ _____    ______ ____
ROOT
ATOM      1  N   UNL     1      47.672   6.798  13.754  0.00  0.00    +0.000 N 
ATOM      2  C   UNL     1      48.458   7.515  12.886  0.00  0.00    +0.000 A 
ATOM      3  C   UNL     1      47.955   7.338  11.615  0.00  0.00    +0.000 A 
ATOM      4  C   UNL     1      46.821   6.487  11.712  0.00  0.00    +0.000 A 
ATOM      5  C   UNL     1      45.918   5.919  10.797  0.00  0.00    +0.000 A 
ATOM      6  C   UNL     1      44.910   5.089  11.303  0.00  0.00    +0.000 A 
ATOM      7  C   UNL     1      44.832   4.910  12.683  0.00  0.00    +0.000 A 
ATOM      8  N   UNL     1      45.668   5.449  13.608  0.00  0.00    +0.000 NA
ATOM      9  C   UNL     1      46.643   6.202  13.065  0.00  0.00    +0.000 A 
ENDROOT
BRANCH   6  10
ATOM     10  C   UNL     1      43.927   4.371  10.454  0.00  0.00    +0.000 C 
ATOM     11  N   UNL     1      44.026   4.481   9.095  0.00  0.00    +0.000 N 
ATOM     12  O   UNL     1      43.045   3.678  10.948  0.00  0.00    +0.000 OA
ATOM     13  H   UNL     1      44.732   5.000   8.600  0.00  0.00    +0.000 HD
ATOM     14  H   UNL     1      43.361   3.949   8.547  0.00  0.00    +0.000 HD
ENDBRANCH   6  10
BRANCH   1  15
ATOM     15  C   UNL     1      47.878   6.718  15.189  0.00  0.00    +0.000 C 
BRANCH  15  19
ATOM     16  C   UNL     1      49.314   3.802  18.099  0.00  0.00    +0.000 C 
ATOM     17  C   UNL     1      48.345   3.284  17.028  0.00  0.00    +0.000 C 
ATOM     18  C   UNL     1      47.655   4.412  16.264  0.00  0.00    +0.000 C 
ATOM     19  C   UNL     1      48.624   5.449  15.668  0.00  0.00    +0.000 C 
ATOM     20  C   UNL     1      49.721   5.871  16.665  0.00  0.00    +0.000 C 
ATOM     21  C   UNL     1      50.353   4.701  17.415  0.00  0.00    +0.000 C 
BRANCH  16  22
ATOM     22  C   UNL     1      48.545   4.477  19.257  0.00  0.00    +0.000 C 
BRANCH  22  23
ATOM     23  N   UNL     1      48.398   3.605  20.418  0.00  0.00    +0.000 NA
ATOM     24  H   UNL     1      48.922   2.745  20.254  0.00  0.00    +0.000 HD
ATOM     25  H   UNL     1      47.424   3.319  20.510  0.00  0.00    +0.000 HD
ENDBRANCH  22  23
ENDBRANCH  16  22
ENDBRANCH  15  19
ENDBRANCH   1  15
TORSDOF 5
ENDMDL
MODEL 4
REMARK VINA RESULT:    -6.007      3.113      5.082
REMARK INTER + INTRA:          -7.700
REMARK INTER:                  -7.401
REMARK INTRA:                  -0.299
REMARK UNBOUND:                -0.113
REMARK  Name = 
REMARK  5 active torsions:
REMARK  status: ('A' for Active; 'I' for Inactive)
REMARK    1  A    between atoms: N_1  and  C_2
REMARK    2  A    between atoms: C_2  and  C_3
REMARK    3  A    between atoms: C_6  and  C_7
REMARK    4  A    between atoms: C_7  and  N_8
REMARK    5  A    between atoms: C_13  and  C_14
REMARK                            x       y       z     vdW  Elec       q    Type
REMARK                         _______ _______ _______ _____ _____    ______ ____
ROOT
ATOM      1  N   UNL     1      47.172   6.843  13.222  0.00  0.00    +0.000 N 
ATOM      2  C   UNL     1      47.680   6.241  14.347  0.00  0.00    +0.000 A 
ATOM      3  C   UNL     1      47.226   4.939  14.373  0.00  0.00    +0.000 A 
ATOM      4  C   UNL     1      46.418   4.740  13.222  0.00  0.00    +0.000 A 
ATOM      5  C   UNL     1      45.661   3.673  12.706  0.00  0.00    +0.000 A 
ATOM      6  C   UNL     1      44.963   3.884  11.510  0.00  0.00    +0.000 A 
ATOM      7  C   UNL     1      45.094   5.120  10.878  0.00  0.00    +0.000 A 
ATOM      8  N   UNL     1      45.824   6.174  11.326  0.00  0.00    +0.000 NA
ATOM      9  C   UNL     1      46.439   5.932  12.500  0.00  0.00    +0.000 A 
ENDROOT
BRANCH   6  10
ATOM     10  C   UNL     1      44.076   2.875  10.882  0.00  0.00    +0.000 C 
ATOM     11  N   UNL     1      44.513   2.216   9.766  0.00  0.00    +0.000 N 
ATOM     12  O   UNL     1      42.973   2.616  11.351  0.00  0.00    +0.000 OA
ATOM     13  H   UNL     1      45.411   2.339   9.329  0.00  0.00    +0.000 HD
ATOM     14  H   UNL     1      43.897   1.509   9.386  0.00  0.00    +0.000 HD
ENDBRANCH   6  10
BRANCH   1  15
ATOM     15  C   UNL     1      47.411   8.222  12.837  0.00  0.00    +0.000 C 
BRANCH  15  19
ATOM     16  C   UNL     1      51.451   9.061  11.420  0.00  0.00    +0.000 C 
ATOM     17  C   UNL     1      50.894   7.663  11.122  0.00  0.00    +0.000 C 
ATOM     18  C   UNL     1      49.629   7.351  11.916  0.00  0.00    +0.000 C 
ATOM     19  C   UNL     1      48.527   8.418  11.782  0.00  0.00    +0.000 C 
ATOM     20  C   UNL     1      49.076   9.852  11.908  0.00  0.00    +0.000 C 
ATOM     21  C   UNL     1      50.356  10.092  11.112  0.00  0.00    +0.000 C 
BRANCH  16  22
ATOM     22  C   UNL     1      52.013   9.135  12.858  0.00  0.00    +0.000 C 
BRANCH  22  23
ATOM     23  N   UNL     1      52.890   8.012  13.176  0.00  0.00    +0.000 NA
ATOM     24  H   UNL     1      53.810   8.373  13.432  0.00  0.00    +0.000 HD
ATOM     25  H   UNL     1      53.041   7.447  12.342  0.00  0.00    +0.000 HD
ENDBRANCH  22  23
ENDBRANCH  16  22
ENDBRANCH  15  19
ENDBRANCH   1  15
TORSDOF 5
ENDMDL
MODEL 5
REMARK VINA RESULT:    -5.919      4.424      7.977
REMARK INTER + INTRA:          -7.589
REMARK INTER:                  -7.045
REMARK INTRA:                  -0.544
REMARK UNBOUND:                -0.113
REMARK  Name = 
REMARK  5 active torsions:
REMARK  status: ('A' for Active; 'I' for Inactive)
REMARK    1  A    between atoms: N_1  and  C_2
REMARK    2  A    between atoms: C_2  and  C_3
REMARK    3  A    between atoms: C_6  and  C_7
REMARK    4  A    between atoms: C_7  and  N_8
REMARK    5  A    between atoms: C_13  and  C_14
REMARK                            x       y       z     vdW  Elec       q    Type
REMARK                         _______ _______ _______ _____ _____    ______ ____
ROOT
ATOM      1  N   UNL     1      47.391   7.368  12.761  0.00  0.00    +0.000 N 
ATOM      2  C   UNL     1      47.280   8.696  12.429  0.00  0.00    +0.000 A 
ATOM      3  C   UNL     1      47.756   9.438  13.489  0.00  0.00    +0.000 A 
ATOM      4  C   UNL     1      48.176   8.531  14.499  0.00  0.00    +0.000 A 
ATOM      5  C   UNL     1      48.706   8.656  15.796  0.00  0.00    +0.000 A 
ATOM      6  C   UNL     1      48.981   7.480  16.505  0.00  0.00    +0.000 A 
ATOM      7  C   UNL     1      48.757   6.258  15.872  0.00  0.00    +0.000 A 
ATOM      8  N   UNL     1      48.264   6.085  14.619  0.00  0.00    +0.000 NA
ATOM      9  C   UNL     1      47.976   7.246  13.998  0.00  0.00    +0.000 A 
ENDROOT
BRANCH   6  10
ATOM     10  C   UNL     1      49.481   7.456  17.902  0.00  0.00    +0.000 C 
ATOM     11  N   UNL     1      49.457   6.274  18.589  0.00  0.00    +0.000 N 
ATOM     12  O   UNL     1      49.922   8.466  18.438  0.00  0.00    +0.000 OA
ATOM     13  H   UNL     1      49.143   5.391  18.224  0.00  0.00    +0.000 HD
ATOM     14  H   UNL     1      49.840   6.287  19.527  0.00  0.00    +0.000 HD
ENDBRANCH   6  10
BRANCH   1  15
ATOM     15  C   UNL     1      46.986   6.262  11.911  0.00  0.00    +0.000 C 
BRANCH  15  19
ATOM     16  C   UNL     1      43.075   4.348  11.642  0.00  0.00    +0.000 C 
ATOM     17  C   UNL     1      43.209   5.501  12.646  0.00  0.00    +0.000 C 
ATOM     18  C   UNL     1      44.662   5.892  12.903  0.00  0.00    +0.000 C 
ATOM     19  C   UNL     1      45.467   6.186  11.624  0.00  0.00    +0.000 C 
ATOM     20  C   UNL     1      45.227   5.135  10.523  0.00  0.00    +0.000 C 
ATOM     21  C   UNL     1      43.757   4.768  10.333  0.00  0.00    +0.000 C 
BRANCH  16  22
ATOM     22  C   UNL     1      43.604   3.028  12.246  0.00  0.00    +0.000 C 
BRANCH  22  23
ATOM     23  N   UNL     1      43.016   1.848  11.619  0.00  0.00    +0.000 NA
ATOM     24  H   UNL     1      42.111   2.101  11.222  0.00  0.00    +0.000 HD
ATOM     25  H   UNL     1      42.818   1.145  12.329  0.00  0.00    +0.000 HD
ENDBRANCH  22  23
ENDBRANCH  16  22
ENDBRANCH  15  19
ENDBRANCH   1  15
TORSDOF 5
ENDMDL
MODEL 6
REMARK VINA RESULT:    -5.741      1.557      2.161
REMARK INTER + INTRA:          -7.364
REMARK INTER:                  -7.612
REMARK INTRA:                   0.248
REMARK UNBOUND:                -0.113
REMARK  Name = 
REMARK  5 active torsions:
REMARK  status: ('A' for Active; 'I' for Inactive)
REMARK    1  A    between atoms: N_1  and  C_2
REMARK    2  A    between atoms: C_2  and  C_3
REMARK    3  A    between atoms: C_6  and  C_7
REMARK    4  A    between atoms: C_7  and  N_8
REMARK    5  A    between atoms: C_13  and  C_14
REMARK                            x       y       z     vdW  Elec       q    Type
REMARK                         _______ _______ _______ _____ _____    ______ ____
ROOT
ATOM      1  N   UNL     1      44.477   5.114  11.560  0.00  0.00    +0.000 N 
ATOM      2  C   UNL     1      43.942   4.055  12.253  0.00  0.00    +0.000 A 
ATOM      3  C   UNL     1      44.152   2.913  11.508  0.00  0.00    +0.000 A 
ATOM      4  C   UNL     1      44.842   3.288  10.325  0.00  0.00    +0.000 A 
ATOM      5  C   UNL     1      45.302   2.612   9.181  0.00  0.00    +0.000 A 
ATOM      6  C   UNL     1      45.943   3.365   8.190  0.00  0.00    +0.000 A 
ATOM      7  C   UNL     1      46.128   4.729   8.412  0.00  0.00    +0.000 A 
ATOM      8  N   UNL     1      45.718   5.424   9.504  0.00  0.00    +0.000 NA
ATOM      9  C   UNL     1      45.070   4.660  10.405  0.00  0.00    +0.000 A 
ENDROOT
BRANCH   6  10
ATOM     10  C   UNL     1      46.423   2.801   6.904  0.00  0.00    +0.000 C 
ATOM     11  N   UNL     1      46.711   3.657   5.876  0.00  0.00    +0.000 N 
ATOM     12  O   UNL     1      46.576   1.594   6.755  0.00  0.00    +0.000 OA
ATOM     13  H   UNL     1      46.645   4.660   5.915  0.00  0.00    +0.000 HD
ATOM     14  H   UNL     1      47.070   3.240   5.026  0.00  0.00    +0.000 HD
ENDBRANCH   6  10
BRANCH   1  15
ATOM     15  C   UNL     1      44.453   6.496  12.005  0.00  0.00    +0.000 C 
BRANCH  15  19
ATOM     16  C   UNL     1      47.972   8.878  12.992  0.00  0.00    +0.000 C 
ATOM     17  C   UNL     1      48.227   7.506  12.354  0.00  0.00    +0.000 C 
ATOM     18  C   UNL     1      46.982   6.623  12.338  0.00  0.00    +0.000 C 
ATOM     19  C   UNL     1      45.746   7.295  11.712  0.00  0.00    +0.000 C 
ATOM     20  C   UNL     1      45.550   8.742  12.203  0.00  0.00    +0.000 C 
ATOM     21  C   UNL     1      46.836   9.565  12.219  0.00  0.00    +0.000 C 
BRANCH  16  22
ATOM     22  C   UNL     1      47.722   8.741  14.510  0.00  0.00    +0.000 C 
BRANCH  22  23
ATOM     23  N   UNL     1      48.233   9.879  15.268  0.00  0.00    +0.000 NA
ATOM     24  H   UNL     1      48.299   9.618  16.252  0.00  0.00    +0.000 HD
ATOM     25  H   UNL     1      47.563  10.645  15.232  0.00  0.00    +0.000 HD
ENDBRANCH  22  23
ENDBRANCH  16  22
ENDBRANCH  15  19
ENDBRANCH   1  15
TORSDOF 5
ENDMDL
MODEL 7
REMARK VINA RESULT:    -5.664      4.033      6.383
REMARK INTER + INTRA:          -7.266
REMARK INTER:                  -6.832
REMARK INTRA:                  -0.434
REMARK UNBOUND:                -0.113
REMARK  Name = 
REMARK  5 active torsions:
REMARK  status: ('A' for Active; 'I' for Inactive)
REMARK    1  A    between atoms: N_1  and  C_2
REMARK    2  A    between atoms: C_2  and  C_3
REMARK    3  A    between atoms: C_6  and  C_7
REMARK    4  A    between atoms: C_7  and  N_8
REMARK    5  A    between atoms: C_13  and  C_14
REMARK                            x       y       z     vdW  Elec       q    Type
REMARK                         _______ _______ _______ _____ _____    ______ ____
ROOT
ATOM      1  N   UNL     1      47.845   7.271  13.586  0.00  0.00    +0.000 N 
ATOM      2  C   UNL     1      47.313   8.520  13.381  0.00  0.00    +0.000 A 
ATOM      3  C   UNL     1      45.998   8.362  13.000  0.00  0.00    +0.000 A 
ATOM      4  C   UNL     1      45.717   6.970  12.977  0.00  0.00    +0.000 A 
ATOM      5  C   UNL     1      44.600   6.182  12.646  0.00  0.00    +0.000 A 
ATOM      6  C   UNL     1      44.732   4.791  12.737  0.00  0.00    +0.000 A 
ATOM      7  C   UNL     1      45.943   4.270  13.190  0.00  0.00    +0.000 A 
ATOM      8  N   UNL     1      47.043   4.987  13.536  0.00  0.00    +0.000 NA
ATOM      9  C   UNL     1      46.876   6.316  13.389  0.00  0.00    +0.000 A 
ENDROOT
BRANCH   6  10
ATOM     10  C   UNL     1      43.662   3.833  12.361  0.00  0.00    +0.000 C 
ATOM     11  N   UNL     1      42.650   4.263  11.549  0.00  0.00    +0.000 N 
ATOM     12  O   UNL     1      43.681   2.672  12.752  0.00  0.00    +0.000 OA
ATOM     13  H   UNL     1      42.567   5.185  11.155  0.00  0.00    +0.000 HD
ATOM     14  H   UNL     1      41.958   3.573  11.283  0.00  0.00    +0.000 HD
ENDBRANCH   6  10
BRANCH   1  15
ATOM     15  C   UNL     1      49.215   7.006  13.990  0.00  0.00    +0.000 C 
BRANCH  15  19
ATOM     16  C   UNL     1      50.617   5.959  17.985  0.00  0.00    +0.000 C 
ATOM     17  C   UNL     1      51.351   7.106  17.278  0.00  0.00    +0.000 C 
ATOM     18  C   UNL     1      51.016   7.190  15.791  0.00  0.00    +0.000 C 
ATOM     19  C   UNL     1      49.506   7.241  15.492  0.00  0.00    +0.000 C 
ATOM     20  C   UNL     1      48.708   6.211  16.314  0.00  0.00    +0.000 C 
ATOM     21  C   UNL     1      49.108   6.157  17.786  0.00  0.00    +0.000 C 
BRANCH  16  22
ATOM     22  C   UNL     1      51.152   4.589  17.513  0.00  0.00    +0.000 C 
BRANCH  22  23
ATOM     23  N   UNL     1      50.525   3.470  18.211  0.00  0.00    +0.000 NA
ATOM     24  H   UNL     1      50.704   2.612  17.688  0.00  0.00    +0.000 HD
ATOM     25  H   UNL     1      49.513   3.587  18.207  0.00  0.00    +0.000 HD
ENDBRANCH  22  23
ENDBRANCH  16  22
ENDBRANCH  15  19
ENDBRANCH   1  15
TORSDOF 5
ENDMDL
MODEL 8
REMARK VINA RESULT:    -5.663      4.319      7.622
REMARK INTER + INTRA:          -7.265
REMARK INTER:                  -7.268
REMARK INTRA:                   0.003
REMARK UNBOUND:                -0.113
REMARK  Name = 
REMARK  5 active torsions:
REMARK  status: ('A' for Active; 'I' for Inactive)
REMARK    1  A    between atoms: N_1  and  C_2
REMARK    2  A    between atoms: C_2  and  C_3
REMARK    3  A    between atoms: C_6  and  C_7
REMARK    4  A    between atoms: C_7  and  N_8
REMARK    5  A    between atoms: C_13  and  C_14
REMARK                            x       y       z     vdW  Elec       q    Type
REMARK                         _______ _______ _______ _____ _____    ______ ____
ROOT
ATOM      1  N   UNL     1      47.122   5.565  13.381  0.00  0.00    +0.000 N 
ATOM      2  C   UNL     1      46.727   4.286  13.691  0.00  0.00    +0.000 A 
ATOM      3  C   UNL     1      47.181   4.000  14.962  0.00  0.00    +0.000 A 
ATOM      4  C   UNL     1      47.870   5.145  15.444  0.00  0.00    +0.000 A 
ATOM      5  C   UNL     1      48.571   5.467  16.619  0.00  0.00    +0.000 A 
ATOM      6  C   UNL     1      49.147   6.740  16.710  0.00  0.00    +0.000 A 
ATOM      7  C   UNL     1      48.955   7.628  15.652  0.00  0.00    +0.000 A 
ATOM      8  N   UNL     1      48.274   7.372  14.506  0.00  0.00    +0.000 NA
ATOM      9  C   UNL     1      47.779   6.120  14.452  0.00  0.00    +0.000 A 
ENDROOT
BRANCH   6  10
ATOM     10  C   UNL     1      49.967   7.197  17.859  0.00  0.00    +0.000 C 
ATOM     11  N   UNL     1      49.929   8.517  18.211  0.00  0.00    +0.000 N 
ATOM     12  O   UNL     1      50.660   6.414  18.498  0.00  0.00    +0.000 OA
ATOM     13  H   UNL     1      49.369   9.226  17.766  0.00  0.00    +0.000 HD
ATOM     14  H   UNL     1      50.473   8.787  19.022  0.00  0.00    +0.000 HD
ENDBRANCH   6  10
BRANCH   1  15
ATOM     15  C   UNL     1      46.847   6.237  12.124  0.00  0.00    +0.000 C 
BRANCH  15  19
ATOM     16  C   UNL     1      43.000   4.291  11.461  0.00  0.00    +0.000 C 
ATOM     17  C   UNL     1      43.001   5.513  12.388  0.00  0.00    +0.000 C 
ATOM     18  C   UNL     1      44.407   5.929  12.813  0.00  0.00    +0.000 C 
ATOM     19  C   UNL     1      45.381   6.133  11.638  0.00  0.00    +0.000 C 
ATOM     20  C   UNL     1      45.289   5.005  10.593  0.00  0.00    +0.000 C 
ATOM     21  C   UNL     1      43.857   4.619  10.230  0.00  0.00    +0.000 C 
BRANCH  16  22
ATOM     22  C   UNL     1      43.434   3.020  12.224  0.00  0.00    +0.000 C 
BRANCH  22  23
ATOM     23  N   UNL     1      42.964   1.794  11.588  0.00  0.00    +0.000 NA
ATOM     24  H   UNL     1      42.348   2.039  10.812  0.00  0.00    +0.000 HD
ATOM     25  H   UNL     1      42.387   1.267  12.241  0.00  0.00    +0.000 HD
ENDBRANCH  22  23
ENDBRANCH  16  22
ENDBRANCH  15  19
ENDBRANCH   1  15
TORSDOF 5
ENDMDL
MODEL 9
REMARK VINA RESULT:    -5.389      4.668      8.317
REMARK INTER + INTRA:          -6.919
REMARK INTER:                  -6.492
REMARK INTRA:                  -0.427
REMARK UNBOUND:                -0.113
REMARK  Name = 
REMARK  5 active torsions:
REMARK  status: ('A' for Active; 'I' for Inactive)
REMARK    1  A    between atoms: N_1  and  C_2
REMARK    2  A    between atoms: C_2  and  C_3
REMARK    3  A    between atoms: C_6  and  C_7
REMARK    4  A    between atoms: C_7  and  N_8
REMARK    5  A    between atoms: C_13  and  C_14
REMARK                            x       y       z     vdW  Elec       q    Type
REMARK                         _______ _______ _______ _____ _____    ______ ____
ROOT
ATOM      1  N   UNL     1      48.581   7.381  14.194  0.00  0.00    +0.000 N 
ATOM      2  C   UNL     1      49.624   8.101  13.664  0.00  0.00    +0.000 A 
ATOM      3  C   UNL     1      50.730   7.891  14.460  0.00  0.00    +0.000 A 
ATOM      4  C   UNL     1      50.351   7.010  15.507  0.00  0.00    +0.000 A 
ATOM      5  C   UNL     1      50.993   6.455  16.628  0.00  0.00    +0.000 A 
ATOM      6  C   UNL     1      50.245   5.615  17.462  0.00  0.00    +0.000 A 
ATOM      7  C   UNL     1      48.924   5.342  17.111  0.00  0.00    +0.000 A 
ATOM      8  N   UNL     1      48.263   5.839  16.033  0.00  0.00    +0.000 NA
ATOM      9  C   UNL     1      49.016   6.674  15.290  0.00  0.00    +0.000 A 
ENDROOT
BRANCH   6  10
ATOM     10  C   UNL     1      50.769   5.010  18.711  0.00  0.00    +0.000 C 
ATOM     11  N   UNL     1      50.885   3.650  18.786  0.00  0.00    +0.000 N 
ATOM     12  O   UNL     1      51.109   5.706  19.662  0.00  0.00    +0.000 OA
ATOM     13  H   UNL     1      50.661   3.003  18.049  0.00  0.00    +0.000 HD
ATOM     14  H   UNL     1      51.280   3.275  19.639  0.00  0.00    +0.000 HD
ENDBRANCH   6  10
BRANCH   1  15
ATOM     15  C   UNL     1      47.236   7.344  13.650  0.00  0.00    +0.000 C 
BRANCH  15  19
ATOM     16  C   UNL     1      44.761   4.562  11.377  0.00  0.00    +0.000 C 
ATOM     17  C   UNL     1      45.674   5.490  10.566  0.00  0.00    +0.000 C 
ATOM     18  C   UNL     1      46.253   6.627  11.404  0.00  0.00    +0.000 C 
ATOM     19  C   UNL     1      46.954   6.160  12.693  0.00  0.00    +0.000 C 
ATOM     20  C   UNL     1      46.140   5.096  13.455  0.00  0.00    +0.000 C 
ATOM     21  C   UNL     1      45.567   4.002  12.557  0.00  0.00    +0.000 C 
BRANCH  16  22
ATOM     22  C   UNL     1      43.457   5.287  11.779  0.00  0.00    +0.000 C 
BRANCH  22  23
ATOM     23  N   UNL     1      42.810   5.947  10.649  0.00  0.00    +0.000 NA
ATOM     24  H   UNL     1      42.237   5.265  10.151  0.00  0.00    +0.000 HD
ATOM     25  H   UNL     1      43.515   6.254   9.981  0.00  0.00    +0.000 HD
ENDBRANCH  22  23
ENDBRANCH  16  22
ENDBRANCH  15  19
ENDBRANCH   1  15
TORSDOF 5
ENDMDL
