MODEL 1
REMARK VINA RESULT:    -8.748      0.000      0.000
REMARK INTER + INTRA:         -11.491
REMARK INTER:                 -11.305
REMARK INTRA:                  -0.186
REMARK UNBOUND:                -0.186
REMARK  Name = 
REMARK  5 active torsions:
REMARK  status: ('A' for Active; 'I' for Inactive)
REMARK    1  A    between atoms: C_2  and  C_3
REMARK    2  A    between atoms: C_5  and  C_6
REMARK    3  A    between atoms: C_12  and  C_13
REMARK    4  A    between atoms: C_13  and  N_14
REMARK    5  A    between atoms: C_18  and  C_19
REMARK                            x       y       z     vdW  Elec       q    Type
REMARK                         _______ _______ _______ _____ _____    ______ ____
ROOT
ATOM      1  C   UNL     1      43.954   5.314  11.180  0.00  0.00    +0.000 C 
ATOM      2  C   UNL     1      42.607   5.643  11.796  0.00  0.00    +0.000 C 
ATOM      3  C   UNL     1      42.994   4.217  11.642  0.00  0.00    +0.000 C 
ENDROOT
BRANCH   1   4
ATOM      4  N   UNL     1      44.370   5.173   9.797  0.00  0.00    +0.000 N 
ATOM      5  C   UNL     1      45.009   4.151   9.127  0.00  0.00    +0.000 A 
ATOM      6  C   UNL     1      45.049   2.827   9.526  0.00  0.00    +0.000 A 
ATOM      7  C   UNL     1      45.766   1.906   8.754  0.00  0.00    +0.000 A 
ATOM      8  C   UNL     1      46.405   2.336   7.592  0.00  0.00    +0.000 A 
ATOM      9  C   UNL     1      46.279   3.670   7.245  0.00  0.00    +0.000 A 
ATOM     10  N   UNL     1      45.594   4.571   7.982  0.00  0.00    +0.000 NA
ATOM     11  H   UNL     1      44.562   6.024   9.273  0.00  0.00    +0.000 HD
BRANCH   8  12
ATOM     12  C   UNL     1      47.247   1.474   6.743  0.00  0.00    +0.000 C 
ATOM     13  N   UNL     1      48.255   2.068   6.038  0.00  0.00    +0.000 N 
ATOM     14  O   UNL     1      47.062   0.265   6.682  0.00  0.00    +0.000 OA
ATOM     15  H   UNL     1      48.589   2.999   6.237  0.00  0.00    +0.000 HD
ATOM     16  H   UNL     1      48.868   1.446   5.525  0.00  0.00    +0.000 HD
ENDBRANCH   8  12
ENDBRANCH   1   4
BRANCH   1  22
ATOM     17  C   UNL     1      45.531   7.053  12.224  0.00  0.00    +0.000 A 
ATOM     18  C   UNL     1      46.592   7.381  13.081  0.00  0.00    +0.000 A 
ATOM     19  C   UNL     1      47.302   6.372  13.751  0.00  0.00    +0.000 A 
ATOM     20  C   UNL     1      46.996   5.033  13.483  0.00  0.00    +0.000 A 
ATOM     21  C   UNL     1      45.941   4.711  12.634  0.00  0.00    +0.000 A 
ATOM     22  C   UNL     1      45.153   5.706  12.036  0.00  0.00    +0.000 A 
BRANCH  19  23
ATOM     23  C   UNL     1      48.354   6.694  14.782  0.00  0.00    +0.000 C 
ATOM     24  F   UNL     1      48.422   5.785  15.792  0.00  0.00    +0.000 F 
ATOM     25  F   UNL     1      49.600   6.736  14.231  0.00  0.00    +0.000 F 
ATOM     26  F   UNL     1      48.162   7.904  15.369  0.00  0.00    +0.000 F 
ENDBRANCH  19  23
BRANCH  17  28
ATOM     27  N   UNL     1      44.255   8.957  10.995  0.00  0.00    +0.000 NA
ATOM     28  C   UNL     1      44.831   8.113  11.540  0.00  0.00    +0.000 C 
ENDBRANCH  17  28
ENDBRANCH   1  22
TORSDOF 5
ENDMDL
MODEL 2
REMARK VINA RESULT:    -8.292      1.982      2.917
REMARK INTER + INTRA:         -10.901
REMARK INTER:                 -10.221
REMARK INTRA:                  -0.680
REMARK UNBOUND:                -0.186
REMARK  Name = 
REMARK  5 active torsions:
REMARK  status: ('A' for Active; 'I' for Inactive)
REMARK    1  A    between atoms: C_2  and  C_3
REMARK    2  A    between atoms: C_5  and  C_6
REMARK    3  A    between atoms: C_12  and  C_13
REMARK    4  A    between atoms: C_13  and  N_14
REMARK    5  A    between atoms: C_18  and  C_19
REMARK                            x       y       z     vdW  Elec       q    Type
REMARK                         _______ _______ _______ _____ _____    ______ ____
ROOT
ATOM      1  C   UNL     1      43.816   5.108  11.786  0.00  0.00    +0.000 C 
ATOM      2  C   UNL     1      42.386   5.607  11.699  0.00  0.00    +0.000 C 
ATOM      3  C   UNL     1      42.789   4.790  12.872  0.00  0.00    +0.000 C 
ENDROOT
BRANCH   1   4
ATOM      4  N   UNL     1      44.457   3.929  11.235  0.00  0.00    +0.000 N 
ATOM      5  C   UNL     1      45.085   3.700  10.028  0.00  0.00    +0.000 A 
ATOM      6  C   UNL     1      45.619   4.672   9.201  0.00  0.00    +0.000 A 
ATOM      7  C   UNL     1      46.201   4.288   7.988  0.00  0.00    +0.000 A 
ATOM      8  C   UNL     1      46.251   2.936   7.651  0.00  0.00    +0.000 A 
ATOM      9  C   UNL     1      45.732   2.028   8.555  0.00  0.00    +0.000 A 
ATOM     10  N   UNL     1      45.163   2.385   9.727  0.00  0.00    +0.000 NA
ATOM     11  H   UNL     1      44.146   3.020  11.572  0.00  0.00    +0.000 HD
BRANCH   8  12
ATOM     12  C   UNL     1      46.773   2.421   6.371  0.00  0.00    +0.000 C 
ATOM     13  N   UNL     1      46.869   3.296   5.327  0.00  0.00    +0.000 N 
ATOM     14  O   UNL     1      47.122   1.253   6.250  0.00  0.00    +0.000 OA
ATOM     15  H   UNL     1      46.820   4.297   5.443  0.00  0.00    +0.000 HD
ATOM     16  H   UNL     1      47.302   2.940   4.484  0.00  0.00    +0.000 HD
ENDBRANCH   8  12
ENDBRANCH   1   4
BRANCH   1  22
ATOM     17  C   UNL     1      46.055   5.970  12.706  0.00  0.00    +0.000 A 
ATOM     18  C   UNL     1      47.023   6.980  12.814  0.00  0.00    +0.000 A 
ATOM     19  C   UNL     1      46.805   8.239  12.233  0.00  0.00    +0.000 A 
ATOM     20  C   UNL     1      45.574   8.502  11.623  0.00  0.00    +0.000 A 
ATOM     21  C   UNL     1      44.615   7.498  11.515  0.00  0.00    +0.000 A 
ATOM     22  C   UNL     1      44.855   6.202  11.998  0.00  0.00    +0.000 A 
BRANCH  19  23
ATOM     23  C   UNL     1      47.878   9.298  12.212  0.00  0.00    +0.000 C 
ATOM     24  F   UNL     1      47.539  10.400  11.490  0.00  0.00    +0.000 F 
ATOM     25  F   UNL     1      48.166   9.746  13.466  0.00  0.00    +0.000 F 
ATOM     26  F   UNL     1      49.051   8.847  11.694  0.00  0.00    +0.000 F 
ENDBRANCH  19  23
BRANCH  17  28
ATOM     27  N   UNL     1      46.510   3.660  13.811  0.00  0.00    +0.000 NA
ATOM     28  C   UNL     1      46.303   4.692  13.326  0.00  0.00    +0.000 C 
ENDBRANCH  17  28
ENDBRANCH   1  22
TORSDOF 5
ENDMDL
MODEL 3
REMARK VINA RESULT:    -7.301      4.594      6.978
REMARK INTER + INTRA:          -9.621
REMARK INTER:                  -9.374
REMARK INTRA:                  -0.247
REMARK UNBOUND:                -0.186
REMARK  Name = 
REMARK  5 active torsions:
REMARK  status: ('A' for Active; 'I' for Inactive)
REMARK    1  A    between atoms: C_2  and  C_3
REMARK    2  A    between atoms: C_5  and  C_6
REMARK    3  A    between atoms: C_12  and  C_13
REMARK    4  A    between atoms: C_13  and  N_14
REMARK    5  A    between atoms: C_18  and  C_19
REMARK                            x       y       z     vdW  Elec       q    Type
REMARK                         _______ _______ _______ _____ _____    ______ ____
ROOT
ATOM      1  C   UNL     1      44.046   5.429  11.528  0.00  0.00    +0.000 C 
ATOM      2  C   UNL     1      42.549   5.577  11.337  0.00  0.00    +0.000 C 
ATOM      3  C   UNL     1      43.405   6.788  11.251  0.00  0.00    +0.000 C 
ENDROOT
BRANCH   1   4
ATOM      4  N   UNL     1      44.865   5.409  12.726  0.00  0.00    +0.000 N 
ATOM      5  C   UNL     1      46.059   6.026  13.036  0.00  0.00    +0.000 A 
ATOM      6  C   UNL     1      46.569   7.152  12.415  0.00  0.00    +0.000 A 
ATOM      7  C   UNL     1      47.813   7.647  12.821  0.00  0.00    +0.000 A 
ATOM      8  C   UNL     1      48.499   7.011  13.855  0.00  0.00    +0.000 A 
ATOM      9  C   UNL     1      47.897   5.917  14.449  0.00  0.00    +0.000 A 
ATOM     10  N   UNL     1      46.699   5.425  14.064  0.00  0.00    +0.000 NA
ATOM     11  H   UNL     1      44.798   4.593  13.331  0.00  0.00    +0.000 HD
BRANCH   8  12
ATOM     12  C   UNL     1      49.846   7.398  14.316  0.00  0.00    +0.000 C 
ATOM     13  N   UNL     1      50.764   7.750  13.368  0.00  0.00    +0.000 N 
ATOM     14  O   UNL     1      50.129   7.418  15.507  0.00  0.00    +0.000 OA
ATOM     15  H   UNL     1      50.513   7.974  12.417  0.00  0.00    +0.000 HD
ATOM     16  H   UNL     1      51.654   8.087  13.713  0.00  0.00    +0.000 HD
ENDBRANCH   8  12
ENDBRANCH   1   4
BRANCH   1  22
ATOM     17  C   UNL     1      44.557   3.280  10.215  0.00  0.00    +0.000 A 
ATOM     18  C   UNL     1      45.163   2.625   9.133  0.00  0.00    +0.000 A 
ATOM     19  C   UNL     1      45.985   3.334   8.244  0.00  0.00    +0.000 A 
ATOM     20  C   UNL     1      46.264   4.681   8.502  0.00  0.00    +0.000 A 
ATOM     21  C   UNL     1      45.659   5.329   9.575  0.00  0.00    +0.000 A 
ATOM     22  C   UNL     1      44.753   4.664  10.415  0.00  0.00    +0.000 A 
BRANCH  19  23
ATOM     23  C   UNL     1      46.540   2.694   6.996  0.00  0.00    +0.000 C 
ATOM     24  F   UNL     1      45.933   3.116   5.853  0.00  0.00    +0.000 F 
ATOM     25  F   UNL     1      47.866   2.967   6.838  0.00  0.00    +0.000 F 
ATOM     26  F   UNL     1      46.433   1.339   7.008  0.00  0.00    +0.000 F 
ENDBRANCH  19  23
BRANCH  17  28
ATOM     27  N   UNL     1      43.051   1.913  11.837  0.00  0.00    +0.000 NA
ATOM     28  C   UNL     1      43.729   2.519  11.120  0.00  0.00    +0.000 C 
ENDBRANCH  17  28
ENDBRANCH   1  22
TORSDOF 5
ENDMDL
MODEL 4
REMARK VINA RESULT:    -7.028      4.690      7.026
REMARK INTER + INTRA:          -9.268
REMARK INTER:                  -9.020
REMARK INTRA:                  -0.248
REMARK UNBOUND:                -0.186
REMARK  Name = 
REMARK  5 active torsions:
REMARK  status: ('A' for Active; 'I' for Inactive)
REMARK    1  A    between atoms: C_2  and  C_3
REMARK    2  A    between atoms: C_5  and  C_6
REMARK    3  A    between atoms: C_12  and  C_13
REMARK    4  A    between atoms: C_13  and  N_14
REMARK    5  A    between atoms: C_18  and  C_19
REMARK                            x       y       z     vdW  Elec       q    Type
REMARK                         _______ _______ _______ _____ _____    ______ ____
ROOT
ATOM      1  C   UNL     1      44.518   5.648  11.058  0.00  0.00    +0.000 C 
ATOM      2  C   UNL     1      43.009   5.554  11.181  0.00  0.00    +0.000 C 
ATOM      3  C   UNL     1      43.609   6.820  10.689  0.00  0.00    +0.000 C 
ENDROOT
BRANCH   1   4
ATOM      4  N   UNL     1      45.541   5.994  12.027  0.00  0.00    +0.000 N 
ATOM      5  C   UNL     1      46.136   5.267  13.037  0.00  0.00    +0.000 A 
ATOM      6  C   UNL     1      46.191   3.887  13.113  0.00  0.00    +0.000 A 
ATOM      7  C   UNL     1      46.806   3.291  14.219  0.00  0.00    +0.000 A 
ATOM      8  C   UNL     1      47.368   4.097  15.207  0.00  0.00    +0.000 A 
ATOM      9  C   UNL     1      47.306   5.468  15.032  0.00  0.00    +0.000 A 
ATOM     10  N   UNL     1      46.712   6.058  13.971  0.00  0.00    +0.000 NA
ATOM     11  H   UNL     1      45.636   6.974  12.285  0.00  0.00    +0.000 HD
BRANCH   8  12
ATOM     12  C   UNL     1      47.975   3.583  16.450  0.00  0.00    +0.000 C 
ATOM     13  N   UNL     1      47.152   2.974  17.353  0.00  0.00    +0.000 N 
ATOM     14  O   UNL     1      49.177   3.685  16.660  0.00  0.00    +0.000 OA
ATOM     15  H   UNL     1      46.221   2.661  17.122  0.00  0.00    +0.000 HD
ATOM     16  H   UNL     1      47.603   2.560  18.159  0.00  0.00    +0.000 HD
ENDBRANCH   8  12
ENDBRANCH   1   4
BRANCH   1  22
ATOM     17  C   UNL     1      44.766   3.403   9.834  0.00  0.00    +0.000 A 
ATOM     18  C   UNL     1      45.282   2.639   8.776  0.00  0.00    +0.000 A 
ATOM     19  C   UNL     1      46.169   3.213   7.852  0.00  0.00    +0.000 A 
ATOM     20  C   UNL     1      46.601   4.529   8.051  0.00  0.00    +0.000 A 
ATOM     21  C   UNL     1      46.086   5.285   9.100  0.00  0.00    +0.000 A 
ATOM     22  C   UNL     1      45.120   4.762   9.974  0.00  0.00    +0.000 A 
BRANCH  19  23
ATOM     23  C   UNL     1      46.633   2.463   6.628  0.00  0.00    +0.000 C 
ATOM     24  F   UNL     1      46.691   1.115   6.807  0.00  0.00    +0.000 F 
ATOM     25  F   UNL     1      45.799   2.664   5.570  0.00  0.00    +0.000 F 
ATOM     26  F   UNL     1      47.869   2.847   6.214  0.00  0.00    +0.000 F 
ENDBRANCH  19  23
BRANCH  17  28
ATOM     27  N   UNL     1      43.141   2.270  11.519  0.00  0.00    +0.000 NA
ATOM     28  C   UNL     1      43.869   2.779  10.776  0.00  0.00    +0.000 C 
ENDBRANCH  17  28
ENDBRANCH   1  22
TORSDOF 5
ENDMDL
MODEL 5
REMARK VINA RESULT:    -6.514      6.346      8.638
REMARK INTER + INTRA:          -8.604
REMARK INTER:                  -8.239
REMARK INTRA:                  -0.365
REMARK UNBOUND:                -0.186
REMARK  Name = 
REMARK  5 active torsions:
REMARK  status: ('A' for Active; 'I' for Inactive)
REMARK    1  A    between atoms: C_2  and  C_3
REMARK    2  A    between atoms: C_5  and  C_6
REMARK    3  A    between atoms: C_12  and  C_13
REMARK    4  A    between atoms: C_13  and  N_14
REMARK    5  A    between atoms: C_18  and  C_19
REMARK                            x       y       z     vdW  Elec       q    Type
REMARK                         _______ _______ _______ _____ _____    ______ ____
ROOT
ATOM      1  C   UNL     1      48.997   5.807  17.475  0.00  0.00    +0.000 C 
ATOM      2  C   UNL     1      48.008   5.812  18.625  0.00  0.00    +0.000 C 
ATOM      3  C   UNL     1      48.806   7.037  18.362  0.00  0.00    +0.000 C 
ENDROOT
BRANCH   1   4
ATOM      4  N   UNL     1      50.375   5.361  17.395  0.00  0.00    +0.000 N 
ATOM      5  C   UNL     1      50.944   4.107  17.475  0.00  0.00    +0.000 A 
ATOM      6  C   UNL     1      50.291   2.909  17.244  0.00  0.00    +0.000 A 
ATOM      7  C   UNL     1      50.996   1.711  17.393  0.00  0.00    +0.000 A 
ATOM      8  C   UNL     1      52.344   1.748  17.750  0.00  0.00    +0.000 A 
ATOM      9  C   UNL     1      52.929   2.990  17.921  0.00  0.00    +0.000 A 
ATOM     10  N   UNL     1      52.259   4.155  17.784  0.00  0.00    +0.000 NA
ATOM     11  H   UNL     1      51.102   6.023  17.660  0.00  0.00    +0.000 HD
BRANCH   8  12
ATOM     12  C   UNL     1      53.166   0.551  18.007  0.00  0.00    +0.000 C 
ATOM     13  N   UNL     1      52.536  -0.560  18.488  0.00  0.00    +0.000 N 
ATOM     14  O   UNL     1      54.370   0.547  17.784  0.00  0.00    +0.000 OA
ATOM     15  H   UNL     1      51.534  -0.678  18.460  0.00  0.00    +0.000 HD
ATOM     16  H   UNL     1      53.106  -1.392  18.581  0.00  0.00    +0.000 HD
ENDBRANCH   8  12
ENDBRANCH   1   4
BRANCH   1  22
ATOM     17  C   UNL     1      47.406   4.756  15.752  0.00  0.00    +0.000 A 
ATOM     18  C   UNL     1      46.782   4.774  14.496  0.00  0.00    +0.000 A 
ATOM     19  C   UNL     1      47.108   5.763  13.554  0.00  0.00    +0.000 A 
ATOM     20  C   UNL     1      48.127   6.675  13.852  0.00  0.00    +0.000 A 
ATOM     21  C   UNL     1      48.743   6.656  15.100  0.00  0.00    +0.000 A 
ATOM     22  C   UNL     1      48.359   5.741  16.092  0.00  0.00    +0.000 A 
BRANCH  19  23
ATOM     23  C   UNL     1      46.361   5.894  12.251  0.00  0.00    +0.000 C 
ATOM     24  F   UNL     1      45.862   4.715  11.791  0.00  0.00    +0.000 F 
ATOM     25  F   UNL     1      45.293   6.733  12.367  0.00  0.00    +0.000 F 
ATOM     26  F   UNL     1      47.131   6.400  11.252  0.00  0.00    +0.000 F 
ENDBRANCH  19  23
BRANCH  17  28
ATOM     27  N   UNL     1      46.769   2.878  17.435  0.00  0.00    +0.000 NA
ATOM     28  C   UNL     1      47.059   3.718  16.692  0.00  0.00    +0.000 C 
ENDBRANCH  17  28
ENDBRANCH   1  22
TORSDOF 5
ENDMDL
MODEL 6
REMARK VINA RESULT:    -6.340      4.879      6.904
REMARK INTER + INTRA:          -8.379
REMARK INTER:                  -7.953
REMARK INTRA:                  -0.426
REMARK UNBOUND:                -0.186
REMARK  Name = 
REMARK  5 active torsions:
REMARK  status: ('A' for Active; 'I' for Inactive)
REMARK    1  A    between atoms: C_2  and  C_3
REMARK    2  A    between atoms: C_5  and  C_6
REMARK    3  A    between atoms: C_12  and  C_13
REMARK    4  A    between atoms: C_13  and  N_14
REMARK    5  A    between atoms: C_18  and  C_19
REMARK                            x       y       z     vdW  Elec       q    Type
REMARK                         _______ _______ _______ _____ _____    ______ ____
ROOT
ATOM      1  C   UNL     1      47.805   3.574  16.833  0.00  0.00    +0.000 C 
ATOM      2  C   UNL     1      47.122   4.478  17.840  0.00  0.00    +0.000 C 
ATOM      3  C   UNL     1      46.790   3.031  17.838  0.00  0.00    +0.000 C 
ENDROOT
BRANCH   1   4
ATOM      4  N   UNL     1      47.482   3.252  15.455  0.00  0.00    +0.000 N 
ATOM      5  C   UNL     1      47.051   4.034  14.404  0.00  0.00    +0.000 A 
ATOM      6  C   UNL     1      47.212   5.404  14.299  0.00  0.00    +0.000 A 
ATOM      7  C   UNL     1      46.693   6.066  13.181  0.00  0.00    +0.000 A 
ATOM      8  C   UNL     1      46.046   5.330  12.189  0.00  0.00    +0.000 A 
ATOM      9  C   UNL     1      45.966   3.959  12.354  0.00  0.00    +0.000 A 
ATOM     10  N   UNL     1      46.459   3.307  13.430  0.00  0.00    +0.000 NA
ATOM     11  H   UNL     1      47.177   2.303  15.251  0.00  0.00    +0.000 HD
BRANCH   8  12
ATOM     12  C   UNL     1      45.397   5.927  11.007  0.00  0.00    +0.000 C 
ATOM     13  N   UNL     1      44.473   6.910  11.218  0.00  0.00    +0.000 N 
ATOM     14  O   UNL     1      45.685   5.566   9.873  0.00  0.00    +0.000 OA
ATOM     15  H   UNL     1      44.380   7.395  12.098  0.00  0.00    +0.000 HD
ATOM     16  H   UNL     1      44.100   7.358  10.391  0.00  0.00    +0.000 HD
ENDBRANCH   8  12
ENDBRANCH   1   4
BRANCH   1  22
ATOM     17  C   UNL     1      50.182   4.483  17.187  0.00  0.00    +0.000 A 
ATOM     18  C   UNL     1      51.539   4.274  17.476  0.00  0.00    +0.000 A 
ATOM     19  C   UNL     1      52.041   2.972  17.631  0.00  0.00    +0.000 A 
ATOM     20  C   UNL     1      51.190   1.885  17.405  0.00  0.00    +0.000 A 
ATOM     21  C   UNL     1      49.844   2.094  17.120  0.00  0.00    +0.000 A 
ATOM     22  C   UNL     1      49.300   3.387  17.063  0.00  0.00    +0.000 A 
BRANCH  19  23
ATOM     23  C   UNL     1      53.458   2.717  18.077  0.00  0.00    +0.000 C 
ATOM     24  F   UNL     1      54.300   3.759  17.834  0.00  0.00    +0.000 F 
ATOM     25  F   UNL     1      53.529   2.484  19.417  0.00  0.00    +0.000 F 
ATOM     26  F   UNL     1      54.011   1.631  17.475  0.00  0.00    +0.000 F 
ENDBRANCH  19  23
BRANCH  17  28
ATOM     27  N   UNL     1      49.303   6.911  16.876  0.00  0.00    +0.000 NA
ATOM     28  C   UNL     1      49.701   5.833  17.019  0.00  0.00    +0.000 C 
ENDBRANCH  17  28
ENDBRANCH   1  22
TORSDOF 5
ENDMDL
MODEL 7
REMARK VINA RESULT:    -6.316      4.532      7.002
REMARK INTER + INTRA:          -8.348
REMARK INTER:                  -8.069
REMARK INTRA:                  -0.278
REMARK UNBOUND:                -0.186
REMARK  Name = 
REMARK  5 active torsions:
REMARK  status: ('A' for Active; 'I' for Inactive)
REMARK    1  A    between atoms: C_2  and  C_3
REMARK    2  A    between atoms: C_5  and  C_6
REMARK    3  A    between atoms: C_12  and  C_13
REMARK    4  A    between atoms: C_13  and  N_14
REMARK    5  A    between atoms: C_18  and  C_19
REMARK                            x       y       z     vdW  Elec       q    Type
REMARK                         _______ _______ _______ _____ _____    ______ ____
ROOT
ATOM      1  C   UNL     1      43.573   5.705  11.613  0.00  0.00    +0.000 C 
ATOM      2  C   UNL     1      42.957   5.043  12.831  0.00  0.00    +0.000 C 
ATOM      3  C   UNL     1      42.058   5.610  11.793  0.00  0.00    +0.000 C 
ENDROOT
BRANCH   1   4
ATOM      4  N   UNL     1      44.044   7.059  11.391  0.00  0.00    +0.000 N 
ATOM      5  C   UNL     1      45.195   7.711  11.783  0.00  0.00    +0.000 A 
ATOM      6  C   UNL     1      46.382   7.101  12.146  0.00  0.00    +0.000 A 
ATOM      7  C   UNL     1      47.459   7.897  12.551  0.00  0.00    +0.000 A 
ATOM      8  C   UNL     1      47.321   9.284  12.558  0.00  0.00    +0.000 A 
ATOM      9  C   UNL     1      46.112   9.812  12.140  0.00  0.00    +0.000 A 
ATOM     10  N   UNL     1      45.063   9.056  11.750  0.00  0.00    +0.000 NA
ATOM     11  H   UNL     1      43.345   7.782  11.232  0.00  0.00    +0.000 HD
BRANCH   8  12
ATOM     12  C   UNL     1      48.359  10.217  13.034  0.00  0.00    +0.000 C 
ATOM     13  N   UNL     1      48.325  10.589  14.347  0.00  0.00    +0.000 N 
ATOM     14  O   UNL     1      49.232  10.634  12.283  0.00  0.00    +0.000 OA
ATOM     15  H   UNL     1      47.782  10.098  15.042  0.00  0.00    +0.000 HD
ATOM     16  H   UNL     1      49.092  11.166  14.668  0.00  0.00    +0.000 HD
ENDBRANCH   8  12
ENDBRANCH   1   4
BRANCH   1  22
ATOM     17  C   UNL     1      45.233   3.799  11.152  0.00  0.00    +0.000 A 
ATOM     18  C   UNL     1      45.828   2.884  10.270  0.00  0.00    +0.000 A 
ATOM     19  C   UNL     1      45.520   2.914   8.901  0.00  0.00    +0.000 A 
ATOM     20  C   UNL     1      44.681   3.923   8.415  0.00  0.00    +0.000 A 
ATOM     21  C   UNL     1      44.091   4.828   9.292  0.00  0.00    +0.000 A 
ATOM     22  C   UNL     1      44.304   4.750  10.677  0.00  0.00    +0.000 A 
BRANCH  19  23
ATOM     23  C   UNL     1      46.034   1.862   7.950  0.00  0.00    +0.000 C 
ATOM     24  F   UNL     1      45.641   0.600   8.273  0.00  0.00    +0.000 F 
ATOM     25  F   UNL     1      45.594   2.077   6.679  0.00  0.00    +0.000 F 
ATOM     26  F   UNL     1      47.391   1.834   7.880  0.00  0.00    +0.000 F 
ENDBRANCH  19  23
BRANCH  17  28
ATOM     27  N   UNL     1      45.878   3.718  13.670  0.00  0.00    +0.000 NA
ATOM     28  C   UNL     1      45.582   3.751  12.551  0.00  0.00    +0.000 C 
ENDBRANCH  17  28
ENDBRANCH   1  22
TORSDOF 5
ENDMDL
MODEL 8
REMARK VINA RESULT:    -6.000      6.471      8.488
REMARK INTER + INTRA:          -7.939
REMARK INTER:                  -7.572
REMARK INTRA:                  -0.367
REMARK UNBOUND:                -0.186
REMARK  Name = 
REMARK  5 active torsions:
REMARK  status: ('A' for Active; 'I' for Inactive)
REMARK    1  A    between atoms: C_2  and  C_3
REMARK    2  A    between atoms: C_5  and  C_6
REMARK    3  A    between atoms: C_12  and  C_13
REMARK    4  A    between atoms: C_13  and  N_14
REMARK    5  A    between atoms: C_18  and  C_19
REMARK                            x       y       z     vdW  Elec       q    Type
REMARK                         _______ _______ _______ _____ _____    ______ ____
ROOT
ATOM      1  C   UNL     1      48.149   4.292  16.930  0.00  0.00    +0.000 C 
ATOM      2  C   UNL     1      47.151   3.259  17.417  0.00  0.00    +0.000 C 
ATOM      3  C   UNL     1      47.327   4.507  18.201  0.00  0.00    +0.000 C 
ENDROOT
BRANCH   1   4
ATOM      4  N   UNL     1      49.579   4.418  17.138  0.00  0.00    +0.000 N 
ATOM      5  C   UNL     1      50.563   3.480  17.371  0.00  0.00    +0.000 A 
ATOM      6  C   UNL     1      50.485   2.136  17.056  0.00  0.00    +0.000 A 
ATOM      7  C   UNL     1      51.557   1.298  17.381  0.00  0.00    +0.000 A 
ATOM      8  C   UNL     1      52.686   1.838  17.995  0.00  0.00    +0.000 A 
ATOM      9  C   UNL     1      52.698   3.200  18.236  0.00  0.00    +0.000 A 
ATOM     10  N   UNL     1      51.669   4.020  17.931  0.00  0.00    +0.000 NA
ATOM     11  H   UNL     1      49.925   5.297  17.519  0.00  0.00    +0.000 HD
BRANCH   8  12
ATOM     12  C   UNL     1      53.842   1.042  18.449  0.00  0.00    +0.000 C 
ATOM     13  N   UNL     1      54.366   0.130  17.579  0.00  0.00    +0.000 N 
ATOM     14  O   UNL     1      54.327   1.203  19.563  0.00  0.00    +0.000 OA
ATOM     15  H   UNL     1      54.158   0.131  16.592  0.00  0.00    +0.000 HD
ATOM     16  H   UNL     1      55.206  -0.347  17.884  0.00  0.00    +0.000 HD
ENDBRANCH   8  12
ENDBRANCH   1   4
BRANCH   1  22
ATOM     17  C   UNL     1      48.291   6.237  15.258  0.00  0.00    +0.000 A 
ATOM     18  C   UNL     1      47.969   6.807  14.017  0.00  0.00    +0.000 A 
ATOM     19  C   UNL     1      47.102   6.144  13.134  0.00  0.00    +0.000 A 
ATOM     20  C   UNL     1      46.493   4.954  13.546  0.00  0.00    +0.000 A 
ATOM     21  C   UNL     1      46.815   4.389  14.776  0.00  0.00    +0.000 A 
ATOM     22  C   UNL     1      47.759   4.983  15.629  0.00  0.00    +0.000 A 
BRANCH  19  23
ATOM     23  C   UNL     1      46.844   6.660  11.741  0.00  0.00    +0.000 C 
ATOM     24  F   UNL     1      47.969   7.076  11.099  0.00  0.00    +0.000 F 
ATOM     25  F   UNL     1      46.292   5.701  10.945  0.00  0.00    +0.000 F 
ATOM     26  F   UNL     1      45.981   7.710  11.720  0.00  0.00    +0.000 F 
ENDBRANCH  19  23
BRANCH  17  28
ATOM     27  N   UNL     1      49.875   7.537  16.860  0.00  0.00    +0.000 NA
ATOM     28  C   UNL     1      49.174   6.951  16.148  0.00  0.00    +0.000 C 
ENDBRANCH  17  28
ENDBRANCH   1  22
TORSDOF 5
ENDMDL
MODEL 9
REMARK VINA RESULT:    -5.839      5.226      7.401
REMARK INTER + INTRA:          -7.732
REMARK INTER:                  -7.267
REMARK INTRA:                  -0.465
REMARK UNBOUND:                -0.186
REMARK  Name = 
REMARK  5 active torsions:
REMARK  status: ('A' for Active; 'I' for Inactive)
REMARK    1  A    between atoms: C_2  and  C_3
REMARK    2  A    between atoms: C_5  and  C_6
REMARK    3  A    between atoms: C_12  and  C_13
REMARK    4  A    between atoms: C_13  and  N_14
REMARK    5  A    between atoms: C_18  and  C_19
REMARK                            x       y       z     vdW  Elec       q    Type
REMARK                         _______ _______ _______ _____ _____    ______ ____
ROOT
ATOM      1  C   UNL     1      47.366   7.871  12.387  0.00  0.00    +0.000 C 
ATOM      2  C   UNL     1      46.903   8.727  13.550  0.00  0.00    +0.000 C 
ATOM      3  C   UNL     1      46.771   9.262  12.171  0.00  0.00    +0.000 C 
ENDROOT
BRANCH   1   4
ATOM      4  N   UNL     1      48.673   7.701  11.779  0.00  0.00    +0.000 N 
ATOM      5  C   UNL     1      49.945   7.965  12.241  0.00  0.00    +0.000 A 
ATOM      6  C   UNL     1      50.312   8.081  13.570  0.00  0.00    +0.000 A 
ATOM      7  C   UNL     1      51.641   8.382  13.885  0.00  0.00    +0.000 A 
ATOM      8  C   UNL     1      52.570   8.537  12.856  0.00  0.00    +0.000 A 
ATOM      9  C   UNL     1      52.127   8.362  11.558  0.00  0.00    +0.000 A 
ATOM     10  N   UNL     1      50.846   8.076  11.239  0.00  0.00    +0.000 NA
ATOM     11  H   UNL     1      48.727   7.720  10.763  0.00  0.00    +0.000 HD
BRANCH   8  12
ATOM     12  C   UNL     1      53.977   8.926  13.064  0.00  0.00    +0.000 C 
ATOM     13  N   UNL     1      54.299   9.542  14.239  0.00  0.00    +0.000 N 
ATOM     14  O   UNL     1      54.833   8.693  12.218  0.00  0.00    +0.000 OA
ATOM     15  H   UNL     1      53.691   9.539  15.044  0.00  0.00    +0.000 HD
ATOM     16  H   UNL     1      55.283   9.728  14.391  0.00  0.00    +0.000 HD
ENDBRANCH   8  12
ENDBRANCH   1   4
BRANCH   1  22
ATOM     17  C   UNL     1      46.541   5.525  13.036  0.00  0.00    +0.000 A 
ATOM     18  C   UNL     1      45.696   4.426  12.823  0.00  0.00    +0.000 A 
ATOM     19  C   UNL     1      44.834   4.396  11.716  0.00  0.00    +0.000 A 
ATOM     20  C   UNL     1      44.894   5.434  10.780  0.00  0.00    +0.000 A 
ATOM     21  C   UNL     1      45.732   6.524  10.993  0.00  0.00    +0.000 A 
ATOM     22  C   UNL     1      46.525   6.623  12.147  0.00  0.00    +0.000 A 
BRANCH  19  23
ATOM     23  C   UNL     1      43.817   3.298  11.533  0.00  0.00    +0.000 C 
ATOM     24  F   UNL     1      43.726   2.458  12.600  0.00  0.00    +0.000 F 
ATOM     25  F   UNL     1      42.564   3.800  11.345  0.00  0.00    +0.000 F 
ATOM     26  F   UNL     1      44.076   2.516  10.452  0.00  0.00    +0.000 F 
ENDBRANCH  19  23
BRANCH  17  28
ATOM     27  N   UNL     1      48.148   5.520  15.081  0.00  0.00    +0.000 NA
ATOM     28  C   UNL     1      47.426   5.519  14.176  0.00  0.00    +0.000 C 
ENDBRANCH  17  28
ENDBRANCH   1  22
TORSDOF 5
ENDMDL
