MODEL 1
REMARK VINA RESULT:    -7.844      0.000      0.000
REMARK INTER + INTRA:         -11.652
REMARK INTER:                 -10.595
REMARK INTRA:                  -1.057
REMARK UNBOUND:                -1.057
REMARK  Name = 
REMARK  7 active torsions:
REMARK  status: ('A' for Active; 'I' for Inactive)
REMARK    1  A    between atoms: C_1  and  C_2
REMARK    2  A    between atoms: C_2  and  N_3
REMARK    3  A    between atoms: C_2  and  C_16
REMARK    4  A    between atoms: C_4  and  C_6
REMARK    5  A    between atoms: C_19  and  C_20
REMARK    6  A    between atoms: C_20  and  N_21
REMARK    7  A    between atoms: C_22  and  C_24
REMARK                            x       y       z     vdW  Elec       q    Type
REMARK                         _______ _______ _______ _____ _____    ______ ____
ROOT
ATOM      1  C   UNL     1      47.289   9.134  13.209  0.00  0.00    +0.000 C 
ATOM      2  C   UNL     1      47.788   7.721  13.536  0.00  0.00    +0.000 C 
ENDROOT
BRANCH   2   3
ATOM      3  C   UNL     1      46.844   6.678  12.949  0.00  0.00    +0.000 A 
ATOM      4  C   UNL     1      46.163   6.920  11.750  0.00  0.00    +0.000 A 
ATOM      5  C   UNL     1      45.341   5.937  11.186  0.00  0.00    +0.000 A 
ATOM      6  C   UNL     1      45.177   4.694  11.811  0.00  0.00    +0.000 A 
ATOM      7  C   UNL     1      45.853   4.451  13.012  0.00  0.00    +0.000 A 
ATOM      8  C   UNL     1      46.672   5.432  13.576  0.00  0.00    +0.000 A 
BRANCH   6   9
ATOM      9  C   UNL     1      44.315   3.626  11.196  0.00  0.00    +0.000 C 
BRANCH   9  10
ATOM     10  N   UNL     1      45.052   2.794  10.283  0.00  0.00    +0.000 N 
ATOM     11  C   UNL     1      45.115   3.081   8.939  0.00  0.00    +0.000 C 
ATOM     12  O   UNL     1      44.537   4.039   8.433  0.00  0.00    +0.000 OA
ATOM     13  H   UNL     1      45.559   1.976  10.609  0.00  0.00    +0.000 HD
BRANCH  11  14
ATOM     14  C   UNL     1      45.925   2.157   8.170  0.00  0.00    +0.000 A 
ATOM     15  N   UNL     1      45.992   0.848   8.362  0.00  0.00    +0.000 NA
ATOM     16  C   UNL     1      46.886   0.388   7.428  0.00  0.00    +0.000 A 
ATOM     17  C   UNL     1      47.364   1.419   6.654  0.00  0.00    +0.000 A 
ATOM     18  N   UNL     1      46.744   2.538   7.134  0.00  0.00    +0.000 N 
ATOM     19  H   UNL     1      46.854   3.490   6.815  0.00  0.00    +0.000 HD
ENDBRANCH  11  14
ENDBRANCH   9  10
ENDBRANCH   6   9
ENDBRANCH   2   3
BRANCH   2  20
ATOM     20  N   UNL     1      47.917   7.483  14.968  0.00  0.00    +0.000 N 
ATOM     21  C   UNL     1      49.079   7.065  15.564  0.00  0.00    +0.000 C 
ATOM     22  O   UNL     1      50.127   6.910  14.945  0.00  0.00    +0.000 OA
ATOM     23  H   UNL     1      47.047   7.293  15.456  0.00  0.00    +0.000 HD
BRANCH  21  24
ATOM     24  C   UNL     1      49.027   6.877  17.019  0.00  0.00    +0.000 A 
ATOM     25  C   UNL     1      49.221   7.964  17.860  0.00  0.00    +0.000 A 
ATOM     26  S   UNL     1      49.116   7.576  19.517  0.00  0.00    +0.000 S 
ATOM     27  C   UNL     1      48.852   5.931  19.170  0.00  0.00    +0.000 A 
ATOM     28  N   UNL     1      48.718   5.017  20.168  0.00  0.00    +0.000 NA
ATOM     29  C   UNL     1      48.560   3.802  19.759  0.00  0.00    +0.000 A 
ATOM     30  N   UNL     1      48.510   3.420  18.445  0.00  0.00    +0.000 N 
ATOM     31  C   UNL     1      48.596   4.314  17.404  0.00  0.00    +0.000 A 
ATOM     32  O   UNL     1      48.475   3.955  16.236  0.00  0.00    +0.000 OA
ATOM     33  C   UNL     1      48.810   5.689  17.808  0.00  0.00    +0.000 A 
ATOM     34  H   UNL     1      48.362   2.453  18.192  0.00  0.00    +0.000 HD
ENDBRANCH  21  24
ENDBRANCH   2  20
TORSDOF 6
ENDMDL
MODEL 2
REMARK VINA RESULT:    -7.746      1.427      2.056
REMARK INTER + INTRA:         -11.519
REMARK INTER:                 -10.345
REMARK INTRA:                  -1.174
REMARK UNBOUND:                -1.057
REMARK  Name = 
REMARK  7 active torsions:
REMARK  status: ('A' for Active; 'I' for Inactive)
REMARK    1  A    between atoms: C_1  and  C_2
REMARK    2  A    between atoms: C_2  and  N_3
REMARK    3  A    between atoms: C_2  and  C_16
REMARK    4  A    between atoms: C_4  and  C_6
REMARK    5  A    between atoms: C_19  and  C_20
REMARK    6  A    between atoms: C_20  and  N_21
REMARK    7  A    between atoms: C_22  and  C_24
REMARK                            x       y       z     vdW  Elec       q    Type
REMARK                         _______ _______ _______ _____ _____    ______ ____
ROOT
ATOM      1  C   UNL     1      47.442   9.105  13.539  0.00  0.00    +0.000 C 
ATOM      2  C   UNL     1      47.844   7.637  13.725  0.00  0.00    +0.000 C 
ENDROOT
BRANCH   2   3
ATOM      3  C   UNL     1      46.865   6.724  12.996  0.00  0.00    +0.000 A 
ATOM      4  C   UNL     1      46.352   7.077  11.742  0.00  0.00    +0.000 A 
ATOM      5  C   UNL     1      45.497   6.209  11.052  0.00  0.00    +0.000 A 
ATOM      6  C   UNL     1      45.131   4.974  11.603  0.00  0.00    +0.000 A 
ATOM      7  C   UNL     1      45.639   4.621  12.858  0.00  0.00    +0.000 A 
ATOM      8  C   UNL     1      46.490   5.487  13.548  0.00  0.00    +0.000 A 
BRANCH   6   9
ATOM      9  C   UNL     1      44.233   4.028  10.854  0.00  0.00    +0.000 C 
BRANCH   9  10
ATOM     10  N   UNL     1      44.978   3.090  10.056  0.00  0.00    +0.000 N 
ATOM     11  C   UNL     1      45.259   3.336   8.733  0.00  0.00    +0.000 C 
ATOM     12  O   UNL     1      44.881   4.346   8.146  0.00  0.00    +0.000 OA
ATOM     13  H   UNL     1      45.329   2.224  10.455  0.00  0.00    +0.000 HD
BRANCH  11  14
ATOM     14  C   UNL     1      46.045   2.302   8.089  0.00  0.00    +0.000 A 
ATOM     15  N   UNL     1      45.967   1.004   8.345  0.00  0.00    +0.000 NA
ATOM     16  C   UNL     1      46.896   0.415   7.525  0.00  0.00    +0.000 A 
ATOM     17  C   UNL     1      47.541   1.354   6.755  0.00  0.00    +0.000 A 
ATOM     18  N   UNL     1      46.989   2.550   7.122  0.00  0.00    +0.000 N 
ATOM     19  H   UNL     1      47.219   3.470   6.771  0.00  0.00    +0.000 HD
ENDBRANCH  11  14
ENDBRANCH   9  10
ENDBRANCH   6   9
ENDBRANCH   2   3
BRANCH   2  20
ATOM     20  N   UNL     1      47.903   7.238  15.125  0.00  0.00    +0.000 N 
ATOM     21  C   UNL     1      49.040   6.769  15.732  0.00  0.00    +0.000 C 
ATOM     22  O   UNL     1      50.121   6.699  15.157  0.00  0.00    +0.000 OA
ATOM     23  H   UNL     1      47.012   6.983  15.541  0.00  0.00    +0.000 HD
BRANCH  21  24
ATOM     24  C   UNL     1      48.914   6.416  17.152  0.00  0.00    +0.000 A 
ATOM     25  C   UNL     1      49.294   5.151  17.581  0.00  0.00    +0.000 A 
ATOM     26  S   UNL     1      49.096   4.909  19.257  0.00  0.00    +0.000 S 
ATOM     27  C   UNL     1      48.453   6.471  19.461  0.00  0.00    +0.000 A 
ATOM     28  N   UNL     1      48.029   6.901  20.680  0.00  0.00    +0.000 NA
ATOM     29  C   UNL     1      47.530   8.092  20.681  0.00  0.00    +0.000 A 
ATOM     30  N   UNL     1      47.429   8.897  19.577  0.00  0.00    +0.000 N 
ATOM     31  C   UNL     1      47.885   8.523  18.336  0.00  0.00    +0.000 A 
ATOM     32  O   UNL     1      47.850   9.291  17.379  0.00  0.00    +0.000 OA
ATOM     33  C   UNL     1      48.423   7.178  18.272  0.00  0.00    +0.000 A 
ATOM     34  H   UNL     1      47.048   9.830  19.650  0.00  0.00    +0.000 HD
ENDBRANCH  21  24
ENDBRANCH   2  20
TORSDOF 6
ENDMDL
MODEL 3
REMARK VINA RESULT:    -7.308      3.589      8.411
REMARK INTER + INTRA:         -10.928
REMARK INTER:                  -9.975
REMARK INTRA:                  -0.952
REMARK UNBOUND:                -1.057
REMARK  Name = 
REMARK  7 active torsions:
REMARK  status: ('A' for Active; 'I' for Inactive)
REMARK    1  A    between atoms: C_1  and  C_2
REMARK    2  A    between atoms: C_2  and  N_3
REMARK    3  A    between atoms: C_2  and  C_16
REMARK    4  A    between atoms: C_4  and  C_6
REMARK    5  A    between atoms: C_19  and  C_20
REMARK    6  A    between atoms: C_20  and  N_21
REMARK    7  A    between atoms: C_22  and  C_24
REMARK                            x       y       z     vdW  Elec       q    Type
REMARK                         _______ _______ _______ _____ _____    ______ ____
ROOT
ATOM      1  C   UNL     1      49.398   7.420  12.998  0.00  0.00    +0.000 C 
ATOM      2  C   UNL     1      48.053   6.936  13.556  0.00  0.00    +0.000 C 
ENDROOT
BRANCH   2   3
ATOM      3  C   UNL     1      48.262   6.196  14.872  0.00  0.00    +0.000 A 
ATOM      4  C   UNL     1      47.445   5.115  15.225  0.00  0.00    +0.000 A 
ATOM      5  C   UNL     1      47.676   4.404  16.409  0.00  0.00    +0.000 A 
ATOM      6  C   UNL     1      48.724   4.761  17.267  0.00  0.00    +0.000 A 
ATOM      7  C   UNL     1      49.540   5.843  16.919  0.00  0.00    +0.000 A 
ATOM      8  C   UNL     1      49.309   6.555  15.740  0.00  0.00    +0.000 A 
BRANCH   6   9
ATOM      9  C   UNL     1      48.993   3.984  18.527  0.00  0.00    +0.000 C 
BRANCH   9  10
ATOM     10  N   UNL     1      50.269   3.321  18.493  0.00  0.00    +0.000 N 
ATOM     11  C   UNL     1      50.501   2.249  17.663  0.00  0.00    +0.000 C 
ATOM     12  O   UNL     1      49.641   1.780  16.922  0.00  0.00    +0.000 OA
ATOM     13  H   UNL     1      51.040   3.636  19.075  0.00  0.00    +0.000 HD
BRANCH  11  14
ATOM     14  C   UNL     1      51.849   1.722  17.734  0.00  0.00    +0.000 A 
ATOM     15  N   UNL     1      52.960   2.422  17.553  0.00  0.00    +0.000 NA
ATOM     16  C   UNL     1      53.985   1.521  17.692  0.00  0.00    +0.000 A 
ATOM     17  C   UNL     1      53.502   0.263  17.968  0.00  0.00    +0.000 A 
ATOM     18  N   UNL     1      52.143   0.405  17.994  0.00  0.00    +0.000 N 
ATOM     19  H   UNL     1      51.450  -0.311  18.161  0.00  0.00    +0.000 HD
ENDBRANCH  11  14
ENDBRANCH   9  10
ENDBRANCH   6   9
ENDBRANCH   2   3
BRANCH   2  20
ATOM     20  N   UNL     1      47.339   6.062  12.635  0.00  0.00    +0.000 N 
ATOM     21  C   UNL     1      46.313   6.487  11.830  0.00  0.00    +0.000 C 
ATOM     22  O   UNL     1      45.948   7.656  11.778  0.00  0.00    +0.000 OA
ATOM     23  H   UNL     1      47.378   5.072  12.858  0.00  0.00    +0.000 HD
BRANCH  21  24
ATOM     24  C   UNL     1      45.709   5.468  10.963  0.00  0.00    +0.000 A 
ATOM     25  C   UNL     1      45.822   5.583   9.584  0.00  0.00    +0.000 A 
ATOM     26  S   UNL     1      45.076   4.312   8.727  0.00  0.00    +0.000 S 
ATOM     27  C   UNL     1      44.535   3.586  10.168  0.00  0.00    +0.000 A 
ATOM     28  N   UNL     1      43.779   2.455  10.142  0.00  0.00    +0.000 NA
ATOM     29  C   UNL     1      43.408   2.036  11.306  0.00  0.00    +0.000 A 
ATOM     30  N   UNL     1      43.736   2.636  12.494  0.00  0.00    +0.000 N 
ATOM     31  C   UNL     1      44.534   3.753  12.570  0.00  0.00    +0.000 A 
ATOM     32  O   UNL     1      44.873   4.228  13.650  0.00  0.00    +0.000 OA
ATOM     33  C   UNL     1      44.949   4.286  11.288  0.00  0.00    +0.000 A 
ATOM     34  H   UNL     1      43.431   2.244  13.373  0.00  0.00    +0.000 HD
ENDBRANCH  21  24
ENDBRANCH   2  20
TORSDOF 6
ENDMDL
MODEL 4
REMARK VINA RESULT:    -7.222      2.582      4.434
REMARK INTER + INTRA:         -10.812
REMARK INTER:                  -9.607
REMARK INTRA:                  -1.204
REMARK UNBOUND:                -1.057
REMARK  Name = 
REMARK  7 active torsions:
REMARK  status: ('A' for Active; 'I' for Inactive)
REMARK    1  A    between atoms: C_1  and  C_2
REMARK    2  A    between atoms: C_2  and  N_3
REMARK    3  A    between atoms: C_2  and  C_16
REMARK    4  A    between atoms: C_4  and  C_6
REMARK    5  A    between atoms: C_19  and  C_20
REMARK    6  A    between atoms: C_20  and  N_21
REMARK    7  A    between atoms: C_22  and  C_24
REMARK                            x       y       z     vdW  Elec       q    Type
REMARK                         _______ _______ _______ _____ _____    ______ ____
ROOT
ATOM      1  C   UNL     1      47.507   3.952  15.616  0.00  0.00    +0.000 C 
ATOM      2  C   UNL     1      47.151   5.261  14.899  0.00  0.00    +0.000 C 
ENDROOT
BRANCH   2   3
ATOM      3  C   UNL     1      46.281   4.977  13.681  0.00  0.00    +0.000 A 
ATOM      4  C   UNL     1      45.670   6.020  12.975  0.00  0.00    +0.000 A 
ATOM      5  C   UNL     1      44.918   5.759  11.824  0.00  0.00    +0.000 A 
ATOM      6  C   UNL     1      44.755   4.448  11.356  0.00  0.00    +0.000 A 
ATOM      7  C   UNL     1      45.361   3.402  12.062  0.00  0.00    +0.000 A 
ATOM      8  C   UNL     1      46.109   3.662  13.212  0.00  0.00    +0.000 A 
BRANCH   6   9
ATOM      9  C   UNL     1      43.969   4.164  10.106  0.00  0.00    +0.000 C 
BRANCH   9  10
ATOM     10  N   UNL     1      44.744   3.444   9.131  0.00  0.00    +0.000 N 
ATOM     11  C   UNL     1      45.701   4.071   8.367  0.00  0.00    +0.000 C 
ATOM     12  O   UNL     1      45.939   5.273   8.450  0.00  0.00    +0.000 OA
ATOM     13  H   UNL     1      44.614   2.446   8.988  0.00  0.00    +0.000 HD
BRANCH  11  14
ATOM     14  C   UNL     1      46.408   3.191   7.458  0.00  0.00    +0.000 A 
ATOM     15  N   UNL     1      46.683   1.914   7.681  0.00  0.00    +0.000 NA
ATOM     16  C   UNL     1      47.373   1.491   6.572  0.00  0.00    +0.000 A 
ATOM     17  C   UNL     1      47.514   2.511   5.661  0.00  0.00    +0.000 A 
ATOM     18  N   UNL     1      46.894   3.586   6.235  0.00  0.00    +0.000 N 
ATOM     19  H   UNL     1      46.802   4.519   5.859  0.00  0.00    +0.000 HD
ENDBRANCH  11  14
ENDBRANCH   9  10
ENDBRANCH   6   9
ENDBRANCH   2   3
BRANCH   2  20
ATOM     20  N   UNL     1      48.325   6.011  14.472  0.00  0.00    +0.000 N 
ATOM     21  C   UNL     1      48.967   6.928  15.265  0.00  0.00    +0.000 C 
ATOM     22  O   UNL     1      48.637   7.152  16.425  0.00  0.00    +0.000 OA
ATOM     23  H   UNL     1      48.441   6.100  13.468  0.00  0.00    +0.000 HD
BRANCH  21  24
ATOM     24  C   UNL     1      50.135   7.589  14.670  0.00  0.00    +0.000 A 
ATOM     25  C   UNL     1      51.359   7.542  15.325  0.00  0.00    +0.000 A 
ATOM     26  S   UNL     1      52.610   8.348  14.494  0.00  0.00    +0.000 S 
ATOM     27  C   UNL     1      51.551   8.828  13.253  0.00  0.00    +0.000 A 
ATOM     28  N   UNL     1      51.985   9.601  12.221  0.00  0.00    +0.000 NA
ATOM     29  C   UNL     1      51.065   9.921  11.372  0.00  0.00    +0.000 A 
ATOM     30  N   UNL     1      49.756   9.526  11.453  0.00  0.00    +0.000 N 
ATOM     31  C   UNL     1      49.283   8.709  12.452  0.00  0.00    +0.000 A 
ATOM     32  O   UNL     1      48.122   8.310  12.461  0.00  0.00    +0.000 OA
ATOM     33  C   UNL     1      50.268   8.350  13.453  0.00  0.00    +0.000 A 
ATOM     34  H   UNL     1      49.090   9.794  10.742  0.00  0.00    +0.000 HD
ENDBRANCH  21  24
ENDBRANCH   2  20
TORSDOF 6
ENDMDL
MODEL 5
REMARK VINA RESULT:    -6.860      2.884      4.175
REMARK INTER + INTRA:         -10.322
REMARK INTER:                  -9.209
REMARK INTRA:                  -1.113
REMARK UNBOUND:                -1.057
REMARK  Name = 
REMARK  7 active torsions:
REMARK  status: ('A' for Active; 'I' for Inactive)
REMARK    1  A    between atoms: C_1  and  C_2
REMARK    2  A    between atoms: C_2  and  N_3
REMARK    3  A    between atoms: C_2  and  C_16
REMARK    4  A    between atoms: C_4  and  C_6
REMARK    5  A    between atoms: C_19  and  C_20
REMARK    6  A    between atoms: C_20  and  N_21
REMARK    7  A    between atoms: C_22  and  C_24
REMARK                            x       y       z     vdW  Elec       q    Type
REMARK                         _______ _______ _______ _____ _____    ______ ____
ROOT
ATOM      1  C   UNL     1      47.513   4.553  15.640  0.00  0.00    +0.000 C 
ATOM      2  C   UNL     1      47.131   5.696  14.691  0.00  0.00    +0.000 C 
ENDROOT
BRANCH   2   3
ATOM      3  C   UNL     1      46.257   5.173  13.557  0.00  0.00    +0.000 A 
ATOM      4  C   UNL     1      45.524   6.052  12.751  0.00  0.00    +0.000 A 
ATOM      5  C   UNL     1      44.767   5.571  11.676  0.00  0.00    +0.000 A 
ATOM      6  C   UNL     1      44.720   4.201  11.388  0.00  0.00    +0.000 A 
ATOM      7  C   UNL     1      45.448   3.319  12.195  0.00  0.00    +0.000 A 
ATOM      8  C   UNL     1      46.202   3.798  13.269  0.00  0.00    +0.000 A 
BRANCH   6   9
ATOM      9  C   UNL     1      43.928   3.682  10.219  0.00  0.00    +0.000 C 
BRANCH   9  10
ATOM     10  N   UNL     1      44.765   3.035   9.243  0.00  0.00    +0.000 N 
ATOM     11  C   UNL     1      45.566   3.758   8.390  0.00  0.00    +0.000 C 
ATOM     12  O   UNL     1      45.605   4.986   8.392  0.00  0.00    +0.000 OA
ATOM     13  H   UNL     1      44.795   2.023   9.165  0.00  0.00    +0.000 HD
BRANCH  11  14
ATOM     14  C   UNL     1      46.365   2.948   7.493  0.00  0.00    +0.000 A 
ATOM     15  N   UNL     1      46.691   1.678   7.687  0.00  0.00    +0.000 NA
ATOM     16  C   UNL     1      47.460   1.330   6.605  0.00  0.00    +0.000 A 
ATOM     17  C   UNL     1      47.600   2.389   5.739  0.00  0.00    +0.000 A 
ATOM     18  N   UNL     1      46.897   3.411   6.314  0.00  0.00    +0.000 N 
ATOM     19  H   UNL     1      46.779   4.352   5.965  0.00  0.00    +0.000 HD
ENDBRANCH  11  14
ENDBRANCH   9  10
ENDBRANCH   6   9
ENDBRANCH   2   3
BRANCH   2  20
ATOM     20  N   UNL     1      48.290   6.367  14.117  0.00  0.00    +0.000 N 
ATOM     21  C   UNL     1      48.392   7.729  13.992  0.00  0.00    +0.000 C 
ATOM     22  O   UNL     1      47.534   8.501  14.407  0.00  0.00    +0.000 OA
ATOM     23  H   UNL     1      48.858   5.798  13.497  0.00  0.00    +0.000 HD
BRANCH  21  24
ATOM     24  C   UNL     1      49.634   8.231  13.392  0.00  0.00    +0.000 A 
ATOM     25  C   UNL     1      49.585   8.918  12.186  0.00  0.00    +0.000 A 
ATOM     26  S   UNL     1      51.111   9.442  11.635  0.00  0.00    +0.000 S 
ATOM     27  C   UNL     1      51.896   8.729  12.965  0.00  0.00    +0.000 A 
ATOM     28  N   UNL     1      53.251   8.773  13.086  0.00  0.00    +0.000 NA
ATOM     29  C   UNL     1      53.713   8.159  14.124  0.00  0.00    +0.000 A 
ATOM     30  N   UNL     1      52.944   7.517  15.059  0.00  0.00    +0.000 N 
ATOM     31  C   UNL     1      51.571   7.485  15.002  0.00  0.00    +0.000 A 
ATOM     32  O   UNL     1      50.902   6.966  15.890  0.00  0.00    +0.000 OA
ATOM     33  C   UNL     1      51.002   8.130  13.835  0.00  0.00    +0.000 A 
ATOM     34  H   UNL     1      53.368   7.074  15.861  0.00  0.00    +0.000 HD
ENDBRANCH  21  24
ENDBRANCH   2  20
TORSDOF 6
ENDMDL
MODEL 6
REMARK VINA RESULT:    -6.751      1.576      2.130
REMARK INTER + INTRA:         -10.176
REMARK INTER:                  -8.877
REMARK INTRA:                  -1.298
REMARK UNBOUND:                -1.057
REMARK  Name = 
REMARK  7 active torsions:
REMARK  status: ('A' for Active; 'I' for Inactive)
REMARK    1  A    between atoms: C_1  and  C_2
REMARK    2  A    between atoms: C_2  and  N_3
REMARK    3  A    between atoms: C_2  and  C_16
REMARK    4  A    between atoms: C_4  and  C_6
REMARK    5  A    between atoms: C_19  and  C_20
REMARK    6  A    between atoms: C_20  and  N_21
REMARK    7  A    between atoms: C_22  and  C_24
REMARK                            x       y       z     vdW  Elec       q    Type
REMARK                         _______ _______ _______ _____ _____    ______ ____
ROOT
ATOM      1  C   UNL     1      48.784  10.317  14.764  0.00  0.00    +0.000 C 
ATOM      2  C   UNL     1      49.086   8.866  14.371  0.00  0.00    +0.000 C 
ENDROOT
BRANCH   2   3
ATOM      3  C   UNL     1      47.999   8.332  13.445  0.00  0.00    +0.000 A 
ATOM      4  C   UNL     1      48.243   7.235  12.610  0.00  0.00    +0.000 A 
ATOM      5  C   UNL     1      47.225   6.713  11.802  0.00  0.00    +0.000 A 
ATOM      6  C   UNL     1      45.944   7.280  11.807  0.00  0.00    +0.000 A 
ATOM      7  C   UNL     1      45.699   8.379  12.638  0.00  0.00    +0.000 A 
ATOM      8  C   UNL     1      46.714   8.902  13.442  0.00  0.00    +0.000 A 
BRANCH   6   9
ATOM      9  C   UNL     1      44.841   6.708  10.960  0.00  0.00    +0.000 C 
BRANCH   9  10
ATOM     10  N   UNL     1      45.294   5.608  10.151  0.00  0.00    +0.000 N 
ATOM     11  C   UNL     1      44.574   4.440  10.057  0.00  0.00    +0.000 C 
ATOM     12  O   UNL     1      43.523   4.253  10.663  0.00  0.00    +0.000 OA
ATOM     13  H   UNL     1      46.156   5.669   9.617  0.00  0.00    +0.000 HD
BRANCH  11  14
ATOM     14  C   UNL     1      45.159   3.449   9.176  0.00  0.00    +0.000 A 
ATOM     15  N   UNL     1      45.122   2.137   9.360  0.00  0.00    +0.000 NA
ATOM     16  C   UNL     1      45.811   1.601   8.302  0.00  0.00    +0.000 A 
ATOM     17  C   UNL     1      46.267   2.588   7.459  0.00  0.00    +0.000 A 
ATOM     18  N   UNL     1      45.844   3.758   8.025  0.00  0.00    +0.000 N 
ATOM     19  H   UNL     1      45.999   4.698   7.689  0.00  0.00    +0.000 HD
ENDBRANCH  11  14
ENDBRANCH   9  10
ENDBRANCH   6   9
ENDBRANCH   2   3
BRANCH   2  20
ATOM     20  N   UNL     1      49.199   7.978  15.522  0.00  0.00    +0.000 N 
ATOM     21  C   UNL     1      50.339   7.284  15.834  0.00  0.00    +0.000 C 
ATOM     22  O   UNL     1      51.382   7.397  15.198  0.00  0.00    +0.000 OA
ATOM     23  H   UNL     1      48.319   7.616  15.878  0.00  0.00    +0.000 HD
BRANCH  21  24
ATOM     24  C   UNL     1      50.272   6.438  17.031  0.00  0.00    +0.000 A 
ATOM     25  C   UNL     1      51.164   6.651  18.074  0.00  0.00    +0.000 A 
ATOM     26  S   UNL     1      50.942   5.592  19.391  0.00  0.00    +0.000 S 
ATOM     27  C   UNL     1      49.677   4.780  18.595  0.00  0.00    +0.000 A 
ATOM     28  N   UNL     1      49.059   3.712  19.168  0.00  0.00    +0.000 NA
ATOM     29  C   UNL     1      48.143   3.170  18.435  0.00  0.00    +0.000 A 
ATOM     30  N   UNL     1      47.780   3.608  17.189  0.00  0.00    +0.000 N 
ATOM     31  C   UNL     1      48.344   4.709  16.590  0.00  0.00    +0.000 A 
ATOM     32  O   UNL     1      47.950   5.123  15.504  0.00  0.00    +0.000 OA
ATOM     33  C   UNL     1      49.405   5.333  17.356  0.00  0.00    +0.000 A 
ATOM     34  H   UNL     1      47.038   3.152  16.676  0.00  0.00    +0.000 HD
ENDBRANCH  21  24
ENDBRANCH   2  20
TORSDOF 6
ENDMDL
MODEL 7
REMARK VINA RESULT:    -6.729      3.182      8.792
REMARK INTER + INTRA:         -10.145
REMARK INTER:                  -9.077
REMARK INTRA:                  -1.069
REMARK UNBOUND:                -1.057
REMARK  Name = 
REMARK  7 active torsions:
REMARK  status: ('A' for Active; 'I' for Inactive)
REMARK    1  A    between atoms: C_1  and  C_2
REMARK    2  A    between atoms: C_2  and  N_3
REMARK    3  A    between atoms: C_2  and  C_16
REMARK    4  A    between atoms: C_4  and  C_6
REMARK    5  A    between atoms: C_19  and  C_20
REMARK    6  A    between atoms: C_20  and  N_21
REMARK    7  A    between atoms: C_22  and  C_24
REMARK                            x       y       z     vdW  Elec       q    Type
REMARK                         _______ _______ _______ _____ _____    ______ ____
ROOT
ATOM      1  C   UNL     1      48.721   7.771  11.697  0.00  0.00    +0.000 C 
ATOM      2  C   UNL     1      47.570   7.420  12.649  0.00  0.00    +0.000 C 
ENDROOT
BRANCH   2   3
ATOM      3  C   UNL     1      48.105   7.151  14.050  0.00  0.00    +0.000 A 
ATOM      4  C   UNL     1      47.862   5.929  14.689  0.00  0.00    +0.000 A 
ATOM      5  C   UNL     1      48.403   5.665  15.953  0.00  0.00    +0.000 A 
ATOM      6  C   UNL     1      49.193   6.619  16.609  0.00  0.00    +0.000 A 
ATOM      7  C   UNL     1      49.434   7.842  15.974  0.00  0.00    +0.000 A 
ATOM      8  C   UNL     1      48.893   8.107  14.714  0.00  0.00    +0.000 A 
BRANCH   6   9
ATOM      9  C   UNL     1      49.797   6.331  17.956  0.00  0.00    +0.000 C 
BRANCH   9  10
ATOM     10  N   UNL     1      50.321   4.993  18.039  0.00  0.00    +0.000 N 
ATOM     11  C   UNL     1      51.559   4.672  17.534  0.00  0.00    +0.000 C 
ATOM     12  O   UNL     1      52.281   5.489  16.968  0.00  0.00    +0.000 OA
ATOM     13  H   UNL     1      49.792   4.249  18.486  0.00  0.00    +0.000 HD
BRANCH  11  14
ATOM     14  C   UNL     1      51.942   3.289  17.731  0.00  0.00    +0.000 A 
ATOM     15  N   UNL     1      53.108   2.873  18.204  0.00  0.00    +0.000 NA
ATOM     16  C   UNL     1      53.035   1.503  18.199  0.00  0.00    +0.000 A 
ATOM     17  C   UNL     1      51.815   1.075  17.729  0.00  0.00    +0.000 A 
ATOM     18  N   UNL     1      51.129   2.221  17.436  0.00  0.00    +0.000 N 
ATOM     19  H   UNL     1      50.195   2.302  17.060  0.00  0.00    +0.000 HD
ENDBRANCH  11  14
ENDBRANCH   9  10
ENDBRANCH   6   9
ENDBRANCH   2   3
BRANCH   2  20
ATOM     20  N   UNL     1      46.804   6.261  12.209  0.00  0.00    +0.000 N 
ATOM     21  C   UNL     1      45.447   6.278  12.017  0.00  0.00    +0.000 C 
ATOM     22  O   UNL     1      44.769   7.292  12.147  0.00  0.00    +0.000 OA
ATOM     23  H   UNL     1      47.239   5.360  12.387  0.00  0.00    +0.000 HD
BRANCH  21  24
ATOM     24  C   UNL     1      44.842   5.017  11.570  0.00  0.00    +0.000 A 
ATOM     25  C   UNL     1      44.061   4.280  12.450  0.00  0.00    +0.000 A 
ATOM     26  S   UNL     1      43.426   2.852  11.769  0.00  0.00    +0.000 S 
ATOM     27  C   UNL     1      44.210   3.145  10.288  0.00  0.00    +0.000 A 
ATOM     28  N   UNL     1      44.115   2.262   9.258  0.00  0.00    +0.000 NA
ATOM     29  C   UNL     1      44.791   2.593   8.208  0.00  0.00    +0.000 A 
ATOM     30  N   UNL     1      45.541   3.733   8.090  0.00  0.00    +0.000 N 
ATOM     31  C   UNL     1      45.630   4.675   9.087  0.00  0.00    +0.000 A 
ATOM     32  O   UNL     1      46.249   5.723   8.929  0.00  0.00    +0.000 OA
ATOM     33  C   UNL     1      44.918   4.334  10.303  0.00  0.00    +0.000 A 
ATOM     34  H   UNL     1      46.029   3.945   7.232  0.00  0.00    +0.000 HD
ENDBRANCH  21  24
ENDBRANCH   2  20
TORSDOF 6
ENDMDL
MODEL 8
REMARK VINA RESULT:    -6.611      3.639      5.283
REMARK INTER + INTRA:          -9.986
REMARK INTER:                  -8.624
REMARK INTRA:                  -1.362
REMARK UNBOUND:                -1.057
REMARK  Name = 
REMARK  7 active torsions:
REMARK  status: ('A' for Active; 'I' for Inactive)
REMARK    1  A    between atoms: C_1  and  C_2
REMARK    2  A    between atoms: C_2  and  N_3
REMARK    3  A    between atoms: C_2  and  C_16
REMARK    4  A    between atoms: C_4  and  C_6
REMARK    5  A    between atoms: C_19  and  C_20
REMARK    6  A    between atoms: C_20  and  N_21
REMARK    7  A    between atoms: C_22  and  C_24
REMARK                            x       y       z     vdW  Elec       q    Type
REMARK                         _______ _______ _______ _____ _____    ______ ____
ROOT
ATOM      1  C   UNL     1      48.767   6.168  16.018  0.00  0.00    +0.000 C 
ATOM      2  C   UNL     1      48.737   7.230  14.913  0.00  0.00    +0.000 C 
ENDROOT
BRANCH   2   3
ATOM      3  C   UNL     1      47.685   6.877  13.868  0.00  0.00    +0.000 A 
ATOM      4  C   UNL     1      47.202   7.845  12.979  0.00  0.00    +0.000 A 
ATOM      5  C   UNL     1      46.277   7.502  11.985  0.00  0.00    +0.000 A 
ATOM      6  C   UNL     1      45.810   6.187  11.863  0.00  0.00    +0.000 A 
ATOM      7  C   UNL     1      46.287   5.218  12.753  0.00  0.00    +0.000 A 
ATOM      8  C   UNL     1      47.209   5.560  13.746  0.00  0.00    +0.000 A 
BRANCH   6   9
ATOM      9  C   UNL     1      44.836   5.808  10.781  0.00  0.00    +0.000 C 
BRANCH   9  10
ATOM     10  N   UNL     1      45.476   5.121   9.692  0.00  0.00    +0.000 N 
ATOM     11  C   UNL     1      45.086   3.859   9.309  0.00  0.00    +0.000 C 
ATOM     12  O   UNL     1      44.192   3.236   9.875  0.00  0.00    +0.000 OA
ATOM     13  H   UNL     1      46.230   5.555   9.167  0.00  0.00    +0.000 HD
BRANCH  11  14
ATOM     14  C   UNL     1      45.817   3.328   8.175  0.00  0.00    +0.000 A 
ATOM     15  N   UNL     1      46.182   4.016   7.103  0.00  0.00    +0.000 NA
ATOM     16  C   UNL     1      46.824   3.115   6.293  0.00  0.00    +0.000 A 
ATOM     17  C   UNL     1      46.862   1.869   6.874  0.00  0.00    +0.000 A 
ATOM     18  N   UNL     1      46.220   2.018   8.071  0.00  0.00    +0.000 N 
ATOM     19  H   UNL     1      46.047   1.311   8.771  0.00  0.00    +0.000 HD
ENDBRANCH  11  14
ENDBRANCH   9  10
ENDBRANCH   6   9
ENDBRANCH   2   3
BRANCH   2  20
ATOM     20  N   UNL     1      50.023   7.392  14.246  0.00  0.00    +0.000 N 
ATOM     21  C   UNL     1      50.681   8.592  14.151  0.00  0.00    +0.000 C 
ATOM     22  O   UNL     1      50.265   9.622  14.669  0.00  0.00    +0.000 OA
ATOM     23  H   UNL     1      50.247   6.680  13.558  0.00  0.00    +0.000 HD
BRANCH  21  24
ATOM     24  C   UNL     1      51.967   8.567  13.444  0.00  0.00    +0.000 A 
ATOM     25  C   UNL     1      53.127   8.927  14.118  0.00  0.00    +0.000 A 
ATOM     26  S   UNL     1      54.533   8.832  13.157  0.00  0.00    +0.000 S 
ATOM     27  C   UNL     1      53.635   8.351  11.795  0.00  0.00    +0.000 A 
ATOM     28  N   UNL     1      54.241   8.138  10.595  0.00  0.00    +0.000 NA
ATOM     29  C   UNL     1      53.433   7.815   9.641  0.00  0.00    +0.000 A 
ATOM     30  N   UNL     1      52.078   7.671   9.779  0.00  0.00    +0.000 N 
ATOM     31  C   UNL     1      51.429   7.831  10.981  0.00  0.00    +0.000 A 
ATOM     32  O   UNL     1      50.224   7.625  11.094  0.00  0.00    +0.000 OA
ATOM     33  C   UNL     1      52.286   8.231  12.079  0.00  0.00    +0.000 A 
ATOM     34  H   UNL     1      51.504   7.393   8.996  0.00  0.00    +0.000 HD
ENDBRANCH  21  24
ENDBRANCH   2  20
TORSDOF 6
ENDMDL
MODEL 9
REMARK VINA RESULT:    -6.569      3.979      5.361
REMARK INTER + INTRA:          -9.930
REMARK INTER:                  -8.817
REMARK INTRA:                  -1.113
REMARK UNBOUND:                -1.057
REMARK  Name = 
REMARK  7 active torsions:
REMARK  status: ('A' for Active; 'I' for Inactive)
REMARK    1  A    between atoms: C_1  and  C_2
REMARK    2  A    between atoms: C_2  and  N_3
REMARK    3  A    between atoms: C_2  and  C_16
REMARK    4  A    between atoms: C_4  and  C_6
REMARK    5  A    between atoms: C_19  and  C_20
REMARK    6  A    between atoms: C_20  and  N_21
REMARK    7  A    between atoms: C_22  and  C_24
REMARK                            x       y       z     vdW  Elec       q    Type
REMARK                         _______ _______ _______ _____ _____    ______ ____
ROOT
ATOM      1  C   UNL     1      48.407   3.025  18.500  0.00  0.00    +0.000 C 
ATOM      2  C   UNL     1      49.277   4.181  17.992  0.00  0.00    +0.000 C 
ENDROOT
BRANCH   2   3
ATOM      3  C   UNL     1      48.641   4.821  16.763  0.00  0.00    +0.000 A 
ATOM      4  C   UNL     1      49.092   6.056  16.283  0.00  0.00    +0.000 A 
ATOM      5  C   UNL     1      48.542   6.613  15.121  0.00  0.00    +0.000 A 
ATOM      6  C   UNL     1      47.526   5.951  14.420  0.00  0.00    +0.000 A 
ATOM      7  C   UNL     1      47.071   4.718  14.900  0.00  0.00    +0.000 A 
ATOM      8  C   UNL     1      47.617   4.163  16.060  0.00  0.00    +0.000 A 
BRANCH   6   9
ATOM      9  C   UNL     1      46.950   6.533  13.158  0.00  0.00    +0.000 C 
BRANCH   9  10
ATOM     10  N   UNL     1      46.404   5.520  12.295  0.00  0.00    +0.000 N 
ATOM     11  C   UNL     1      45.552   5.836  11.263  0.00  0.00    +0.000 C 
ATOM     12  O   UNL     1      45.190   6.986  11.025  0.00  0.00    +0.000 OA
ATOM     13  H   UNL     1      46.643   4.540  12.418  0.00  0.00    +0.000 HD
BRANCH  11  14
ATOM     14  C   UNL     1      45.121   4.698  10.475  0.00  0.00    +0.000 A 
ATOM     15  N   UNL     1      44.908   3.476  10.941  0.00  0.00    +0.000 NA
ATOM     16  C   UNL     1      44.537   2.731   9.851  0.00  0.00    +0.000 A 
ATOM     17  C   UNL     1      44.514   3.500   8.712  0.00  0.00    +0.000 A 
ATOM     18  N   UNL     1      44.886   4.750   9.123  0.00  0.00    +0.000 N 
ATOM     19  H   UNL     1      44.988   5.581   8.557  0.00  0.00    +0.000 HD
ENDBRANCH  11  14
ENDBRANCH   9  10
ENDBRANCH   6   9
ENDBRANCH   2   3
BRANCH   2  20
ATOM     20  N   UNL     1      50.632   3.765  17.654  0.00  0.00    +0.000 N 
ATOM     21  C   UNL     1      51.714   3.974  18.471  0.00  0.00    +0.000 C 
ATOM     22  O   UNL     1      51.620   4.481  19.584  0.00  0.00    +0.000 OA
ATOM     23  H   UNL     1      50.814   3.638  16.663  0.00  0.00    +0.000 HD
BRANCH  21  24
ATOM     24  C   UNL     1      53.005   3.486  17.970  0.00  0.00    +0.000 A 
ATOM     25  C   UNL     1      54.043   4.383  17.759  0.00  0.00    +0.000 A 
ATOM     26  S   UNL     1      55.474   3.652  17.188  0.00  0.00    +0.000 S 
ATOM     27  C   UNL     1      54.742   2.117  17.159  0.00  0.00    +0.000 A 
ATOM     28  N   UNL     1      55.422   1.024  16.719  0.00  0.00    +0.000 NA
ATOM     29  C   UNL     1      54.731  -0.068  16.716  0.00  0.00    +0.000 A 
ATOM     30  N   UNL     1      53.428  -0.169  17.127  0.00  0.00    +0.000 N 
ATOM     31  C   UNL     1      52.716   0.898  17.622  0.00  0.00    +0.000 A 
ATOM     32  O   UNL     1      51.575   0.766  18.051  0.00  0.00    +0.000 OA
ATOM     33  C   UNL     1      53.435   2.157  17.612  0.00  0.00    +0.000 A 
ATOM     34  H   UNL     1      52.951  -1.059  17.120  0.00  0.00    +0.000 HD
ENDBRANCH  21  24
ENDBRANCH   2  20
TORSDOF 6
ENDMDL
