MODEL 1
REMARK VINA RESULT:    -8.334      0.000      0.000
REMARK INTER + INTRA:         -12.156
REMARK INTER:                 -11.258
REMARK INTRA:                  -0.899
REMARK UNBOUND:                -0.899
REMARK  Name = 
REMARK  6 active torsions:
REMARK  status: ('A' for Active; 'I' for Inactive)
REMARK    1  A    between atoms: C_2  and  C_25
REMARK    2  A    between atoms: N_3  and  C_4
REMARK    3  A    between atoms: C_4  and  C_5
REMARK    4  A    between atoms: C_8  and  C_9
REMARK    5  A    between atoms: C_9  and  N_10
REMARK    6  A    between atoms: C_11  and  C_13
REMARK                            x       y       z     vdW  Elec       q    Type
REMARK                         _______ _______ _______ _____ _____    ______ ____
ROOT
ATOM      1  C   UNL     1      44.979   4.659  12.273  0.00  0.00    +0.000 A 
ATOM      2  C   UNL     1      44.505   5.963  12.145  0.00  0.00    +0.000 A 
ATOM      3  C   UNL     1      45.275   7.017  12.639  0.00  0.00    +0.000 A 
ATOM      4  C   UNL     1      46.489   6.754  13.274  0.00  0.00    +0.000 A 
ATOM      5  C   UNL     1      46.884   5.422  13.354  0.00  0.00    +0.000 A 
ATOM      6  N   UNL     1      46.159   4.378  12.881  0.00  0.00    +0.000 NA
ENDROOT
BRANCH   1   7
ATOM      7  C   UNL     1      44.184   3.505  11.706  0.00  0.00    +0.000 C 
BRANCH   7  10
ATOM      8  O   UNL     1      44.092   4.331   9.032  0.00  0.00    +0.000 OA
ATOM      9  C   UNL     1      44.791   3.368   9.329  0.00  0.00    +0.000 C 
ATOM     10  N   UNL     1      44.845   2.840  10.603  0.00  0.00    +0.000 N 
ATOM     11  H   UNL     1      45.569   2.153  10.794  0.00  0.00    +0.000 HD
BRANCH   9  12
ATOM     12  C   UNL     1      45.647   2.698   8.297  0.00  0.00    +0.000 A 
ATOM     13  C   UNL     1      45.984   3.398   7.143  0.00  0.00    +0.000 A 
ATOM     14  C   UNL     1      46.758   2.757   6.181  0.00  0.00    +0.000 A 
ATOM     15  C   UNL     1      47.166   1.448   6.403  0.00  0.00    +0.000 A 
ATOM     16  C   UNL     1      46.788   0.828   7.588  0.00  0.00    +0.000 A 
ATOM     17  N   UNL     1      46.041   1.419   8.549  0.00  0.00    +0.000 NA
ENDBRANCH   9  12
ENDBRANCH   7  10
ENDBRANCH   1   7
BRANCH   4  18
ATOM     18  C   UNL     1      47.359   7.857  13.805  0.00  0.00    +0.000 C 
BRANCH  18  19
ATOM     19  N   UNL     1      47.883   7.523  15.105  0.00  0.00    +0.000 N 
ATOM     20  C   UNL     1      49.180   7.105  15.277  0.00  0.00    +0.000 C 
ATOM     21  O   UNL     1      49.976   7.040  14.344  0.00  0.00    +0.000 OA
ATOM     22  H   UNL     1      47.205   7.321  15.829  0.00  0.00    +0.000 HD
BRANCH  20  23
ATOM     23  C   UNL     1      49.584   6.801  16.657  0.00  0.00    +0.000 A 
ATOM     24  C   UNL     1      50.585   7.542  17.268  0.00  0.00    +0.000 A 
ATOM     25  S   UNL     1      50.868   7.100  18.892  0.00  0.00    +0.000 S 
ATOM     26  C   UNL     1      49.701   5.864  18.817  0.00  0.00    +0.000 A 
ATOM     27  N   UNL     1      49.449   5.070  19.893  0.00  0.00    +0.000 NA
ATOM     28  C   UNL     1      48.560   4.156  19.685  0.00  0.00    +0.000 A 
ATOM     29  N   UNL     1      47.901   3.962  18.500  0.00  0.00    +0.000 N 
ATOM     30  C   UNL     1      48.106   4.754  17.396  0.00  0.00    +0.000 A 
ATOM     31  O   UNL     1      47.475   4.574  16.359  0.00  0.00    +0.000 OA
ATOM     32  C   UNL     1      49.097   5.798  17.575  0.00  0.00    +0.000 A 
ATOM     33  H   UNL     1      47.213   3.231  18.403  0.00  0.00    +0.000 HD
ENDBRANCH  20  23
ENDBRANCH  18  19
ENDBRANCH   4  18
TORSDOF 6
ENDMDL
MODEL 2
REMARK VINA RESULT:    -7.616      2.920      4.291
REMARK INTER + INTRA:         -11.186
REMARK INTER:                 -10.105
REMARK INTRA:                  -1.081
REMARK UNBOUND:                -0.899
REMARK  Name = 
REMARK  6 active torsions:
REMARK  status: ('A' for Active; 'I' for Inactive)
REMARK    1  A    between atoms: C_2  and  C_25
REMARK    2  A    between atoms: N_3  and  C_4
REMARK    3  A    between atoms: C_4  and  C_5
REMARK    4  A    between atoms: C_8  and  C_9
REMARK    5  A    between atoms: C_9  and  N_10
REMARK    6  A    between atoms: C_11  and  C_13
REMARK                            x       y       z     vdW  Elec       q    Type
REMARK                         _______ _______ _______ _____ _____    ______ ____
ROOT
ATOM      1  C   UNL     1      45.008   3.768  12.303  0.00  0.00    +0.000 A 
ATOM      2  C   UNL     1      44.825   5.142  12.444  0.00  0.00    +0.000 A 
ATOM      3  C   UNL     1      45.690   5.862  13.267  0.00  0.00    +0.000 A 
ATOM      4  C   UNL     1      46.706   5.200  13.957  0.00  0.00    +0.000 A 
ATOM      5  C   UNL     1      46.816   3.828  13.755  0.00  0.00    +0.000 A 
ATOM      6  N   UNL     1      45.993   3.102  12.959  0.00  0.00    +0.000 NA
ENDROOT
BRANCH   1   7
ATOM      7  C   UNL     1      44.112   2.974  11.381  0.00  0.00    +0.000 C 
BRANCH   7  10
ATOM      8  O   UNL     1      44.521   4.362   8.984  0.00  0.00    +0.000 OA
ATOM      9  C   UNL     1      45.008   3.244   9.109  0.00  0.00    +0.000 C 
ATOM     10  N   UNL     1      44.801   2.451  10.219  0.00  0.00    +0.000 N 
ATOM     11  H   UNL     1      45.371   1.615  10.310  0.00  0.00    +0.000 HD
BRANCH   9  12
ATOM     12  C   UNL     1      45.877   2.664   8.034  0.00  0.00    +0.000 A 
ATOM     13  C   UNL     1      46.127   3.417   6.891  0.00  0.00    +0.000 A 
ATOM     14  C   UNL     1      46.915   2.858   5.888  0.00  0.00    +0.000 A 
ATOM     15  C   UNL     1      47.421   1.576   6.062  0.00  0.00    +0.000 A 
ATOM     16  C   UNL     1      47.126   0.900   7.239  0.00  0.00    +0.000 A 
ATOM     17  N   UNL     1      46.369   1.410   8.238  0.00  0.00    +0.000 NA
ENDBRANCH   9  12
ENDBRANCH   7  10
ENDBRANCH   1   7
BRANCH   4  18
ATOM     18  C   UNL     1      47.671   5.936  14.842  0.00  0.00    +0.000 C 
BRANCH  18  19
ATOM     19  N   UNL     1      48.632   6.672  14.060  0.00  0.00    +0.000 N 
ATOM     20  C   UNL     1      48.593   8.041  13.965  0.00  0.00    +0.000 C 
ATOM     21  O   UNL     1      47.770   8.717  14.579  0.00  0.00    +0.000 OA
ATOM     22  H   UNL     1      49.142   6.149  13.358  0.00  0.00    +0.000 HD
BRANCH  20  23
ATOM     23  C   UNL     1      49.637   8.663  13.138  0.00  0.00    +0.000 A 
ATOM     24  C   UNL     1      49.298   9.300  11.954  0.00  0.00    +0.000 A 
ATOM     25  S   UNL     1      50.626  10.029  11.165  0.00  0.00    +0.000 S 
ATOM     26  C   UNL     1      51.709   9.467  12.352  0.00  0.00    +0.000 A 
ATOM     27  N   UNL     1      53.041   9.732  12.269  0.00  0.00    +0.000 NA
ATOM     28  C   UNL     1      53.747   9.220  13.221  0.00  0.00    +0.000 A 
ATOM     29  N   UNL     1      53.245   8.466  14.248  0.00  0.00    +0.000 N 
ATOM     30  C   UNL     1      51.905   8.192  14.385  0.00  0.00    +0.000 A 
ATOM     31  O   UNL     1      51.483   7.541  15.335  0.00  0.00    +0.000 OA
ATOM     32  C   UNL     1      51.065   8.745  13.339  0.00  0.00    +0.000 A 
ATOM     33  H   UNL     1      53.850   8.097  14.965  0.00  0.00    +0.000 HD
ENDBRANCH  20  23
ENDBRANCH  18  19
ENDBRANCH   4  18
TORSDOF 6
ENDMDL
MODEL 3
REMARK VINA RESULT:    -7.386      1.764      2.108
REMARK INTER + INTRA:         -10.875
REMARK INTER:                  -9.838
REMARK INTRA:                  -1.037
REMARK UNBOUND:                -0.899
REMARK  Name = 
REMARK  6 active torsions:
REMARK  status: ('A' for Active; 'I' for Inactive)
REMARK    1  A    between atoms: C_2  and  C_25
REMARK    2  A    between atoms: N_3  and  C_4
REMARK    3  A    between atoms: C_4  and  C_5
REMARK    4  A    between atoms: C_8  and  C_9
REMARK    5  A    between atoms: C_9  and  N_10
REMARK    6  A    between atoms: C_11  and  C_13
REMARK                            x       y       z     vdW  Elec       q    Type
REMARK                         _______ _______ _______ _____ _____    ______ ____
ROOT
ATOM      1  C   UNL     1      45.549   6.744  11.649  0.00  0.00    +0.000 A 
ATOM      2  C   UNL     1      46.691   6.107  12.130  0.00  0.00    +0.000 A 
ATOM      3  C   UNL     1      47.461   6.740  13.106  0.00  0.00    +0.000 A 
ATOM      4  C   UNL     1      47.098   8.005  13.567  0.00  0.00    +0.000 A 
ATOM      5  C   UNL     1      45.941   8.564  13.033  0.00  0.00    +0.000 A 
ATOM      6  N   UNL     1      45.171   7.972  12.086  0.00  0.00    +0.000 NA
ENDROOT
BRANCH   1   7
ATOM      7  C   UNL     1      44.674   6.058  10.625  0.00  0.00    +0.000 C 
BRANCH   7  10
ATOM      8  O   UNL     1      43.958   3.450   9.899  0.00  0.00    +0.000 OA
ATOM      9  C   UNL     1      44.938   3.963   9.369  0.00  0.00    +0.000 C 
ATOM     10  N   UNL     1      45.414   5.212   9.712  0.00  0.00    +0.000 N 
ATOM     11  H   UNL     1      46.124   5.623   9.113  0.00  0.00    +0.000 HD
BRANCH   9  12
ATOM     12  C   UNL     1      45.689   3.241   8.291  0.00  0.00    +0.000 A 
ATOM     13  C   UNL     1      46.013   1.901   8.479  0.00  0.00    +0.000 A 
ATOM     14  C   UNL     1      46.733   1.247   7.482  0.00  0.00    +0.000 A 
ATOM     15  C   UNL     1      47.100   1.950   6.342  0.00  0.00    +0.000 A 
ATOM     16  C   UNL     1      46.727   3.284   6.237  0.00  0.00    +0.000 A 
ATOM     17  N   UNL     1      46.024   3.953   7.180  0.00  0.00    +0.000 NA
ENDBRANCH   9  12
ENDBRANCH   7  10
ENDBRANCH   1   7
BRANCH   4  18
ATOM     18  C   UNL     1      47.887   8.717  14.629  0.00  0.00    +0.000 C 
BRANCH  18  19
ATOM     19  N   UNL     1      48.775   7.810  15.310  0.00  0.00    +0.000 N 
ATOM     20  C   UNL     1      48.891   7.799  16.678  0.00  0.00    +0.000 C 
ATOM     21  O   UNL     1      48.209   8.525  17.398  0.00  0.00    +0.000 OA
ATOM     22  H   UNL     1      49.516   7.398  14.754  0.00  0.00    +0.000 HD
BRANCH  20  23
ATOM     23  C   UNL     1      49.831   6.820  17.241  0.00  0.00    +0.000 A 
ATOM     24  C   UNL     1      50.997   7.249  17.856  0.00  0.00    +0.000 A 
ATOM     25  S   UNL     1      51.929   5.980  18.517  0.00  0.00    +0.000 S 
ATOM     26  C   UNL     1      50.832   4.807  17.951  0.00  0.00    +0.000 A 
ATOM     27  N   UNL     1      51.048   3.482  18.169  0.00  0.00    +0.000 NA
ATOM     28  C   UNL     1      50.151   2.705  17.660  0.00  0.00    +0.000 A 
ATOM     29  N   UNL     1      49.059   3.131  16.952  0.00  0.00    +0.000 N 
ATOM     30  C   UNL     1      48.788   4.460  16.728  0.00  0.00    +0.000 A 
ATOM     31  O   UNL     1      47.783   4.809  16.118  0.00  0.00    +0.000 OA
ATOM     32  C   UNL     1      49.767   5.377  17.279  0.00  0.00    +0.000 A 
ATOM     33  H   UNL     1      48.390   2.472  16.583  0.00  0.00    +0.000 HD
ENDBRANCH  20  23
ENDBRANCH  18  19
ENDBRANCH   4  18
TORSDOF 6
ENDMDL
MODEL 4
REMARK VINA RESULT:    -7.379      3.263      9.005
REMARK INTER + INTRA:         -10.865
REMARK INTER:                  -9.957
REMARK INTRA:                  -0.909
REMARK UNBOUND:                -0.899
REMARK  Name = 
REMARK  6 active torsions:
REMARK  status: ('A' for Active; 'I' for Inactive)
REMARK    1  A    between atoms: C_2  and  C_25
REMARK    2  A    between atoms: N_3  and  C_4
REMARK    3  A    between atoms: C_4  and  C_5
REMARK    4  A    between atoms: C_8  and  C_9
REMARK    5  A    between atoms: C_9  and  N_10
REMARK    6  A    between atoms: C_11  and  C_13
REMARK                            x       y       z     vdW  Elec       q    Type
REMARK                         _______ _______ _______ _____ _____    ______ ____
ROOT
ATOM      1  C   UNL     1      50.043   7.466  15.267  0.00  0.00    +0.000 A 
ATOM      2  C   UNL     1      50.222   8.515  14.368  0.00  0.00    +0.000 A 
ATOM      3  C   UNL     1      49.348   8.641  13.288  0.00  0.00    +0.000 A 
ATOM      4  C   UNL     1      48.328   7.706  13.106  0.00  0.00    +0.000 A 
ATOM      5  C   UNL     1      48.222   6.695  14.055  0.00  0.00    +0.000 A 
ATOM      6  N   UNL     1      49.054   6.549  15.116  0.00  0.00    +0.000 NA
ENDROOT
BRANCH   1   7
ATOM      7  C   UNL     1      50.949   7.337  16.470  0.00  0.00    +0.000 C 
BRANCH   7  10
ATOM      8  O   UNL     1      50.038   5.582  18.453  0.00  0.00    +0.000 OA
ATOM      9  C   UNL     1      50.870   5.181  17.646  0.00  0.00    +0.000 C 
ATOM     10  N   UNL     1      51.434   5.989  16.681  0.00  0.00    +0.000 N 
ATOM     11  H   UNL     1      51.986   5.537  15.957  0.00  0.00    +0.000 HD
BRANCH   9  12
ATOM     12  C   UNL     1      51.329   3.754  17.666  0.00  0.00    +0.000 A 
ATOM     13  C   UNL     1      52.567   3.453  18.227  0.00  0.00    +0.000 A 
ATOM     14  C   UNL     1      52.994   2.128  18.218  0.00  0.00    +0.000 A 
ATOM     15  C   UNL     1      52.175   1.158  17.654  0.00  0.00    +0.000 A 
ATOM     16  C   UNL     1      50.952   1.548  17.124  0.00  0.00    +0.000 A 
ATOM     17  N   UNL     1      50.499   2.824  17.118  0.00  0.00    +0.000 NA
ENDBRANCH   9  12
ENDBRANCH   7  10
ENDBRANCH   1   7
BRANCH   4  18
ATOM     18  C   UNL     1      47.354   7.811  11.968  0.00  0.00    +0.000 C 
BRANCH  18  19
ATOM     19  N   UNL     1      46.696   6.551  11.731  0.00  0.00    +0.000 N 
ATOM     20  C   UNL     1      45.329   6.451  11.653  0.00  0.00    +0.000 C 
ATOM     21  O   UNL     1      44.595   7.434  11.730  0.00  0.00    +0.000 OA
ATOM     22  H   UNL     1      47.236   5.715  11.918  0.00  0.00    +0.000 HD
BRANCH  20  23
ATOM     23  C   UNL     1      44.791   5.106  11.403  0.00  0.00    +0.000 A 
ATOM     24  C   UNL     1      44.075   4.449  12.392  0.00  0.00    +0.000 A 
ATOM     25  S   UNL     1      43.464   2.932  11.900  0.00  0.00    +0.000 S 
ATOM     26  C   UNL     1      44.186   3.077  10.366  0.00  0.00    +0.000 A 
ATOM     27  N   UNL     1      44.063   2.092   9.436  0.00  0.00    +0.000 NA
ATOM     28  C   UNL     1      44.686   2.323   8.328  0.00  0.00    +0.000 A 
ATOM     29  N   UNL     1      45.421   3.448   8.065  0.00  0.00    +0.000 N 
ATOM     30  C   UNL     1      45.553   4.479   8.965  0.00  0.00    +0.000 A 
ATOM     31  O   UNL     1      46.193   5.488   8.685  0.00  0.00    +0.000 OA
ATOM     32  C   UNL     1      44.873   4.270  10.229  0.00  0.00    +0.000 A 
ATOM     33  H   UNL     1      45.881   3.571   7.176  0.00  0.00    +0.000 HD
ENDBRANCH  20  23
ENDBRANCH  18  19
ENDBRANCH   4  18
TORSDOF 6
ENDMDL
MODEL 5
REMARK VINA RESULT:    -6.977      1.819      2.591
REMARK INTER + INTRA:         -10.323
REMARK INTER:                 -10.211
REMARK INTRA:                  -0.112
REMARK UNBOUND:                -0.899
REMARK  Name = 
REMARK  6 active torsions:
REMARK  status: ('A' for Active; 'I' for Inactive)
REMARK    1  A    between atoms: C_2  and  C_25
REMARK    2  A    between atoms: N_3  and  C_4
REMARK    3  A    between atoms: C_4  and  C_5
REMARK    4  A    between atoms: C_8  and  C_9
REMARK    5  A    between atoms: C_9  and  N_10
REMARK    6  A    between atoms: C_11  and  C_13
REMARK                            x       y       z     vdW  Elec       q    Type
REMARK                         _______ _______ _______ _____ _____    ______ ____
ROOT
ATOM      1  C   UNL     1      44.898   4.602  11.798  0.00  0.00    +0.000 A 
ATOM      2  C   UNL     1      45.415   5.560  10.928  0.00  0.00    +0.000 A 
ATOM      3  C   UNL     1      46.051   6.684  11.455  0.00  0.00    +0.000 A 
ATOM      4  C   UNL     1      46.138   6.850  12.837  0.00  0.00    +0.000 A 
ATOM      5  C   UNL     1      45.597   5.843  13.629  0.00  0.00    +0.000 A 
ATOM      6  N   UNL     1      44.976   4.738  13.146  0.00  0.00    +0.000 NA
ENDROOT
BRANCH   1   7
ATOM      7  C   UNL     1      44.246   3.353  11.250  0.00  0.00    +0.000 C 
BRANCH   7  10
ATOM      8  O   UNL     1      44.100   4.000   8.530  0.00  0.00    +0.000 OA
ATOM      9  C   UNL     1      44.915   3.160   8.894  0.00  0.00    +0.000 C 
ATOM     10  N   UNL     1      45.013   2.720  10.198  0.00  0.00    +0.000 N 
ATOM     11  H   UNL     1      45.819   2.150  10.440  0.00  0.00    +0.000 HD
BRANCH   9  12
ATOM     12  C   UNL     1      45.874   2.551   7.916  0.00  0.00    +0.000 A 
ATOM     13  C   UNL     1      46.240   3.281   6.789  0.00  0.00    +0.000 A 
ATOM     14  C   UNL     1      47.112   2.696   5.875  0.00  0.00    +0.000 A 
ATOM     15  C   UNL     1      47.584   1.412   6.117  0.00  0.00    +0.000 A 
ATOM     16  C   UNL     1      47.171   0.761   7.272  0.00  0.00    +0.000 A 
ATOM     17  N   UNL     1      46.329   1.297   8.187  0.00  0.00    +0.000 NA
ENDBRANCH   9  12
ENDBRANCH   7  10
ENDBRANCH   1   7
BRANCH   4  18
ATOM     18  C   UNL     1      46.827   8.036  13.449  0.00  0.00    +0.000 C 
BRANCH  18  19
ATOM     19  N   UNL     1      47.639   7.641  14.572  0.00  0.00    +0.000 N 
ATOM     20  C   UNL     1      48.807   6.936  14.409  0.00  0.00    +0.000 C 
ATOM     21  O   UNL     1      49.248   6.648  13.299  0.00  0.00    +0.000 OA
ATOM     22  H   UNL     1      47.188   7.633  15.478  0.00  0.00    +0.000 HD
BRANCH  20  23
ATOM     23  C   UNL     1      49.538   6.603  15.640  0.00  0.00    +0.000 A 
ATOM     24  C   UNL     1      48.923   5.856  16.633  0.00  0.00    +0.000 A 
ATOM     25  S   UNL     1      49.946   5.500  17.953  0.00  0.00    +0.000 S 
ATOM     26  C   UNL     1      51.230   6.382  17.267  0.00  0.00    +0.000 A 
ATOM     27  N   UNL     1      52.425   6.495  17.907  0.00  0.00    +0.000 NA
ATOM     28  C   UNL     1      53.298   7.217  17.284  0.00  0.00    +0.000 A 
ATOM     29  N   UNL     1      53.084   7.835  16.081  0.00  0.00    +0.000 N 
ATOM     30  C   UNL     1      51.902   7.729  15.388  0.00  0.00    +0.000 A 
ATOM     31  O   UNL     1      51.755   8.269  14.296  0.00  0.00    +0.000 OA
ATOM     32  C   UNL     1      50.886   6.929  16.045  0.00  0.00    +0.000 A 
ATOM     33  H   UNL     1      53.810   8.383  15.643  0.00  0.00    +0.000 HD
ENDBRANCH  20  23
ENDBRANCH  18  19
ENDBRANCH   4  18
TORSDOF 6
ENDMDL
MODEL 6
REMARK VINA RESULT:    -6.906      3.442      8.546
REMARK INTER + INTRA:         -10.227
REMARK INTER:                  -9.362
REMARK INTRA:                  -0.865
REMARK UNBOUND:                -0.899
REMARK  Name = 
REMARK  6 active torsions:
REMARK  status: ('A' for Active; 'I' for Inactive)
REMARK    1  A    between atoms: C_2  and  C_25
REMARK    2  A    between atoms: N_3  and  C_4
REMARK    3  A    between atoms: C_4  and  C_5
REMARK    4  A    between atoms: C_8  and  C_9
REMARK    5  A    between atoms: C_9  and  N_10
REMARK    6  A    between atoms: C_11  and  C_13
REMARK                            x       y       z     vdW  Elec       q    Type
REMARK                         _______ _______ _______ _____ _____    ______ ____
ROOT
ATOM      1  C   UNL     1      49.167   7.498  16.061  0.00  0.00    +0.000 A 
ATOM      2  C   UNL     1      48.617   8.745  15.771  0.00  0.00    +0.000 A 
ATOM      3  C   UNL     1      48.266   9.043  14.454  0.00  0.00    +0.000 A 
ATOM      4  C   UNL     1      48.492   8.106  13.445  0.00  0.00    +0.000 A 
ATOM      5  C   UNL     1      49.042   6.887  13.827  0.00  0.00    +0.000 A 
ATOM      6  N   UNL     1      49.390   6.568  15.099  0.00  0.00    +0.000 NA
ENDROOT
BRANCH   1   7
ATOM      7  C   UNL     1      49.512   7.136  17.488  0.00  0.00    +0.000 C 
BRANCH   7  10
ATOM      8  O   UNL     1      48.786   4.611  18.457  0.00  0.00    +0.000 OA
ATOM      9  C   UNL     1      49.920   4.772  18.021  0.00  0.00    +0.000 C 
ATOM     10  N   UNL     1      50.397   5.994  17.592  0.00  0.00    +0.000 N 
ATOM     11  H   UNL     1      51.285   6.002  17.098  0.00  0.00    +0.000 HD
BRANCH   9  12
ATOM     12  C   UNL     1      50.875   3.620  17.931  0.00  0.00    +0.000 A 
ATOM     13  C   UNL     1      50.442   2.431  17.351  0.00  0.00    +0.000 A 
ATOM     14  C   UNL     1      51.329   1.360  17.294  0.00  0.00    +0.000 A 
ATOM     15  C   UNL     1      52.608   1.513  17.815  0.00  0.00    +0.000 A 
ATOM     16  C   UNL     1      52.956   2.738  18.369  0.00  0.00    +0.000 A 
ATOM     17  N   UNL     1      52.125   3.804  18.439  0.00  0.00    +0.000 NA
ENDBRANCH   9  12
ENDBRANCH   7  10
ENDBRANCH   1   7
BRANCH   4  18
ATOM     18  C   UNL     1      48.115   8.376  12.017  0.00  0.00    +0.000 C 
BRANCH  18  19
ATOM     19  N   UNL     1      47.478   7.229  11.422  0.00  0.00    +0.000 N 
ATOM     20  C   UNL     1      46.114   7.072  11.429  0.00  0.00    +0.000 C 
ATOM     21  O   UNL     1      45.360   7.922  11.897  0.00  0.00    +0.000 OA
ATOM     22  H   UNL     1      48.062   6.415  11.269  0.00  0.00    +0.000 HD
BRANCH  20  23
ATOM     23  C   UNL     1      45.599   5.856  10.784  0.00  0.00    +0.000 A 
ATOM     24  C   UNL     1      45.879   5.605   9.450  0.00  0.00    +0.000 A 
ATOM     25  S   UNL     1      45.265   4.113   8.891  0.00  0.00    +0.000 S 
ATOM     26  C   UNL     1      44.553   3.778  10.401  0.00  0.00    +0.000 A 
ATOM     27  N   UNL     1      43.844   2.635  10.604  0.00  0.00    +0.000 NA
ATOM     28  C   UNL     1      43.336   2.526  11.787  0.00  0.00    +0.000 A 
ATOM     29  N   UNL     1      43.472   3.455  12.784  0.00  0.00    +0.000 N 
ATOM     30  C   UNL     1      44.198   4.611  12.631  0.00  0.00    +0.000 A 
ATOM     31  O   UNL     1      44.328   5.408  13.556  0.00  0.00    +0.000 OA
ATOM     32  C   UNL     1      44.791   4.785  11.318  0.00  0.00    +0.000 A 
ATOM     33  H   UNL     1      43.053   3.309  13.690  0.00  0.00    +0.000 HD
ENDBRANCH  20  23
ENDBRANCH  18  19
ENDBRANCH   4  18
TORSDOF 6
ENDMDL
MODEL 7
REMARK VINA RESULT:    -6.873      4.173      8.938
REMARK INTER + INTRA:         -10.183
REMARK INTER:                  -9.121
REMARK INTRA:                  -1.062
REMARK UNBOUND:                -0.899
REMARK  Name = 
REMARK  6 active torsions:
REMARK  status: ('A' for Active; 'I' for Inactive)
REMARK    1  A    between atoms: C_2  and  C_25
REMARK    2  A    between atoms: N_3  and  C_4
REMARK    3  A    between atoms: C_4  and  C_5
REMARK    4  A    between atoms: C_8  and  C_9
REMARK    5  A    between atoms: C_9  and  N_10
REMARK    6  A    between atoms: C_11  and  C_13
REMARK                            x       y       z     vdW  Elec       q    Type
REMARK                         _______ _______ _______ _____ _____    ______ ____
ROOT
ATOM      1  C   UNL     1      49.674   4.829  17.595  0.00  0.00    +0.000 A 
ATOM      2  C   UNL     1      48.488   4.477  16.954  0.00  0.00    +0.000 A 
ATOM      3  C   UNL     1      48.017   5.276  15.912  0.00  0.00    +0.000 A 
ATOM      4  C   UNL     1      48.719   6.425  15.544  0.00  0.00    +0.000 A 
ATOM      5  C   UNL     1      49.894   6.696  16.237  0.00  0.00    +0.000 A 
ATOM      6  N   UNL     1      50.378   5.937  17.251  0.00  0.00    +0.000 NA
ENDROOT
BRANCH   1   7
ATOM      7  C   UNL     1      50.228   3.953  18.696  0.00  0.00    +0.000 C 
BRANCH   7  10
ATOM      8  O   UNL     1      53.010   4.250  18.811  0.00  0.00    +0.000 OA
ATOM      9  C   UNL     1      52.546   3.196  18.391  0.00  0.00    +0.000 C 
ATOM     10  N   UNL     1      51.193   2.981  18.226  0.00  0.00    +0.000 N 
ATOM     11  H   UNL     1      50.891   2.031  18.031  0.00  0.00    +0.000 HD
BRANCH   9  12
ATOM     12  C   UNL     1      53.447   2.056  18.025  0.00  0.00    +0.000 A 
ATOM     13  C   UNL     1      54.624   2.324  17.332  0.00  0.00    +0.000 A 
ATOM     14  C   UNL     1      55.441   1.255  16.975  0.00  0.00    +0.000 A 
ATOM     15  C   UNL     1      55.057  -0.034  17.320  0.00  0.00    +0.000 A 
ATOM     16  C   UNL     1      53.868  -0.207  18.019  0.00  0.00    +0.000 A 
ATOM     17  N   UNL     1      53.050   0.805  18.388  0.00  0.00    +0.000 NA
ENDBRANCH   9  12
ENDBRANCH   7  10
ENDBRANCH   1   7
BRANCH   4  18
ATOM     18  C   UNL     1      48.258   7.305  14.417  0.00  0.00    +0.000 C 
BRANCH  18  19
ATOM     19  N   UNL     1      47.014   6.833  13.866  0.00  0.00    +0.000 N 
ATOM     20  C   UNL     1      46.794   6.784  12.511  0.00  0.00    +0.000 C 
ATOM     21  O   UNL     1      47.660   7.091  11.696  0.00  0.00    +0.000 OA
ATOM     22  H   UNL     1      46.216   6.823  14.490  0.00  0.00    +0.000 HD
BRANCH  20  23
ATOM     23  C   UNL     1      45.481   6.277  12.087  0.00  0.00    +0.000 A 
ATOM     24  C   UNL     1      44.533   7.148  11.570  0.00  0.00    +0.000 A 
ATOM     25  S   UNL     1      43.100   6.374  11.060  0.00  0.00    +0.000 S 
ATOM     26  C   UNL     1      43.675   4.854  11.566  0.00  0.00    +0.000 A 
ATOM     27  N   UNL     1      42.915   3.735  11.428  0.00  0.00    +0.000 NA
ATOM     28  C   UNL     1      43.465   2.657  11.882  0.00  0.00    +0.000 A 
ATOM     29  N   UNL     1      44.705   2.597  12.460  0.00  0.00    +0.000 N 
ATOM     30  C   UNL     1      45.517   3.697  12.598  0.00  0.00    +0.000 A 
ATOM     31  O   UNL     1      46.637   3.603  13.091  0.00  0.00    +0.000 OA
ATOM     32  C   UNL     1      44.946   4.936  12.105  0.00  0.00    +0.000 A 
ATOM     33  H   UNL     1      45.082   1.721  12.790  0.00  0.00    +0.000 HD
ENDBRANCH  20  23
ENDBRANCH  18  19
ENDBRANCH   4  18
TORSDOF 6
ENDMDL
MODEL 8
REMARK VINA RESULT:    -6.545      6.327      8.412
REMARK INTER + INTRA:          -9.739
REMARK INTER:                  -8.804
REMARK INTRA:                  -0.935
REMARK UNBOUND:                -0.899
REMARK  Name = 
REMARK  6 active torsions:
REMARK  status: ('A' for Active; 'I' for Inactive)
REMARK    1  A    between atoms: C_2  and  C_25
REMARK    2  A    between atoms: N_3  and  C_4
REMARK    3  A    between atoms: C_4  and  C_5
REMARK    4  A    between atoms: C_8  and  C_9
REMARK    5  A    between atoms: C_9  and  N_10
REMARK    6  A    between atoms: C_11  and  C_13
REMARK                            x       y       z     vdW  Elec       q    Type
REMARK                         _______ _______ _______ _____ _____    ______ ____
ROOT
ATOM      1  C   UNL     1      48.795   3.271  17.182  0.00  0.00    +0.000 A 
ATOM      2  C   UNL     1      49.483   4.206  17.952  0.00  0.00    +0.000 A 
ATOM      3  C   UNL     1      50.831   3.991  18.238  0.00  0.00    +0.000 A 
ATOM      4  C   UNL     1      51.465   2.838  17.775  0.00  0.00    +0.000 A 
ATOM      5  C   UNL     1      50.702   1.962  17.011  0.00  0.00    +0.000 A 
ATOM      6  N   UNL     1      49.391   2.145  16.715  0.00  0.00    +0.000 NA
ENDROOT
BRANCH   1   7
ATOM      7  C   UNL     1      47.346   3.505  16.821  0.00  0.00    +0.000 C 
BRANCH   7  10
ATOM      8  O   UNL     1      47.217   3.191  14.042  0.00  0.00    +0.000 OA
ATOM      9  C   UNL     1      47.041   4.307  14.518  0.00  0.00    +0.000 C 
ATOM     10  N   UNL     1      47.158   4.577  15.866  0.00  0.00    +0.000 N 
ATOM     11  H   UNL     1      46.837   5.485  16.191  0.00  0.00    +0.000 HD
BRANCH   9  12
ATOM     12  C   UNL     1      46.680   5.466  13.639  0.00  0.00    +0.000 A 
ATOM     13  C   UNL     1      47.679   6.357  13.257  0.00  0.00    +0.000 A 
ATOM     14  C   UNL     1      47.327   7.443  12.461  0.00  0.00    +0.000 A 
ATOM     15  C   UNL     1      46.002   7.600  12.077  0.00  0.00    +0.000 A 
ATOM     16  C   UNL     1      45.073   6.657  12.499  0.00  0.00    +0.000 A 
ATOM     17  N   UNL     1      45.375   5.585  13.269  0.00  0.00    +0.000 NA
ENDBRANCH   9  12
ENDBRANCH   7  10
ENDBRANCH   1   7
BRANCH   4  18
ATOM     18  C   UNL     1      52.919   2.573  18.044  0.00  0.00    +0.000 C 
BRANCH  18  19
ATOM     19  N   UNL     1      53.231   1.176  17.879  0.00  0.00    +0.000 N 
ATOM     20  C   UNL     1      54.237   0.569  18.590  0.00  0.00    +0.000 C 
ATOM     21  O   UNL     1      54.892   1.169  19.439  0.00  0.00    +0.000 OA
ATOM     22  H   UNL     1      52.898   0.735  17.030  0.00  0.00    +0.000 HD
BRANCH  20  23
ATOM     23  C   UNL     1      54.443  -0.862  18.326  0.00  0.00    +0.000 A 
ATOM     24  C   UNL     1      54.171  -1.798  19.312  0.00  0.00    +0.000 A 
ATOM     25  S   UNL     1      54.395  -3.412  18.804  0.00  0.00    +0.000 S 
ATOM     26  C   UNL     1      54.921  -2.912  17.264  0.00  0.00    +0.000 A 
ATOM     27  N   UNL     1      55.294  -3.819  16.321  0.00  0.00    +0.000 NA
ATOM     28  C   UNL     1      55.698  -3.297  15.210  0.00  0.00    +0.000 A 
ATOM     29  N   UNL     1      55.765  -1.953  14.956  0.00  0.00    +0.000 N 
ATOM     30  C   UNL     1      55.376  -1.003  15.870  0.00  0.00    +0.000 A 
ATOM     31  O   UNL     1      55.418   0.193  15.599  0.00  0.00    +0.000 OA
ATOM     32  C   UNL     1      54.914  -1.535  17.138  0.00  0.00    +0.000 A 
ATOM     33  H   UNL     1      56.086  -1.608  14.064  0.00  0.00    +0.000 HD
ENDBRANCH  20  23
ENDBRANCH  18  19
ENDBRANCH   4  18
TORSDOF 6
ENDMDL
MODEL 9
REMARK VINA RESULT:    -6.445      2.921      4.352
REMARK INTER + INTRA:          -9.604
REMARK INTER:                  -8.764
REMARK INTRA:                  -0.840
REMARK UNBOUND:                -0.899
REMARK  Name = 
REMARK  6 active torsions:
REMARK  status: ('A' for Active; 'I' for Inactive)
REMARK    1  A    between atoms: C_2  and  C_25
REMARK    2  A    between atoms: N_3  and  C_4
REMARK    3  A    between atoms: C_4  and  C_5
REMARK    4  A    between atoms: C_8  and  C_9
REMARK    5  A    between atoms: C_9  and  N_10
REMARK    6  A    between atoms: C_11  and  C_13
REMARK                            x       y       z     vdW  Elec       q    Type
REMARK                         _______ _______ _______ _____ _____    ______ ____
ROOT
ATOM      1  C   UNL     1      47.965   7.630  13.776  0.00  0.00    +0.000 A 
ATOM      2  C   UNL     1      48.182   6.359  14.306  0.00  0.00    +0.000 A 
ATOM      3  C   UNL     1      48.617   6.238  15.625  0.00  0.00    +0.000 A 
ATOM      4  C   UNL     1      48.856   7.383  16.387  0.00  0.00    +0.000 A 
ATOM      5  C   UNL     1      48.610   8.609  15.777  0.00  0.00    +0.000 A 
ATOM      6  N   UNL     1      48.184   8.758  14.498  0.00  0.00    +0.000 NA
ENDROOT
BRANCH   1   7
ATOM      7  C   UNL     1      47.450   7.784  12.363  0.00  0.00    +0.000 C 
BRANCH   7  10
ATOM      8  O   UNL     1      44.855   7.405  11.381  0.00  0.00    +0.000 OA
ATOM      9  C   UNL     1      45.663   6.489  11.281  0.00  0.00    +0.000 C 
ATOM     10  N   UNL     1      46.941   6.551  11.800  0.00  0.00    +0.000 N 
ATOM     11  H   UNL     1      47.591   5.818  11.530  0.00  0.00    +0.000 HD
BRANCH   9  12
ATOM     12  C   UNL     1      45.297   5.220  10.573  0.00  0.00    +0.000 A 
ATOM     13  C   UNL     1      45.643   5.073   9.233  0.00  0.00    +0.000 A 
ATOM     14  C   UNL     1      45.276   3.900   8.578  0.00  0.00    +0.000 A 
ATOM     15  C   UNL     1      44.582   2.923   9.280  0.00  0.00    +0.000 A 
ATOM     16  C   UNL     1      44.285   3.152  10.618  0.00  0.00    +0.000 A 
ATOM     17  N   UNL     1      44.628   4.275  11.290  0.00  0.00    +0.000 NA
ENDBRANCH   9  12
ENDBRANCH   7  10
ENDBRANCH   1   7
BRANCH   4  18
ATOM     18  C   UNL     1      49.309   7.302  17.816  0.00  0.00    +0.000 C 
BRANCH  18  19
ATOM     19  N   UNL     1      50.412   6.385  17.958  0.00  0.00    +0.000 N 
ATOM     20  C   UNL     1      50.306   5.232  18.697  0.00  0.00    +0.000 C 
ATOM     21  O   UNL     1      49.254   4.895  19.235  0.00  0.00    +0.000 OA
ATOM     22  H   UNL     1      51.334   6.751  17.755  0.00  0.00    +0.000 HD
BRANCH  20  23
ATOM     23  C   UNL     1      51.506   4.387  18.755  0.00  0.00    +0.000 A 
ATOM     24  C   UNL     1      52.633   4.825  19.434  0.00  0.00    +0.000 A 
ATOM     25  S   UNL     1      53.902   3.683  19.461  0.00  0.00    +0.000 S 
ATOM     26  C   UNL     1      53.009   2.586  18.514  0.00  0.00    +0.000 A 
ATOM     27  N   UNL     1      53.532   1.385  18.151  0.00  0.00    +0.000 NA
ATOM     28  C   UNL     1      52.755   0.667  17.409  0.00  0.00    +0.000 A 
ATOM     29  N   UNL     1      51.503   1.041  16.998  0.00  0.00    +0.000 N 
ATOM     30  C   UNL     1      50.926   2.234  17.360  0.00  0.00    +0.000 A 
ATOM     31  O   UNL     1      49.789   2.524  17.001  0.00  0.00    +0.000 OA
ATOM     32  C   UNL     1      51.758   3.081  18.194  0.00  0.00    +0.000 A 
ATOM     33  H   UNL     1      50.943   0.431  16.422  0.00  0.00    +0.000 HD
ENDBRANCH  20  23
ENDBRANCH  18  19
ENDBRANCH   4  18
TORSDOF 6
ENDMDL
