MODEL 1
REMARK VINA RESULT:    -8.575      0.000      0.000
REMARK INTER + INTRA:         -11.767
REMARK INTER:                 -11.332
REMARK INTRA:                  -0.435
REMARK UNBOUND:                -0.435
REMARK  Name = 
REMARK  6 active torsions:
REMARK  status: ('A' for Active; 'I' for Inactive)
REMARK    1  A    between atoms: C_2  and  C_18
REMARK    2  A    between atoms: N_3  and  C_4
REMARK    3  A    between atoms: C_4  and  C_5
REMARK    4  A    between atoms: C_8  and  C_9
REMARK    5  A    between atoms: C_9  and  O_10
REMARK    6  A    between atoms: C_9  and  C_11
REMARK                            x       y       z     vdW  Elec       q    Type
REMARK                         _______ _______ _______ _____ _____    ______ ____
ROOT
ATOM      1  C   UNL     1      44.021   5.407  12.576  0.00  0.00    +0.000 C 
ENDROOT
BRANCH   1   2
ATOM      2  C   UNL     1      44.359   4.625  11.335  0.00  0.00    +0.000 A 
ATOM      3  C   UNL     1      45.140   5.202  10.329  0.00  0.00    +0.000 A 
ATOM      4  C   UNL     1      45.532   4.454   9.217  0.00  0.00    +0.000 A 
ATOM      5  C   UNL     1      45.159   3.105   9.084  0.00  0.00    +0.000 A 
ATOM      6  C   UNL     1      44.310   2.556  10.057  0.00  0.00    +0.000 A 
ATOM      7  C   UNL     1      43.913   3.308  11.167  0.00  0.00    +0.000 A 
BRANCH   5   8
ATOM      8  C   UNL     1      45.735   2.280   7.940  0.00  0.00    +0.000 C 
BRANCH   8   9
ATOM      9  C   UNL     1      46.964   2.985   7.309  0.00  0.00    +0.000 C 
ATOM     10  C   UNL     1      46.690   3.610   5.946  0.00  0.00    +0.000 C 
ATOM     11  C   UNL     1      47.086   2.538   4.956  0.00  0.00    +0.000 C 
ATOM     12  N   UNL     1      48.216   1.840   5.571  0.00  0.00    +0.000 NA
ATOM     13  C   UNL     1      48.130   2.036   7.026  0.00  0.00    +0.000 C 
ATOM     14  H   UNL     1      49.084   2.267   5.243  0.00  0.00    +0.000 HD
ENDBRANCH   8   9
BRANCH   8  15
ATOM     15  O   UNL     1      46.029   0.946   8.349  0.00  0.00    +0.000 OA
ATOM     16  H   UNL     1      46.363   0.463   7.572  0.00  0.00    +0.000 HD
ENDBRANCH   8  15
ENDBRANCH   5   8
ENDBRANCH   1   2
BRANCH   1  19
ATOM     17  O   UNL     1      45.932   3.729  13.781  0.00  0.00    +0.000 OA
ATOM     18  C   UNL     1      46.104   4.943  13.803  0.00  0.00    +0.000 C 
ATOM     19  N   UNL     1      45.200   5.832  13.285  0.00  0.00    +0.000 N 
ATOM     20  H   UNL     1      45.464   6.803  13.167  0.00  0.00    +0.000 HD
BRANCH  18  21
ATOM     21  C   UNL     1      47.281   5.533  14.446  0.00  0.00    +0.000 A 
ATOM     22  C   UNL     1      48.034   6.493  13.783  0.00  0.00    +0.000 A 
ATOM     23  S   UNL     1      49.343   7.083  14.705  0.00  0.00    +0.000 S 
ATOM     24  C   UNL     1      48.933   6.092  16.026  0.00  0.00    +0.000 A 
ATOM     25  N   UNL     1      49.646   6.129  17.183  0.00  0.00    +0.000 NA
ATOM     26  C   UNL     1      49.197   5.353  18.110  0.00  0.00    +0.000 A 
ATOM     27  N   UNL     1      48.110   4.527  17.983  0.00  0.00    +0.000 N 
ATOM     28  C   UNL     1      47.415   4.389  16.810  0.00  0.00    +0.000 A 
ATOM     29  O   UNL     1      46.562   3.520  16.678  0.00  0.00    +0.000 OA
ATOM     30  C   UNL     1      47.836   5.295  15.755  0.00  0.00    +0.000 A 
ATOM     31  H   UNL     1      47.838   3.908  18.733  0.00  0.00    +0.000 HD
ENDBRANCH  18  21
ENDBRANCH   1  19
TORSDOF 6
ENDMDL
MODEL 2
REMARK VINA RESULT:    -7.654      4.208      9.325
REMARK INTER + INTRA:         -10.551
REMARK INTER:                  -9.616
REMARK INTRA:                  -0.935
REMARK UNBOUND:                -0.435
REMARK  Name = 
REMARK  6 active torsions:
REMARK  status: ('A' for Active; 'I' for Inactive)
REMARK    1  A    between atoms: C_2  and  C_18
REMARK    2  A    between atoms: N_3  and  C_4
REMARK    3  A    between atoms: C_4  and  C_5
REMARK    4  A    between atoms: C_8  and  C_9
REMARK    5  A    between atoms: C_9  and  O_10
REMARK    6  A    between atoms: C_9  and  C_11
REMARK                            x       y       z     vdW  Elec       q    Type
REMARK                         _______ _______ _______ _____ _____    ______ ____
ROOT
ATOM      1  C   UNL     1      47.167   3.395  16.877  0.00  0.00    +0.000 C 
ENDROOT
BRANCH   1   2
ATOM      2  C   UNL     1      48.654   3.288  17.084  0.00  0.00    +0.000 A 
ATOM      3  C   UNL     1      49.388   4.398  17.514  0.00  0.00    +0.000 A 
ATOM      4  C   UNL     1      50.750   4.283  17.793  0.00  0.00    +0.000 A 
ATOM      5  C   UNL     1      51.417   3.053  17.656  0.00  0.00    +0.000 A 
ATOM      6  C   UNL     1      50.693   1.964  17.149  0.00  0.00    +0.000 A 
ATOM      7  C   UNL     1      49.329   2.081  16.864  0.00  0.00    +0.000 A 
BRANCH   5   8
ATOM      8  C   UNL     1      52.863   2.931  18.121  0.00  0.00    +0.000 C 
BRANCH   8   9
ATOM      9  C   UNL     1      53.285   4.167  18.957  0.00  0.00    +0.000 C 
ATOM     10  C   UNL     1      54.659   4.721  18.598  0.00  0.00    +0.000 C 
ATOM     11  C   UNL     1      55.604   4.036  19.559  0.00  0.00    +0.000 C 
ATOM     12  N   UNL     1      54.842   3.868  20.798  0.00  0.00    +0.000 NA
ATOM     13  C   UNL     1      53.413   3.873  20.454  0.00  0.00    +0.000 C 
ATOM     14  H   UNL     1      55.026   4.667  21.407  0.00  0.00    +0.000 HD
ENDBRANCH   8   9
BRANCH   8  15
ATOM     15  O   UNL     1      53.091   1.706  18.814  0.00  0.00    +0.000 OA
ATOM     16  H   UNL     1      53.186   1.001  18.148  0.00  0.00    +0.000 HD
ENDBRANCH   8  15
ENDBRANCH   5   8
ENDBRANCH   1   2
BRANCH   1  19
ATOM     17  O   UNL     1      47.250   3.075  14.083  0.00  0.00    +0.000 OA
ATOM     18  C   UNL     1      46.854   4.137  14.551  0.00  0.00    +0.000 C 
ATOM     19  N   UNL     1      46.828   4.393  15.897  0.00  0.00    +0.000 N 
ATOM     20  H   UNL     1      46.331   5.206  16.242  0.00  0.00    +0.000 HD
BRANCH  18  21
ATOM     21  C   UNL     1      46.426   5.239  13.685  0.00  0.00    +0.000 A 
ATOM     22  C   UNL     1      47.274   6.311  13.444  0.00  0.00    +0.000 A 
ATOM     23  S   UNL     1      46.612   7.475  12.386  0.00  0.00    +0.000 S 
ATOM     24  C   UNL     1      45.181   6.574  12.199  0.00  0.00    +0.000 A 
ATOM     25  N   UNL     1      44.183   6.999  11.380  0.00  0.00    +0.000 NA
ATOM     26  C   UNL     1      43.176   6.195  11.308  0.00  0.00    +0.000 A 
ATOM     27  N   UNL     1      43.065   5.013  11.992  0.00  0.00    +0.000 N 
ATOM     28  C   UNL     1      44.004   4.586  12.895  0.00  0.00    +0.000 A 
ATOM     29  O   UNL     1      43.795   3.617  13.615  0.00  0.00    +0.000 OA
ATOM     30  C   UNL     1      45.192   5.420  12.961  0.00  0.00    +0.000 A 
ATOM     31  H   UNL     1      42.228   4.451  11.926  0.00  0.00    +0.000 HD
ENDBRANCH  18  21
ENDBRANCH   1  19
TORSDOF 6
ENDMDL
MODEL 3
REMARK VINA RESULT:    -7.553      4.270      8.766
REMARK INTER + INTRA:         -10.417
REMARK INTER:                  -9.456
REMARK INTRA:                  -0.961
REMARK UNBOUND:                -0.435
REMARK  Name = 
REMARK  6 active torsions:
REMARK  status: ('A' for Active; 'I' for Inactive)
REMARK    1  A    between atoms: C_2  and  C_18
REMARK    2  A    between atoms: N_3  and  C_4
REMARK    3  A    between atoms: C_4  and  C_5
REMARK    4  A    between atoms: C_8  and  C_9
REMARK    5  A    between atoms: C_9  and  O_10
REMARK    6  A    between atoms: C_9  and  C_11
REMARK                            x       y       z     vdW  Elec       q    Type
REMARK                         _______ _______ _______ _____ _____    ______ ____
ROOT
ATOM      1  C   UNL     1      48.941   5.564  17.521  0.00  0.00    +0.000 C 
ENDROOT
BRANCH   1   2
ATOM      2  C   UNL     1      49.816   4.344  17.413  0.00  0.00    +0.000 A 
ATOM      3  C   UNL     1      51.191   4.440  17.645  0.00  0.00    +0.000 A 
ATOM      4  C   UNL     1      51.994   3.298  17.635  0.00  0.00    +0.000 A 
ATOM      5  C   UNL     1      51.444   2.027  17.398  0.00  0.00    +0.000 A 
ATOM      6  C   UNL     1      50.078   1.947  17.088  0.00  0.00    +0.000 A 
ATOM      7  C   UNL     1      49.274   3.093  17.092  0.00  0.00    +0.000 A 
BRANCH   5   8
ATOM      8  C   UNL     1      52.322   0.792  17.551  0.00  0.00    +0.000 C 
BRANCH   8   9
ATOM      9  C   UNL     1      53.791   1.187  17.852  0.00  0.00    +0.000 C 
ATOM     10  C   UNL     1      54.733   1.032  16.663  0.00  0.00    +0.000 C 
ATOM     11  C   UNL     1      55.315  -0.354  16.824  0.00  0.00    +0.000 C 
ATOM     12  N   UNL     1      55.421  -0.565  18.270  0.00  0.00    +0.000 NA
ATOM     13  C   UNL     1      54.446   0.317  18.927  0.00  0.00    +0.000 C 
ATOM     14  H   UNL     1      56.356  -0.289  18.574  0.00  0.00    +0.000 HD
ENDBRANCH   8   9
BRANCH   8  15
ATOM     15  O   UNL     1      51.795  -0.112  18.520  0.00  0.00    +0.000 OA
ATOM     16  H   UNL     1      50.918   0.217  18.787  0.00  0.00    +0.000 HD
ENDBRANCH   8  15
ENDBRANCH   5   8
ENDBRANCH   1   2
BRANCH   1  19
ATOM     17  O   UNL     1      49.657   6.562  14.989  0.00  0.00    +0.000 OA
ATOM     18  C   UNL     1      48.512   6.160  15.172  0.00  0.00    +0.000 C 
ATOM     19  N   UNL     1      48.068   5.705  16.385  0.00  0.00    +0.000 N 
ATOM     20  H   UNL     1      47.179   5.223  16.444  0.00  0.00    +0.000 HD
BRANCH  18  21
ATOM     21  C   UNL     1      47.515   6.192  14.099  0.00  0.00    +0.000 A 
ATOM     22  C   UNL     1      47.174   7.394  13.494  0.00  0.00    +0.000 A 
ATOM     23  S   UNL     1      46.021   7.224  12.247  0.00  0.00    +0.000 S 
ATOM     24  C   UNL     1      45.956   5.538  12.462  0.00  0.00    +0.000 A 
ATOM     25  N   UNL     1      45.168   4.757  11.675  0.00  0.00    +0.000 NA
ATOM     26  C   UNL     1      45.250   3.494  11.926  0.00  0.00    +0.000 A 
ATOM     27  N   UNL     1      46.033   2.938  12.904  0.00  0.00    +0.000 N 
ATOM     28  C   UNL     1      46.774   3.689  13.779  0.00  0.00    +0.000 A 
ATOM     29  O   UNL     1      47.323   3.175  14.746  0.00  0.00    +0.000 OA
ATOM     30  C   UNL     1      46.774   5.114  13.494  0.00  0.00    +0.000 A 
ATOM     31  H   UNL     1      46.015   1.944  13.081  0.00  0.00    +0.000 HD
ENDBRANCH  18  21
ENDBRANCH   1  19
TORSDOF 6
ENDMDL
MODEL 4
REMARK VINA RESULT:    -7.463      3.344      6.022
REMARK INTER + INTRA:         -10.298
REMARK INTER:                  -9.289
REMARK INTRA:                  -1.009
REMARK UNBOUND:                -0.435
REMARK  Name = 
REMARK  6 active torsions:
REMARK  status: ('A' for Active; 'I' for Inactive)
REMARK    1  A    between atoms: C_2  and  C_18
REMARK    2  A    between atoms: N_3  and  C_4
REMARK    3  A    between atoms: C_4  and  C_5
REMARK    4  A    between atoms: C_8  and  C_9
REMARK    5  A    between atoms: C_9  and  O_10
REMARK    6  A    between atoms: C_9  and  C_11
REMARK                            x       y       z     vdW  Elec       q    Type
REMARK                         _______ _______ _______ _____ _____    ______ ____
ROOT
ATOM      1  C   UNL     1      49.324   6.716  16.544  0.00  0.00    +0.000 C 
ENDROOT
BRANCH   1   2
ATOM      2  C   UNL     1      48.425   6.051  15.536  0.00  0.00    +0.000 A 
ATOM      3  C   UNL     1      47.690   4.915  15.887  0.00  0.00    +0.000 A 
ATOM      4  C   UNL     1      46.789   4.346  14.986  0.00  0.00    +0.000 A 
ATOM      5  C   UNL     1      46.592   4.901  13.710  0.00  0.00    +0.000 A 
ATOM      6  C   UNL     1      47.390   5.992  13.335  0.00  0.00    +0.000 A 
ATOM      7  C   UNL     1      48.298   6.559  14.236  0.00  0.00    +0.000 A 
BRANCH   5   8
ATOM      8  C   UNL     1      45.489   4.349  12.816  0.00  0.00    +0.000 C 
BRANCH   8   9
ATOM      9  C   UNL     1      45.348   5.191  11.522  0.00  0.00    +0.000 C 
ATOM     10  C   UNL     1      44.347   6.336  11.631  0.00  0.00    +0.000 C 
ATOM     11  C   UNL     1      43.051   5.752  11.117  0.00  0.00    +0.000 C 
ATOM     12  N   UNL     1      43.440   4.807  10.068  0.00  0.00    +0.000 NA
ATOM     13  C   UNL     1      44.825   4.388  10.328  0.00  0.00    +0.000 C 
ATOM     14  H   UNL     1      43.417   5.289   9.167  0.00  0.00    +0.000 HD
ENDBRANCH   8   9
BRANCH   8  15
ATOM     15  O   UNL     1      45.678   2.962  12.541  0.00  0.00    +0.000 OA
ATOM     16  H   UNL     1      45.005   2.693  11.891  0.00  0.00    +0.000 HD
ENDBRANCH   8  15
ENDBRANCH   5   8
ENDBRANCH   1   2
BRANCH   1  19
ATOM     17  O   UNL     1      49.773   5.780  19.159  0.00  0.00    +0.000 OA
ATOM     18  C   UNL     1      50.514   5.408  18.255  0.00  0.00    +0.000 C 
ATOM     19  N   UNL     1      50.395   5.853  16.966  0.00  0.00    +0.000 N 
ATOM     20  H   UNL     1      50.910   5.389  16.226  0.00  0.00    +0.000 HD
BRANCH  18  21
ATOM     21  C   UNL     1      51.626   4.489  18.512  0.00  0.00    +0.000 A 
ATOM     22  C   UNL     1      52.719   4.904  19.261  0.00  0.00    +0.000 A 
ATOM     23  S   UNL     1      53.894   3.685  19.479  0.00  0.00    +0.000 S 
ATOM     24  C   UNL     1      52.971   2.560  18.599  0.00  0.00    +0.000 A 
ATOM     25  N   UNL     1      53.395   1.279  18.430  0.00  0.00    +0.000 NA
ATOM     26  C   UNL     1      52.575   0.529  17.774  0.00  0.00    +0.000 A 
ATOM     27  N   UNL     1      51.376   0.944  17.256  0.00  0.00    +0.000 N 
ATOM     28  C   UNL     1      50.947   2.243  17.324  0.00  0.00    +0.000 A 
ATOM     29  O   UNL     1      49.959   2.617  16.703  0.00  0.00    +0.000 OA
ATOM     30  C   UNL     1      51.801   3.115  18.114  0.00  0.00    +0.000 A 
ATOM     31  H   UNL     1      50.801   0.316  16.711  0.00  0.00    +0.000 HD
ENDBRANCH  18  21
ENDBRANCH   1  19
TORSDOF 6
ENDMDL
MODEL 5
REMARK VINA RESULT:    -7.311      2.660      4.018
REMARK INTER + INTRA:         -10.097
REMARK INTER:                  -8.899
REMARK INTRA:                  -1.198
REMARK UNBOUND:                -0.435
REMARK  Name = 
REMARK  6 active torsions:
REMARK  status: ('A' for Active; 'I' for Inactive)
REMARK    1  A    between atoms: C_2  and  C_18
REMARK    2  A    between atoms: N_3  and  C_4
REMARK    3  A    between atoms: C_4  and  C_5
REMARK    4  A    between atoms: C_8  and  C_9
REMARK    5  A    between atoms: C_9  and  O_10
REMARK    6  A    between atoms: C_9  and  C_11
REMARK                            x       y       z     vdW  Elec       q    Type
REMARK                         _______ _______ _______ _____ _____    ______ ____
ROOT
ATOM      1  C   UNL     1      47.601   8.714  14.173  0.00  0.00    +0.000 C 
ENDROOT
BRANCH   1   2
ATOM      2  C   UNL     1      46.843   8.042  13.059  0.00  0.00    +0.000 A 
ATOM      3  C   UNL     1      47.457   7.052  12.286  0.00  0.00    +0.000 A 
ATOM      4  C   UNL     1      46.734   6.362  11.311  0.00  0.00    +0.000 A 
ATOM      5  C   UNL     1      45.374   6.640  11.086  0.00  0.00    +0.000 A 
ATOM      6  C   UNL     1      44.786   7.688  11.810  0.00  0.00    +0.000 A 
ATOM      7  C   UNL     1      45.513   8.382  12.783  0.00  0.00    +0.000 A 
BRANCH   5   8
ATOM      8  C   UNL     1      44.581   5.761  10.128  0.00  0.00    +0.000 C 
BRANCH   8   9
ATOM      9  C   UNL     1      45.289   4.399   9.906  0.00  0.00    +0.000 C 
ATOM     10  C   UNL     1      45.800   4.188   8.485  0.00  0.00    +0.000 C 
ATOM     11  C   UNL     1      44.677   3.457   7.786  0.00  0.00    +0.000 C 
ATOM     12  N   UNL     1      44.073   2.603   8.812  0.00  0.00    +0.000 NA
ATOM     13  C   UNL     1      44.371   3.194  10.124  0.00  0.00    +0.000 C 
ATOM     14  H   UNL     1      44.512   1.681   8.770  0.00  0.00    +0.000 HD
ENDBRANCH   8   9
BRANCH   8  15
ATOM     15  O   UNL     1      43.229   5.604  10.554  0.00  0.00    +0.000 OA
ATOM     16  H   UNL     1      42.775   6.456  10.425  0.00  0.00    +0.000 HD
ENDBRANCH   8  15
ENDBRANCH   5   8
ENDBRANCH   1   2
BRANCH   1  19
ATOM     17  O   UNL     1      50.092   7.489  14.635  0.00  0.00    +0.000 OA
ATOM     18  C   UNL     1      49.170   7.284  15.418  0.00  0.00    +0.000 C 
ATOM     19  N   UNL     1      47.915   7.801  15.241  0.00  0.00    +0.000 N 
ATOM     20  H   UNL     1      47.242   7.752  15.997  0.00  0.00    +0.000 HD
BRANCH  18  21
ATOM     21  C   UNL     1      49.343   6.414  16.585  0.00  0.00    +0.000 A 
ATOM     22  C   UNL     1      50.219   6.770  17.601  0.00  0.00    +0.000 A 
ATOM     23  S   UNL     1      50.258   5.649  18.887  0.00  0.00    +0.000 S 
ATOM     24  C   UNL     1      49.091   4.664  18.137  0.00  0.00    +0.000 A 
ATOM     25  N   UNL     1      48.637   3.529  18.734  0.00  0.00    +0.000 NA
ATOM     26  C   UNL     1      47.727   2.904  18.067  0.00  0.00    +0.000 A 
ATOM     27  N   UNL     1      47.238   3.298  16.849  0.00  0.00    +0.000 N 
ATOM     28  C   UNL     1      47.726   4.382  16.167  0.00  0.00    +0.000 A 
ATOM     29  O   UNL     1      47.392   4.605  15.010  0.00  0.00    +0.000 OA
ATOM     30  C   UNL     1      48.704   5.163  16.907  0.00  0.00    +0.000 A 
ATOM     31  H   UNL     1      46.557   2.737  16.356  0.00  0.00    +0.000 HD
ENDBRANCH  18  21
ENDBRANCH   1  19
TORSDOF 6
ENDMDL
MODEL 6
REMARK VINA RESULT:    -7.120      3.890      5.347
REMARK INTER + INTRA:          -9.844
REMARK INTER:                  -8.610
REMARK INTRA:                  -1.234
REMARK UNBOUND:                -0.435
REMARK  Name = 
REMARK  6 active torsions:
REMARK  status: ('A' for Active; 'I' for Inactive)
REMARK    1  A    between atoms: C_2  and  C_18
REMARK    2  A    between atoms: N_3  and  C_4
REMARK    3  A    between atoms: C_4  and  C_5
REMARK    4  A    between atoms: C_8  and  C_9
REMARK    5  A    between atoms: C_9  and  O_10
REMARK    6  A    between atoms: C_9  and  C_11
REMARK                            x       y       z     vdW  Elec       q    Type
REMARK                         _______ _______ _______ _____ _____    ______ ____
ROOT
ATOM      1  C   UNL     1      49.362   8.388  13.823  0.00  0.00    +0.000 C 
ENDROOT
BRANCH   1   2
ATOM      2  C   UNL     1      48.075   8.046  13.122  0.00  0.00    +0.000 A 
ATOM      3  C   UNL     1      48.063   7.104  12.089  0.00  0.00    +0.000 A 
ATOM      4  C   UNL     1      46.860   6.717  11.495  0.00  0.00    +0.000 A 
ATOM      5  C   UNL     1      45.635   7.257  11.921  0.00  0.00    +0.000 A 
ATOM      6  C   UNL     1      45.661   8.259  12.903  0.00  0.00    +0.000 A 
ATOM      7  C   UNL     1      46.867   8.651  13.494  0.00  0.00    +0.000 A 
BRANCH   5   8
ATOM      8  C   UNL     1      44.334   6.695  11.360  0.00  0.00    +0.000 C 
BRANCH   8   9
ATOM      9  C   UNL     1      43.704   5.669  12.338  0.00  0.00    +0.000 C 
ATOM     10  C   UNL     1      44.644   4.540  12.745  0.00  0.00    +0.000 C 
ATOM     11  C   UNL     1      44.351   3.433  11.758  0.00  0.00    +0.000 C 
ATOM     12  N   UNL     1      42.919   3.541  11.468  0.00  0.00    +0.000 NA
ATOM     13  C   UNL     1      42.505   4.924  11.747  0.00  0.00    +0.000 C 
ATOM     14  H   UNL     1      42.409   2.922  12.100  0.00  0.00    +0.000 HD
ENDBRANCH   8   9
BRANCH   8  15
ATOM     15  O   UNL     1      43.423   7.733  11.004  0.00  0.00    +0.000 OA
ATOM     16  H   UNL     1      43.540   8.462  11.639  0.00  0.00    +0.000 HD
ENDBRANCH   8  15
ENDBRANCH   5   8
ENDBRANCH   1   2
BRANCH   1  19
ATOM     17  O   UNL     1      48.650   9.078  16.456  0.00  0.00    +0.000 OA
ATOM     18  C   UNL     1      49.148   7.977  16.240  0.00  0.00    +0.000 C 
ATOM     19  N   UNL     1      49.568   7.583  14.998  0.00  0.00    +0.000 N 
ATOM     20  H   UNL     1      49.806   6.611  14.836  0.00  0.00    +0.000 HD
BRANCH  18  21
ATOM     21  C   UNL     1      49.379   7.021  17.325  0.00  0.00    +0.000 A 
ATOM     22  C   UNL     1      50.099   7.398  18.451  0.00  0.00    +0.000 A 
ATOM     23  S   UNL     1      50.234   6.159  19.617  0.00  0.00    +0.000 S 
ATOM     24  C   UNL     1      49.318   5.087  18.665  0.00  0.00    +0.000 A 
ATOM     25  N   UNL     1      49.025   3.832  19.100  0.00  0.00    +0.000 NA
ATOM     26  C   UNL     1      48.291   3.146  18.291  0.00  0.00    +0.000 A 
ATOM     27  N   UNL     1      47.836   3.590  17.077  0.00  0.00    +0.000 N 
ATOM     28  C   UNL     1      48.178   4.811  16.556  0.00  0.00    +0.000 A 
ATOM     29  O   UNL     1      47.900   5.107  15.400  0.00  0.00    +0.000 OA
ATOM     30  C   UNL     1      48.945   5.652  17.459  0.00  0.00    +0.000 A 
ATOM     31  H   UNL     1      47.303   2.984  16.468  0.00  0.00    +0.000 HD
ENDBRANCH  18  21
ENDBRANCH   1  19
TORSDOF 6
ENDMDL
MODEL 7
REMARK VINA RESULT:    -6.987      4.092      8.472
REMARK INTER + INTRA:          -9.669
REMARK INTER:                  -8.585
REMARK INTRA:                  -1.084
REMARK UNBOUND:                -0.435
REMARK  Name = 
REMARK  6 active torsions:
REMARK  status: ('A' for Active; 'I' for Inactive)
REMARK    1  A    between atoms: C_2  and  C_18
REMARK    2  A    between atoms: N_3  and  C_4
REMARK    3  A    between atoms: C_4  and  C_5
REMARK    4  A    between atoms: C_8  and  C_9
REMARK    5  A    between atoms: C_9  and  O_10
REMARK    6  A    between atoms: C_9  and  C_11
REMARK                            x       y       z     vdW  Elec       q    Type
REMARK                         _______ _______ _______ _____ _____    ______ ____
ROOT
ATOM      1  C   UNL     1      48.410   7.793  14.577  0.00  0.00    +0.000 C 
ENDROOT
BRANCH   1   2
ATOM      2  C   UNL     1      48.937   6.829  15.606  0.00  0.00    +0.000 A 
ATOM      3  C   UNL     1      48.130   5.789  16.077  0.00  0.00    +0.000 A 
ATOM      4  C   UNL     1      48.641   4.839  16.963  0.00  0.00    +0.000 A 
ATOM      5  C   UNL     1      49.975   4.899  17.399  0.00  0.00    +0.000 A 
ATOM      6  C   UNL     1      50.756   5.989  16.985  0.00  0.00    +0.000 A 
ATOM      7  C   UNL     1      50.242   6.944  16.102  0.00  0.00    +0.000 A 
BRANCH   5   8
ATOM      8  C   UNL     1      50.540   3.759  18.238  0.00  0.00    +0.000 C 
BRANCH   8   9
ATOM      9  C   UNL     1      51.640   2.990  17.462  0.00  0.00    +0.000 C 
ATOM     10  C   UNL     1      51.191   1.635  16.925  0.00  0.00    +0.000 C 
ATOM     11  C   UNL     1      51.589   0.654  18.004  0.00  0.00    +0.000 C 
ATOM     12  N   UNL     1      52.827   1.187  18.577  0.00  0.00    +0.000 NA
ATOM     13  C   UNL     1      52.855   2.634  18.322  0.00  0.00    +0.000 C 
ATOM     14  H   UNL     1      53.621   0.763  18.094  0.00  0.00    +0.000 HD
ENDBRANCH   8   9
BRANCH   8  15
ATOM     15  O   UNL     1      50.994   4.216  19.509  0.00  0.00    +0.000 OA
ATOM     16  H   UNL     1      51.864   4.636  19.381  0.00  0.00    +0.000 HD
ENDBRANCH   8  15
ENDBRANCH   5   8
ENDBRANCH   1   2
BRANCH   1  19
ATOM     17  O   UNL     1      48.056   6.816  11.962  0.00  0.00    +0.000 OA
ATOM     18  C   UNL     1      47.097   6.838  12.728  0.00  0.00    +0.000 C 
ATOM     19  N   UNL     1      47.172   7.343  13.999  0.00  0.00    +0.000 N 
ATOM     20  H   UNL     1      46.411   7.179  14.648  0.00  0.00    +0.000 HD
BRANCH  18  21
ATOM     21  C   UNL     1      45.776   6.369  12.305  0.00  0.00    +0.000 A 
ATOM     22  C   UNL     1      44.871   7.248  11.726  0.00  0.00    +0.000 A 
ATOM     23  S   UNL     1      43.402   6.509  11.272  0.00  0.00    +0.000 S 
ATOM     24  C   UNL     1      43.935   4.987  11.814  0.00  0.00    +0.000 A 
ATOM     25  N   UNL     1      43.154   3.880  11.687  0.00  0.00    +0.000 NA
ATOM     26  C   UNL     1      43.704   2.791  12.106  0.00  0.00    +0.000 A 
ATOM     27  N   UNL     1      44.956   2.706  12.657  0.00  0.00    +0.000 N 
ATOM     28  C   UNL     1      45.744   3.804  12.886  0.00  0.00    +0.000 A 
ATOM     29  O   UNL     1      46.779   3.716  13.535  0.00  0.00    +0.000 OA
ATOM     30  C   UNL     1      45.201   5.048  12.367  0.00  0.00    +0.000 A 
ATOM     31  H   UNL     1      45.310   1.827  13.009  0.00  0.00    +0.000 HD
ENDBRANCH  18  21
ENDBRANCH   1  19
TORSDOF 6
ENDMDL
MODEL 8
REMARK VINA RESULT:    -6.523      4.276      9.240
REMARK INTER + INTRA:          -9.055
REMARK INTER:                  -8.169
REMARK INTRA:                  -0.886
REMARK UNBOUND:                -0.435
REMARK  Name = 
REMARK  6 active torsions:
REMARK  status: ('A' for Active; 'I' for Inactive)
REMARK    1  A    between atoms: C_2  and  C_18
REMARK    2  A    between atoms: N_3  and  C_4
REMARK    3  A    between atoms: C_4  and  C_5
REMARK    4  A    between atoms: C_8  and  C_9
REMARK    5  A    between atoms: C_9  and  O_10
REMARK    6  A    between atoms: C_9  and  C_11
REMARK                            x       y       z     vdW  Elec       q    Type
REMARK                         _______ _______ _______ _____ _____    ______ ____
ROOT
ATOM      1  C   UNL     1      47.380   3.512  16.508  0.00  0.00    +0.000 C 
ENDROOT
BRANCH   1   2
ATOM      2  C   UNL     1      48.517   4.089  17.309  0.00  0.00    +0.000 A 
ATOM      3  C   UNL     1      49.675   3.337  17.531  0.00  0.00    +0.000 A 
ATOM      4  C   UNL     1      50.767   3.897  18.196  0.00  0.00    +0.000 A 
ATOM      5  C   UNL     1      50.735   5.226  18.652  0.00  0.00    +0.000 A 
ATOM      6  C   UNL     1      49.542   5.948  18.496  0.00  0.00    +0.000 A 
ATOM      7  C   UNL     1      48.445   5.385  17.835  0.00  0.00    +0.000 A 
BRANCH   5   8
ATOM      8  C   UNL     1      52.000   5.849  19.229  0.00  0.00    +0.000 C 
BRANCH   8   9
ATOM      9  C   UNL     1      52.508   7.008  18.333  0.00  0.00    +0.000 C 
ATOM     10  C   UNL     1      52.857   6.586  16.910  0.00  0.00    +0.000 C 
ATOM     11  C   UNL     1      54.337   6.282  16.960  0.00  0.00    +0.000 C 
ATOM     12  N   UNL     1      54.894   7.227  17.931  0.00  0.00    +0.000 NA
ATOM     13  C   UNL     1      53.809   7.638  18.834  0.00  0.00    +0.000 C 
ATOM     14  H   UNL     1      55.223   8.055  17.431  0.00  0.00    +0.000 HD
ENDBRANCH   8   9
BRANCH   8  15
ATOM     15  O   UNL     1      51.815   6.255  20.584  0.00  0.00    +0.000 OA
ATOM     16  H   UNL     1      52.414   7.003  20.755  0.00  0.00    +0.000 HD
ENDBRANCH   8  15
ENDBRANCH   5   8
ENDBRANCH   1   2
BRANCH   1  19
ATOM     17  O   UNL     1      47.129   3.182  13.725  0.00  0.00    +0.000 OA
ATOM     18  C   UNL     1      46.704   4.208  14.246  0.00  0.00    +0.000 C 
ATOM     19  N   UNL     1      46.830   4.469  15.584  0.00  0.00    +0.000 N 
ATOM     20  H   UNL     1      46.312   5.238  15.995  0.00  0.00    +0.000 HD
BRANCH  18  21
ATOM     21  C   UNL     1      46.072   5.261  13.447  0.00  0.00    +0.000 A 
ATOM     22  C   UNL     1      46.757   6.436  13.168  0.00  0.00    +0.000 A 
ATOM     23  S   UNL     1      45.870   7.525  12.200  0.00  0.00    +0.000 S 
ATOM     24  C   UNL     1      44.552   6.454  12.104  0.00  0.00    +0.000 A 
ATOM     25  N   UNL     1      43.443   6.764  11.380  0.00  0.00    +0.000 NA
ATOM     26  C   UNL     1      42.541   5.841  11.368  0.00  0.00    +0.000 A 
ATOM     27  N   UNL     1      42.636   4.642  12.026  0.00  0.00    +0.000 N 
ATOM     28  C   UNL     1      43.692   4.322  12.838  0.00  0.00    +0.000 A 
ATOM     29  O   UNL     1      43.666   3.323  13.546  0.00  0.00    +0.000 OA
ATOM     30  C   UNL     1      44.769   5.298  12.831  0.00  0.00    +0.000 A 
ATOM     31  H   UNL     1      41.872   3.981  12.013  0.00  0.00    +0.000 HD
ENDBRANCH  18  21
ENDBRANCH   1  19
TORSDOF 6
ENDMDL
MODEL 9
REMARK VINA RESULT:    -6.236      4.401      8.766
REMARK INTER + INTRA:          -8.677
REMARK INTER:                  -7.469
REMARK INTRA:                  -1.207
REMARK UNBOUND:                -0.435
REMARK  Name = 
REMARK  6 active torsions:
REMARK  status: ('A' for Active; 'I' for Inactive)
REMARK    1  A    between atoms: C_2  and  C_18
REMARK    2  A    between atoms: N_3  and  C_4
REMARK    3  A    between atoms: C_4  and  C_5
REMARK    4  A    between atoms: C_8  and  C_9
REMARK    5  A    between atoms: C_9  and  O_10
REMARK    6  A    between atoms: C_9  and  C_11
REMARK                            x       y       z     vdW  Elec       q    Type
REMARK                         _______ _______ _______ _____ _____    ______ ____
ROOT
ATOM      1  C   UNL     1      47.424   3.624  16.635  0.00  0.00    +0.000 C 
ENDROOT
BRANCH   1   2
ATOM      2  C   UNL     1      48.747   4.193  17.075  0.00  0.00    +0.000 A 
ATOM      3  C   UNL     1      49.789   3.342  17.456  0.00  0.00    +0.000 A 
ATOM      4  C   UNL     1      51.045   3.859  17.778  0.00  0.00    +0.000 A 
ATOM      5  C   UNL     1      51.296   5.240  17.723  0.00  0.00    +0.000 A 
ATOM      6  C   UNL     1      50.225   6.094  17.417  0.00  0.00    +0.000 A 
ATOM      7  C   UNL     1      48.965   5.576  17.099  0.00  0.00    +0.000 A 
BRANCH   5   8
ATOM      8  C   UNL     1      52.717   5.751  17.928  0.00  0.00    +0.000 C 
BRANCH   8   9
ATOM      9  C   UNL     1      53.524   5.693  16.605  0.00  0.00    +0.000 C 
ATOM     10  C   UNL     1      54.978   5.271  16.782  0.00  0.00    +0.000 C 
ATOM     11  C   UNL     1      55.734   6.573  16.918  0.00  0.00    +0.000 C 
ATOM     12  N   UNL     1      55.024   7.524  16.059  0.00  0.00    +0.000 NA
ATOM     13  C   UNL     1      53.642   7.049  15.905  0.00  0.00    +0.000 C 
ATOM     14  H   UNL     1      55.465   7.526  15.137  0.00  0.00    +0.000 HD
ENDBRANCH   8   9
BRANCH   8  15
ATOM     15  O   UNL     1      52.730   7.051  18.513  0.00  0.00    +0.000 OA
ATOM     16  H   UNL     1      52.853   7.699  17.795  0.00  0.00    +0.000 HD
ENDBRANCH   8  15
ENDBRANCH   5   8
ENDBRANCH   1   2
BRANCH   1  19
ATOM     17  O   UNL     1      47.451   3.287  13.841  0.00  0.00    +0.000 OA
ATOM     18  C   UNL     1      46.795   4.203  14.327  0.00  0.00    +0.000 C 
ATOM     19  N   UNL     1      46.767   4.466  15.671  0.00  0.00    +0.000 N 
ATOM     20  H   UNL     1      46.079   5.113  16.040  0.00  0.00    +0.000 HD
BRANCH  18  21
ATOM     21  C   UNL     1      46.029   5.122  13.482  0.00  0.00    +0.000 A 
ATOM     22  C   UNL     1      44.847   4.706  12.885  0.00  0.00    +0.000 A 
ATOM     23  S   UNL     1      44.084   5.925  11.967  0.00  0.00    +0.000 S 
ATOM     24  C   UNL     1      45.297   7.053  12.354  0.00  0.00    +0.000 A 
ATOM     25  N   UNL     1      45.236   8.336  11.905  0.00  0.00    +0.000 NA
ATOM     26  C   UNL     1      46.204   9.087  12.309  0.00  0.00    +0.000 A 
ATOM     27  N   UNL     1      47.238   8.673  13.107  0.00  0.00    +0.000 N 
ATOM     28  C   UNL     1      47.391   7.372  13.510  0.00  0.00    +0.000 A 
ATOM     29  O   UNL     1      48.412   7.000  14.074  0.00  0.00    +0.000 OA
ATOM     30  C   UNL     1      46.289   6.499  13.142  0.00  0.00    +0.000 A 
ATOM     31  H   UNL     1      47.991   9.302  13.349  0.00  0.00    +0.000 HD
ENDBRANCH  18  21
ENDBRANCH   1  19
TORSDOF 6
ENDMDL
