MODEL 1
REMARK VINA RESULT:    -7.378      0.000      0.000
REMARK INTER + INTRA:          -9.727
REMARK INTER:                  -9.320
REMARK INTRA:                  -0.407
REMARK UNBOUND:                -0.407
REMARK  Name = 
REMARK  5 active torsions:
REMARK  status: ('A' for Active; 'I' for Inactive)
REMARK    1  A    between atoms: N_1  and  C_2
REMARK    2  A    between atoms: C_2  and  C_3
REMARK    3  A    between atoms: C_3  and  C_4
REMARK    4  A    between atoms: C_8  and  C_9
REMARK    5  A    between atoms: C_9  and  N_10
REMARK                            x       y       z     vdW  Elec       q    Type
REMARK                         _______ _______ _______ _____ _____    ______ ____
ROOT
ATOM      1  C   UNL     1      45.504   5.090  12.641  0.00  0.00    +0.000 A 
ATOM      2  C   UNL     1      44.254   5.013  13.266  0.00  0.00    +0.000 A 
ATOM      3  C   UNL     1      43.094   4.838  12.511  0.00  0.00    +0.000 A 
ATOM      4  C   UNL     1      43.175   4.728  11.124  0.00  0.00    +0.000 A 
ATOM      5  C   UNL     1      44.417   4.786  10.477  0.00  0.00    +0.000 A 
ATOM      6  C   UNL     1      45.576   4.969  11.244  0.00  0.00    +0.000 A 
ENDROOT
BRANCH   1   7
ATOM      7  C   UNL     1      46.760   5.296  13.457  0.00  0.00    +0.000 C 
BRANCH   7   8
ATOM      8  C   UNL     1      46.780   4.457  14.739  0.00  0.00    +0.000 C 
BRANCH   8   9
ATOM      9  N   UNL     1      47.522   3.214  14.528  0.00  0.00    +0.000 NA
ATOM     10  H   UNL     1      46.873   2.467  14.283  0.00  0.00    +0.000 HD
ATOM     11  H   UNL     1      47.971   2.928  15.396  0.00  0.00    +0.000 HD
ENDBRANCH   8   9
ENDBRANCH   7   8
ENDBRANCH   1   7
BRANCH   5  12
ATOM     12  C   UNL     1      44.512   4.604   8.988  0.00  0.00    +0.000 C 
BRANCH  12  13
ATOM     13  N   UNL     1      44.842   3.255   8.543  0.00  0.00    +0.000 N 
ATOM     14  C   UNL     1      44.579   2.100   9.229  0.00  0.00    +0.000 A 
ATOM     15  N   UNL     1      45.405   1.135   8.891  0.00  0.00    +0.000 NA
ATOM     16  C   UNL     1      46.202   1.671   7.910  0.00  0.00    +0.000 A 
ATOM     17  C   UNL     1      47.309   1.115   7.254  0.00  0.00    +0.000 A 
ATOM     18  C   UNL     1      47.960   1.869   6.270  0.00  0.00    +0.000 A 
ATOM     19  C   UNL     1      47.492   3.135   5.916  0.00  0.00    +0.000 A 
ATOM     20  C   UNL     1      46.401   3.715   6.572  0.00  0.00    +0.000 A 
ATOM     21  C   UNL     1      45.802   2.967   7.594  0.00  0.00    +0.000 A 
ENDBRANCH  12  13
ENDBRANCH   5  12
TORSDOF 5
ENDMDL
MODEL 2
REMARK VINA RESULT:    -7.332      1.788      3.045
REMARK INTER + INTRA:          -9.668
REMARK INTER:                  -9.241
REMARK INTRA:                  -0.427
REMARK UNBOUND:                -0.407
REMARK  Name = 
REMARK  5 active torsions:
REMARK  status: ('A' for Active; 'I' for Inactive)
REMARK    1  A    between atoms: N_1  and  C_2
REMARK    2  A    between atoms: C_2  and  C_3
REMARK    3  A    between atoms: C_3  and  C_4
REMARK    4  A    between atoms: C_8  and  C_9
REMARK    5  A    between atoms: C_9  and  N_10
REMARK                            x       y       z     vdW  Elec       q    Type
REMARK                         _______ _______ _______ _____ _____    ______ ____
ROOT
ATOM      1  C   UNL     1      46.946   4.994  14.037  0.00  0.00    +0.000 A 
ATOM      2  C   UNL     1      47.894   6.020  13.942  0.00  0.00    +0.000 A 
ATOM      3  C   UNL     1      47.727   7.054  13.020  0.00  0.00    +0.000 A 
ATOM      4  C   UNL     1      46.606   7.075  12.193  0.00  0.00    +0.000 A 
ATOM      5  C   UNL     1      45.636   6.067  12.280  0.00  0.00    +0.000 A 
ATOM      6  C   UNL     1      45.817   5.028  13.206  0.00  0.00    +0.000 A 
ENDROOT
BRANCH   1   7
ATOM      7  C   UNL     1      47.135   3.864  15.025  0.00  0.00    +0.000 C 
BRANCH   7   8
ATOM      8  C   UNL     1      47.226   4.351  16.474  0.00  0.00    +0.000 C 
BRANCH   8   9
ATOM      9  N   UNL     1      46.720   3.331  17.392  0.00  0.00    +0.000 NA
ATOM     10  H   UNL     1      46.842   3.646  18.354  0.00  0.00    +0.000 HD
ATOM     11  H   UNL     1      47.273   2.479  17.301  0.00  0.00    +0.000 HD
ENDBRANCH   8   9
ENDBRANCH   7   8
ENDBRANCH   1   7
BRANCH   5  12
ATOM     12  C   UNL     1      44.395   6.123  11.433  0.00  0.00    +0.000 C 
BRANCH  12  13
ATOM     13  N   UNL     1      43.986   4.855  10.840  0.00  0.00    +0.000 N 
ATOM     14  C   UNL     1      43.213   3.902  11.446  0.00  0.00    +0.000 A 
ATOM     15  N   UNL     1      43.429   2.707  10.941  0.00  0.00    +0.000 NA
ATOM     16  C   UNL     1      44.341   2.903   9.933  0.00  0.00    +0.000 A 
ATOM     17  C   UNL     1      44.990   1.963   9.120  0.00  0.00    +0.000 A 
ATOM     18  C   UNL     1      45.885   2.419   8.144  0.00  0.00    +0.000 A 
ATOM     19  C   UNL     1      46.096   3.786   7.952  0.00  0.00    +0.000 A 
ATOM     20  C   UNL     1      45.473   4.737   8.766  0.00  0.00    +0.000 A 
ATOM     21  C   UNL     1      44.628   4.256   9.775  0.00  0.00    +0.000 A 
ENDBRANCH  12  13
ENDBRANCH   5  12
TORSDOF 5
ENDMDL
MODEL 3
REMARK VINA RESULT:    -7.161      2.134      6.111
REMARK INTER + INTRA:          -9.451
REMARK INTER:                  -8.868
REMARK INTRA:                  -0.584
REMARK UNBOUND:                -0.407
REMARK  Name = 
REMARK  5 active torsions:
REMARK  status: ('A' for Active; 'I' for Inactive)
REMARK    1  A    between atoms: N_1  and  C_2
REMARK    2  A    between atoms: C_2  and  C_3
REMARK    3  A    between atoms: C_3  and  C_4
REMARK    4  A    between atoms: C_8  and  C_9
REMARK    5  A    between atoms: C_9  and  N_10
REMARK                            x       y       z     vdW  Elec       q    Type
REMARK                         _______ _______ _______ _____ _____    ______ ____
ROOT
ATOM      1  C   UNL     1      45.819   3.525   8.118  0.00  0.00    +0.000 A 
ATOM      2  C   UNL     1      45.625   2.169   8.404  0.00  0.00    +0.000 A 
ATOM      3  C   UNL     1      44.767   1.777   9.432  0.00  0.00    +0.000 A 
ATOM      4  C   UNL     1      44.088   2.740  10.177  0.00  0.00    +0.000 A 
ATOM      5  C   UNL     1      44.254   4.104   9.899  0.00  0.00    +0.000 A 
ATOM      6  C   UNL     1      45.124   4.486   8.868  0.00  0.00    +0.000 A 
ENDROOT
BRANCH   1   7
ATOM      7  C   UNL     1      46.761   3.951   7.014  0.00  0.00    +0.000 C 
BRANCH   7   8
ATOM      8  C   UNL     1      47.145   2.797   6.082  0.00  0.00    +0.000 C 
BRANCH   8   9
ATOM      9  N   UNL     1      48.566   2.479   6.217  0.00  0.00    +0.000 NA
ATOM     10  H   UNL     1      49.055   2.733   5.359  0.00  0.00    +0.000 HD
ATOM     11  H   UNL     1      48.687   1.473   6.325  0.00  0.00    +0.000 HD
ENDBRANCH   8   9
ENDBRANCH   7   8
ENDBRANCH   1   7
BRANCH   5  12
ATOM     12  C   UNL     1      43.474   5.139  10.660  0.00  0.00    +0.000 C 
BRANCH  12  13
ATOM     13  N   UNL     1      44.269   6.028  11.499  0.00  0.00    +0.000 N 
ATOM     14  C   UNL     1      44.534   7.346  11.242  0.00  0.00    +0.000 A 
ATOM     15  N   UNL     1      45.641   7.744  11.827  0.00  0.00    +0.000 NA
ATOM     16  C   UNL     1      46.085   6.654  12.535  0.00  0.00    +0.000 A 
ATOM     17  C   UNL     1      47.266   6.485  13.271  0.00  0.00    +0.000 A 
ATOM     18  C   UNL     1      47.489   5.263  13.918  0.00  0.00    +0.000 A 
ATOM     19  C   UNL     1      46.537   4.244  13.868  0.00  0.00    +0.000 A 
ATOM     20  C   UNL     1      45.362   4.386  13.122  0.00  0.00    +0.000 A 
ATOM     21  C   UNL     1      45.186   5.594  12.434  0.00  0.00    +0.000 A 
ENDBRANCH  12  13
ENDBRANCH   5  12
TORSDOF 5
ENDMDL
MODEL 4
REMARK VINA RESULT:    -6.909      2.443      3.503
REMARK INTER + INTRA:          -9.134
REMARK INTER:                  -8.587
REMARK INTRA:                  -0.548
REMARK UNBOUND:                -0.407
REMARK  Name = 
REMARK  5 active torsions:
REMARK  status: ('A' for Active; 'I' for Inactive)
REMARK    1  A    between atoms: N_1  and  C_2
REMARK    2  A    between atoms: C_2  and  C_3
REMARK    3  A    between atoms: C_3  and  C_4
REMARK    4  A    between atoms: C_8  and  C_9
REMARK    5  A    between atoms: C_9  and  N_10
REMARK                            x       y       z     vdW  Elec       q    Type
REMARK                         _______ _______ _______ _____ _____    ______ ____
ROOT
ATOM      1  C   UNL     1      47.718   7.165  12.319  0.00  0.00    +0.000 A 
ATOM      2  C   UNL     1      48.019   6.233  13.320  0.00  0.00    +0.000 A 
ATOM      3  C   UNL     1      47.077   5.280  13.705  0.00  0.00    +0.000 A 
ATOM      4  C   UNL     1      45.829   5.243  13.087  0.00  0.00    +0.000 A 
ATOM      5  C   UNL     1      45.510   6.156  12.072  0.00  0.00    +0.000 A 
ATOM      6  C   UNL     1      46.461   7.115  11.696  0.00  0.00    +0.000 A 
ENDROOT
BRANCH   1   7
ATOM      7  C   UNL     1      48.733   8.209  11.911  0.00  0.00    +0.000 C 
BRANCH   7   8
ATOM      8  C   UNL     1      50.089   7.605  11.535  0.00  0.00    +0.000 C 
BRANCH   8   9
ATOM      9  N   UNL     1      51.083   7.886  12.571  0.00  0.00    +0.000 NA
ATOM     10  H   UNL     1      50.884   8.791  12.997  0.00  0.00    +0.000 HD
ATOM     11  H   UNL     1      52.007   7.968  12.150  0.00  0.00    +0.000 HD
ENDBRANCH   8   9
ENDBRANCH   7   8
ENDBRANCH   1   7
BRANCH   5  12
ATOM     12  C   UNL     1      44.188   6.077  11.361  0.00  0.00    +0.000 C 
BRANCH  12  13
ATOM     13  N   UNL     1      43.855   4.772  10.803  0.00  0.00    +0.000 N 
ATOM     14  C   UNL     1      43.145   3.789  11.438  0.00  0.00    +0.000 A 
ATOM     15  N   UNL     1      43.432   2.597  10.963  0.00  0.00    +0.000 NA
ATOM     16  C   UNL     1      44.326   2.821   9.946  0.00  0.00    +0.000 A 
ATOM     17  C   UNL     1      45.030   1.902   9.155  0.00  0.00    +0.000 A 
ATOM     18  C   UNL     1      45.891   2.387   8.162  0.00  0.00    +0.000 A 
ATOM     19  C   UNL     1      46.018   3.758   7.934  0.00  0.00    +0.000 A 
ATOM     20  C   UNL     1      45.339   4.691   8.726  0.00  0.00    +0.000 A 
ATOM     21  C   UNL     1      44.530   4.186   9.751  0.00  0.00    +0.000 A 
ENDBRANCH  12  13
ENDBRANCH   5  12
TORSDOF 5
ENDMDL
MODEL 5
REMARK VINA RESULT:    -6.764      2.132      6.355
REMARK INTER + INTRA:          -8.951
REMARK INTER:                  -8.453
REMARK INTRA:                  -0.497
REMARK UNBOUND:                -0.407
REMARK  Name = 
REMARK  5 active torsions:
REMARK  status: ('A' for Active; 'I' for Inactive)
REMARK    1  A    between atoms: N_1  and  C_2
REMARK    2  A    between atoms: C_2  and  C_3
REMARK    3  A    between atoms: C_3  and  C_4
REMARK    4  A    between atoms: C_8  and  C_9
REMARK    5  A    between atoms: C_9  and  N_10
REMARK                            x       y       z     vdW  Elec       q    Type
REMARK                         _______ _______ _______ _____ _____    ______ ____
ROOT
ATOM      1  C   UNL     1      46.006   3.483   7.758  0.00  0.00    +0.000 A 
ATOM      2  C   UNL     1      45.307   2.284   7.940  0.00  0.00    +0.000 A 
ATOM      3  C   UNL     1      44.552   2.073   9.095  0.00  0.00    +0.000 A 
ATOM      4  C   UNL     1      44.482   3.064  10.073  0.00  0.00    +0.000 A 
ATOM      5  C   UNL     1      45.162   4.279   9.905  0.00  0.00    +0.000 A 
ATOM      6  C   UNL     1      45.922   4.478   8.745  0.00  0.00    +0.000 A 
ENDROOT
BRANCH   1   7
ATOM      7  C   UNL     1      46.836   3.707   6.514  0.00  0.00    +0.000 C 
BRANCH   7   8
ATOM      8  C   UNL     1      47.005   2.436   5.676  0.00  0.00    +0.000 C 
BRANCH   8   9
ATOM      9  N   UNL     1      48.383   1.950   5.751  0.00  0.00    +0.000 NA
ATOM     10  H   UNL     1      48.418   1.112   6.330  0.00  0.00    +0.000 HD
ATOM     11  H   UNL     1      48.968   2.642   6.216  0.00  0.00    +0.000 HD
ENDBRANCH   8   9
ENDBRANCH   7   8
ENDBRANCH   1   7
BRANCH   5  12
ATOM     12  C   UNL     1      45.036   5.372  10.929  0.00  0.00    +0.000 C 
BRANCH  12  13
ATOM     13  N   UNL     1      45.980   5.301  12.038  0.00  0.00    +0.000 N 
ATOM     14  C   UNL     1      45.792   4.612  13.206  0.00  0.00    +0.000 A 
ATOM     15  N   UNL     1      46.501   5.119  14.190  0.00  0.00    +0.000 NA
ATOM     16  C   UNL     1      47.216   6.146  13.626  0.00  0.00    +0.000 A 
ATOM     17  C   UNL     1      48.065   7.084  14.231  0.00  0.00    +0.000 A 
ATOM     18  C   UNL     1      48.693   8.043  13.427  0.00  0.00    +0.000 A 
ATOM     19  C   UNL     1      48.513   8.044  12.043  0.00  0.00    +0.000 A 
ATOM     20  C   UNL     1      47.655   7.129  11.423  0.00  0.00    +0.000 A 
ATOM     21  C   UNL     1      46.991   6.217  12.253  0.00  0.00    +0.000 A 
ENDBRANCH  12  13
ENDBRANCH   5  12
TORSDOF 5
ENDMDL
MODEL 6
REMARK VINA RESULT:    -6.568      1.881      6.135
REMARK INTER + INTRA:          -8.703
REMARK INTER:                  -8.262
REMARK INTRA:                  -0.441
REMARK UNBOUND:                -0.407
REMARK  Name = 
REMARK  5 active torsions:
REMARK  status: ('A' for Active; 'I' for Inactive)
REMARK    1  A    between atoms: N_1  and  C_2
REMARK    2  A    between atoms: C_2  and  C_3
REMARK    3  A    between atoms: C_3  and  C_4
REMARK    4  A    between atoms: C_8  and  C_9
REMARK    5  A    between atoms: C_9  and  N_10
REMARK                            x       y       z     vdW  Elec       q    Type
REMARK                         _______ _______ _______ _____ _____    ______ ____
ROOT
ATOM      1  C   UNL     1      46.349   2.255   7.733  0.00  0.00    +0.000 A 
ATOM      2  C   UNL     1      46.662   3.573   7.379  0.00  0.00    +0.000 A 
ATOM      3  C   UNL     1      46.042   4.644   8.022  0.00  0.00    +0.000 A 
ATOM      4  C   UNL     1      45.110   4.408   9.031  0.00  0.00    +0.000 A 
ATOM      5  C   UNL     1      44.792   3.097   9.413  0.00  0.00    +0.000 A 
ATOM      6  C   UNL     1      45.416   2.027   8.756  0.00  0.00    +0.000 A 
ENDROOT
BRANCH   1   7
ATOM      7  C   UNL     1      47.009   1.092   7.026  0.00  0.00    +0.000 C 
BRANCH   7   8
ATOM      8  C   UNL     1      46.854  -0.230   7.783  0.00  0.00    +0.000 C 
BRANCH   8   9
ATOM      9  N   UNL     1      46.549  -1.320   6.857  0.00  0.00    +0.000 NA
ATOM     10  H   UNL     1      45.773  -1.048   6.254  0.00  0.00    +0.000 HD
ATOM     11  H   UNL     1      46.232  -2.137   7.377  0.00  0.00    +0.000 HD
ENDBRANCH   8   9
ENDBRANCH   7   8
ENDBRANCH   1   7
BRANCH   5  12
ATOM     12  C   UNL     1      43.835   2.841  10.544  0.00  0.00    +0.000 C 
BRANCH  12  13
ATOM     13  N   UNL     1      43.858   3.828  11.617  0.00  0.00    +0.000 N 
ATOM     14  C   UNL     1      43.059   4.937  11.701  0.00  0.00    +0.000 A 
ATOM     15  N   UNL     1      43.613   5.882  12.427  0.00  0.00    +0.000 NA
ATOM     16  C   UNL     1      44.796   5.346  12.874  0.00  0.00    +0.000 A 
ATOM     17  C   UNL     1      45.826   5.944  13.613  0.00  0.00    +0.000 A 
ATOM     18  C   UNL     1      46.944   5.174  13.957  0.00  0.00    +0.000 A 
ATOM     19  C   UNL     1      47.016   3.824  13.608  0.00  0.00    +0.000 A 
ATOM     20  C   UNL     1      46.007   3.215  12.854  0.00  0.00    +0.000 A 
ATOM     21  C   UNL     1      44.927   4.020  12.470  0.00  0.00    +0.000 A 
ENDBRANCH  12  13
ENDBRANCH   5  12
TORSDOF 5
ENDMDL
MODEL 7
REMARK VINA RESULT:    -6.550      2.785      6.549
REMARK INTER + INTRA:          -8.680
REMARK INTER:                  -8.209
REMARK INTRA:                  -0.471
REMARK UNBOUND:                -0.407
REMARK  Name = 
REMARK  5 active torsions:
REMARK  status: ('A' for Active; 'I' for Inactive)
REMARK    1  A    between atoms: N_1  and  C_2
REMARK    2  A    between atoms: C_2  and  C_3
REMARK    3  A    between atoms: C_3  and  C_4
REMARK    4  A    between atoms: C_8  and  C_9
REMARK    5  A    between atoms: C_9  and  N_10
REMARK                            x       y       z     vdW  Elec       q    Type
REMARK                         _______ _______ _______ _____ _____    ______ ____
ROOT
ATOM      1  C   UNL     1      45.789   3.416   7.995  0.00  0.00    +0.000 A 
ATOM      2  C   UNL     1      45.392   2.087   8.185  0.00  0.00    +0.000 A 
ATOM      3  C   UNL     1      44.587   1.738   9.270  0.00  0.00    +0.000 A 
ATOM      4  C   UNL     1      44.165   2.717  10.168  0.00  0.00    +0.000 A 
ATOM      5  C   UNL     1      44.537   4.056   9.989  0.00  0.00    +0.000 A 
ATOM      6  C   UNL     1      45.352   4.395   8.899  0.00  0.00    +0.000 A 
ENDROOT
BRANCH   1   7
ATOM      7  C   UNL     1      46.674   3.793   6.827  0.00  0.00    +0.000 C 
BRANCH   7   8
ATOM      8  C   UNL     1      47.208   2.574   6.069  0.00  0.00    +0.000 C 
BRANCH   8   9
ATOM      9  N   UNL     1      48.656   2.456   6.240  0.00  0.00    +0.000 NA
ATOM     10  H   UNL     1      48.901   1.481   6.409  0.00  0.00    +0.000 HD
ATOM     11  H   UNL     1      48.949   2.971   7.070  0.00  0.00    +0.000 HD
ENDBRANCH   8   9
ENDBRANCH   7   8
ENDBRANCH   1   7
BRANCH   5  12
ATOM     12  C   UNL     1      44.031   5.122  10.920  0.00  0.00    +0.000 C 
BRANCH  12  13
ATOM     13  N   UNL     1      45.049   6.013  11.464  0.00  0.00    +0.000 N 
ATOM     14  C   UNL     1      46.024   5.662  12.358  0.00  0.00    +0.000 A 
ATOM     15  N   UNL     1      46.441   6.695  13.054  0.00  0.00    +0.000 NA
ATOM     16  C   UNL     1      45.746   7.769  12.556  0.00  0.00    +0.000 A 
ATOM     17  C   UNL     1      45.729   9.103  12.987  0.00  0.00    +0.000 A 
ATOM     18  C   UNL     1      44.931  10.025  12.299  0.00  0.00    +0.000 A 
ATOM     19  C   UNL     1      44.196   9.636  11.179  0.00  0.00    +0.000 A 
ATOM     20  C   UNL     1      44.183   8.306  10.745  0.00  0.00    +0.000 A 
ATOM     21  C   UNL     1      44.942   7.389  11.484  0.00  0.00    +0.000 A 
ENDBRANCH  12  13
ENDBRANCH   5  12
TORSDOF 5
ENDMDL
MODEL 8
REMARK VINA RESULT:    -6.172      2.399      6.190
REMARK INTER + INTRA:          -8.203
REMARK INTER:                  -7.657
REMARK INTRA:                  -0.545
REMARK UNBOUND:                -0.407
REMARK  Name = 
REMARK  5 active torsions:
REMARK  status: ('A' for Active; 'I' for Inactive)
REMARK    1  A    between atoms: N_1  and  C_2
REMARK    2  A    between atoms: C_2  and  C_3
REMARK    3  A    between atoms: C_3  and  C_4
REMARK    4  A    between atoms: C_8  and  C_9
REMARK    5  A    between atoms: C_9  and  N_10
REMARK                            x       y       z     vdW  Elec       q    Type
REMARK                         _______ _______ _______ _____ _____    ______ ____
ROOT
ATOM      1  C   UNL     1      44.594   3.871   9.902  0.00  0.00    +0.000 A 
ATOM      2  C   UNL     1      43.833   2.827  10.442  0.00  0.00    +0.000 A 
ATOM      3  C   UNL     1      43.582   2.770  11.813  0.00  0.00    +0.000 A 
ATOM      4  C   UNL     1      44.082   3.762  12.655  0.00  0.00    +0.000 A 
ATOM      5  C   UNL     1      44.834   4.825  12.135  0.00  0.00    +0.000 A 
ATOM      6  C   UNL     1      45.086   4.870  10.757  0.00  0.00    +0.000 A 
ENDROOT
BRANCH   1   7
ATOM      7  C   UNL     1      44.879   3.925   8.418  0.00  0.00    +0.000 C 
BRANCH   7   8
ATOM      8  C   UNL     1      46.200   4.628   8.092  0.00  0.00    +0.000 C 
BRANCH   8   9
ATOM      9  N   UNL     1      46.766   4.107   6.847  0.00  0.00    +0.000 NA
ATOM     10  H   UNL     1      46.559   3.112   6.769  0.00  0.00    +0.000 HD
ATOM     11  H   UNL     1      47.782   4.185   6.871  0.00  0.00    +0.000 HD
ENDBRANCH   8   9
ENDBRANCH   7   8
ENDBRANCH   1   7
BRANCH   5  12
ATOM     12  C   UNL     1      45.319   5.929  13.033  0.00  0.00    +0.000 C 
BRANCH  12  13
ATOM     13  N   UNL     1      46.723   5.848  13.420  0.00  0.00    +0.000 N 
ATOM     14  C   UNL     1      47.203   5.297  14.577  0.00  0.00    +0.000 A 
ATOM     15  N   UNL     1      48.370   5.804  14.910  0.00  0.00    +0.000 NA
ATOM     16  C   UNL     1      48.682   6.681  13.901  0.00  0.00    +0.000 A 
ATOM     17  C   UNL     1      49.766   7.561  13.785  0.00  0.00    +0.000 A 
ATOM     18  C   UNL     1      49.868   8.360  12.638  0.00  0.00    +0.000 A 
ATOM     19  C   UNL     1      48.930   8.254  11.610  0.00  0.00    +0.000 A 
ATOM     20  C   UNL     1      47.830   7.396  11.716  0.00  0.00    +0.000 A 
ATOM     21  C   UNL     1      47.717   6.651  12.897  0.00  0.00    +0.000 A 
ENDBRANCH  12  13
ENDBRANCH   5  12
TORSDOF 5
ENDMDL
MODEL 9
REMARK VINA RESULT:    -6.043      2.913      3.995
REMARK INTER + INTRA:          -8.039
REMARK INTER:                  -7.714
REMARK INTRA:                  -0.326
REMARK UNBOUND:                -0.407
REMARK  Name = 
REMARK  5 active torsions:
REMARK  status: ('A' for Active; 'I' for Inactive)
REMARK    1  A    between atoms: N_1  and  C_2
REMARK    2  A    between atoms: C_2  and  C_3
REMARK    3  A    between atoms: C_3  and  C_4
REMARK    4  A    between atoms: C_8  and  C_9
REMARK    5  A    between atoms: C_9  and  N_10
REMARK                            x       y       z     vdW  Elec       q    Type
REMARK                         _______ _______ _______ _____ _____    ______ ____
ROOT
ATOM      1  C   UNL     1      47.611   8.100  12.427  0.00  0.00    +0.000 A 
ATOM      2  C   UNL     1      46.615   9.075  12.295  0.00  0.00    +0.000 A 
ATOM      3  C   UNL     1      45.267   8.722  12.349  0.00  0.00    +0.000 A 
ATOM      4  C   UNL     1      44.902   7.391  12.546  0.00  0.00    +0.000 A 
ATOM      5  C   UNL     1      45.882   6.399  12.695  0.00  0.00    +0.000 A 
ATOM      6  C   UNL     1      47.234   6.764  12.632  0.00  0.00    +0.000 A 
ENDROOT
BRANCH   1   7
ATOM      7  C   UNL     1      49.073   8.480  12.352  0.00  0.00    +0.000 C 
BRANCH   7   8
ATOM      8  C   UNL     1      49.910   7.471  11.562  0.00  0.00    +0.000 C 
BRANCH   8   9
ATOM      9  N   UNL     1      51.333   7.796  11.657  0.00  0.00    +0.000 NA
ATOM     10  H   UNL     1      51.454   8.808  11.622  0.00  0.00    +0.000 HD
ATOM     11  H   UNL     1      51.828   7.422  10.849  0.00  0.00    +0.000 HD
ENDBRANCH   8   9
ENDBRANCH   7   8
ENDBRANCH   1   7
BRANCH   5  12
ATOM     12  C   UNL     1      45.491   4.974  12.970  0.00  0.00    +0.000 C 
BRANCH  12  13
ATOM     13  N   UNL     1      44.617   4.362  11.976  0.00  0.00    +0.000 N 
ATOM     14  C   UNL     1      43.664   3.412  12.225  0.00  0.00    +0.000 A 
ATOM     15  N   UNL     1      43.412   2.684  11.159  0.00  0.00    +0.000 NA
ATOM     16  C   UNL     1      44.196   3.218  10.166  0.00  0.00    +0.000 A 
ATOM     17  C   UNL     1      44.392   2.779   8.849  0.00  0.00    +0.000 A 
ATOM     18  C   UNL     1      45.249   3.509   8.015  0.00  0.00    +0.000 A 
ATOM     19  C   UNL     1      45.865   4.675   8.471  0.00  0.00    +0.000 A 
ATOM     20  C   UNL     1      45.698   5.118   9.788  0.00  0.00    +0.000 A 
ATOM     21  C   UNL     1      44.884   4.340  10.621  0.00  0.00    +0.000 A 
ENDBRANCH  12  13
ENDBRANCH   5  12
TORSDOF 5
ENDMDL
