MODEL 1
REMARK VINA RESULT:    -8.007      0.000      0.000
REMARK INTER + INTRA:         -11.688
REMARK INTER:                 -10.816
REMARK INTRA:                  -0.872
REMARK UNBOUND:                -0.872
REMARK  Name = 
REMARK  7 active torsions:
REMARK  status: ('A' for Active; 'I' for Inactive)
REMARK    1  A    between atoms: C_1  and  C_2
REMARK    2  A    between atoms: N_4  and  C_5
REMARK    3  A    between atoms: C_7  and  C_8
REMARK    4  A    between atoms: C_8  and  C_9
REMARK    5  A    between atoms: C_9  and  N_10
REMARK    6  A    between atoms: C_14  and  C_15
REMARK    7  A    between atoms: C_21  and  C_22
REMARK                            x       y       z     vdW  Elec       q    Type
REMARK                         _______ _______ _______ _____ _____    ______ ____
ROOT
ATOM      1  C   UNL     1      46.619   6.671  12.832  0.00  0.00    +0.000 A 
ATOM      2  C   UNL     1      45.522   5.798  12.725  0.00  0.00    +0.000 A 
ATOM      3  C   UNL     1      44.279   6.204  12.217  0.00  0.00    +0.000 A 
ATOM      4  C   UNL     1      44.136   7.522  11.774  0.00  0.00    +0.000 A 
ATOM      5  C   UNL     1      45.206   8.421  11.847  0.00  0.00    +0.000 A 
ATOM      6  C   UNL     1      46.438   7.976  12.358  0.00  0.00    +0.000 A 
ENDROOT
BRANCH   1  10
ATOM      7  C   UNL     1      49.026   8.851  14.704  0.00  0.00    +0.000 C 
ATOM      8  C   UNL     1      49.724   7.533  14.357  0.00  0.00    +0.000 C 
ATOM      9  C   UNL     1      49.101   6.864  13.102  0.00  0.00    +0.000 C 
ATOM     10  N   UNL     1      47.805   6.240  13.399  0.00  0.00    +0.000 N 
ATOM     11  C   UNL     1      47.777   5.374  14.592  0.00  0.00    +0.000 C 
ATOM     12  C   UNL     1      48.440   6.066  15.807  0.00  0.00    +0.000 C 
ATOM     13  N   UNL     1      49.779   6.628  15.531  0.00  0.00    +0.000 NA
ATOM     14  H   UNL     1      50.390   5.848  15.287  0.00  0.00    +0.000 HD
ENDBRANCH   1  10
BRANCH   5  15
ATOM     15  C   UNL     1      45.041   9.865  11.446  0.00  0.00    +0.000 C 
ATOM     16  F   UNL     1      44.369  10.610  12.367  0.00  0.00    +0.000 F 
ATOM     17  F   UNL     1      46.238  10.493  11.268  0.00  0.00    +0.000 F 
ATOM     18  F   UNL     1      44.363  10.017  10.276  0.00  0.00    +0.000 F 
ENDBRANCH   5  15
BRANCH   3  19
ATOM     19  C   UNL     1      43.098   5.256  12.226  0.00  0.00    +0.000 C 
BRANCH  19  20
ATOM     20  C   UNL     1      43.069   4.304  11.028  0.00  0.00    +0.000 C 
BRANCH  20  21
ATOM     21  N   UNL     1      43.805   4.867   9.880  0.00  0.00    +0.000 N 
ATOM     22  C   UNL     1      44.622   3.907   9.248  0.00  0.00    +0.000 A 
ATOM     23  C   UNL     1      45.403   4.239   8.132  0.00  0.00    +0.000 A 
ATOM     24  N   UNL     1      46.216   3.366   7.471  0.00  0.00    +0.000 NA
ATOM     25  C   UNL     1      46.211   2.104   7.984  0.00  0.00    +0.000 A 
ATOM     26  C   UNL     1      45.442   1.753   9.077  0.00  0.00    +0.000 A 
ATOM     27  N   UNL     1      44.638   2.639   9.716  0.00  0.00    +0.000 NA
ATOM     28  H   UNL     1      44.381   5.660  10.151  0.00  0.00    +0.000 HD
BRANCH  25  29
ATOM     29  C   UNL     1      47.078   1.072   7.346  0.00  0.00    +0.000 C 
ATOM     30  N   UNL     1      46.802  -0.234   7.631  0.00  0.00    +0.000 N 
ATOM     31  O   UNL     1      47.997   1.377   6.596  0.00  0.00    +0.000 OA
ATOM     32  H   UNL     1      46.048  -0.485   8.257  0.00  0.00    +0.000 HD
ATOM     33  H   UNL     1      47.375  -0.950   7.209  0.00  0.00    +0.000 HD
ENDBRANCH  25  29
ENDBRANCH  20  21
ENDBRANCH  19  20
ENDBRANCH   3  19
TORSDOF 6
ENDMDL
MODEL 2
REMARK VINA RESULT:    -7.764      2.197      3.067
REMARK INTER + INTRA:         -11.360
REMARK INTER:                 -10.387
REMARK INTRA:                  -0.972
REMARK UNBOUND:                -0.872
REMARK  Name = 
REMARK  7 active torsions:
REMARK  status: ('A' for Active; 'I' for Inactive)
REMARK    1  A    between atoms: C_1  and  C_2
REMARK    2  A    between atoms: N_4  and  C_5
REMARK    3  A    between atoms: C_7  and  C_8
REMARK    4  A    between atoms: C_8  and  C_9
REMARK    5  A    between atoms: C_9  and  N_10
REMARK    6  A    between atoms: C_14  and  C_15
REMARK    7  A    between atoms: C_21  and  C_22
REMARK                            x       y       z     vdW  Elec       q    Type
REMARK                         _______ _______ _______ _____ _____    ______ ____
ROOT
ATOM      1  C   UNL     1      47.486   5.074  14.875  0.00  0.00    +0.000 A 
ATOM      2  C   UNL     1      46.307   4.490  14.376  0.00  0.00    +0.000 A 
ATOM      3  C   UNL     1      45.559   5.065  13.338  0.00  0.00    +0.000 A 
ATOM      4  C   UNL     1      46.021   6.251  12.759  0.00  0.00    +0.000 A 
ATOM      5  C   UNL     1      47.197   6.858  13.212  0.00  0.00    +0.000 A 
ATOM      6  C   UNL     1      47.923   6.249  14.251  0.00  0.00    +0.000 A 
ENDROOT
BRANCH   1  10
ATOM      7  C   UNL     1      46.764   5.769  18.486  0.00  0.00    +0.000 C 
ATOM      8  C   UNL     1      48.118   5.061  18.382  0.00  0.00    +0.000 C 
ATOM      9  C   UNL     1      48.788   5.297  17.002  0.00  0.00    +0.000 C 
ATOM     10  N   UNL     1      48.154   4.502  15.942  0.00  0.00    +0.000 N 
ATOM     11  C   UNL     1      47.955   3.075  16.255  0.00  0.00    +0.000 C 
ATOM     12  C   UNL     1      47.320   2.886  17.653  0.00  0.00    +0.000 C 
ATOM     13  N   UNL     1      48.002   3.625  18.735  0.00  0.00    +0.000 NA
ATOM     14  H   UNL     1      48.949   3.251  18.806  0.00  0.00    +0.000 HD
ENDBRANCH   1  10
BRANCH   5  15
ATOM     15  C   UNL     1      47.662   8.177  12.649  0.00  0.00    +0.000 C 
ATOM     16  F   UNL     1      46.668   9.103  12.547  0.00  0.00    +0.000 F 
ATOM     17  F   UNL     1      48.628   8.755  13.417  0.00  0.00    +0.000 F 
ATOM     18  F   UNL     1      48.195   8.063  11.402  0.00  0.00    +0.000 F 
ENDBRANCH   5  15
BRANCH   3  19
ATOM     19  C   UNL     1      44.239   4.457  12.914  0.00  0.00    +0.000 C 
BRANCH  19  20
ATOM     20  C   UNL     1      44.062   4.378  11.395  0.00  0.00    +0.000 C 
BRANCH  20  21
ATOM     21  N   UNL     1      44.250   2.999  10.906  0.00  0.00    +0.000 N 
ATOM     22  C   UNL     1      45.009   2.954   9.719  0.00  0.00    +0.000 A 
ATOM     23  C   UNL     1      45.305   1.735   9.091  0.00  0.00    +0.000 A 
ATOM     24  N   UNL     1      46.032   1.615   7.944  0.00  0.00    +0.000 NA
ATOM     25  C   UNL     1      46.472   2.799   7.436  0.00  0.00    +0.000 A 
ATOM     26  C   UNL     1      46.199   4.010   8.043  0.00  0.00    +0.000 A 
ATOM     27  N   UNL     1      45.477   4.105   9.187  0.00  0.00    +0.000 NA
ATOM     28  H   UNL     1      43.362   2.529  10.745  0.00  0.00    +0.000 HD
BRANCH  25  29
ATOM     29  C   UNL     1      47.263   2.783   6.172  0.00  0.00    +0.000 C 
ATOM     30  N   UNL     1      48.609   2.589   6.284  0.00  0.00    +0.000 N 
ATOM     31  O   UNL     1      46.733   2.933   5.077  0.00  0.00    +0.000 OA
ATOM     32  H   UNL     1      49.047   2.472   7.189  0.00  0.00    +0.000 HD
ATOM     33  H   UNL     1      49.165   2.571   5.442  0.00  0.00    +0.000 HD
ENDBRANCH  25  29
ENDBRANCH  20  21
ENDBRANCH  19  20
ENDBRANCH   3  19
TORSDOF 6
ENDMDL
MODEL 3
REMARK VINA RESULT:    -7.543      2.871      6.706
REMARK INTER + INTRA:         -11.062
REMARK INTER:                  -9.813
REMARK INTRA:                  -1.249
REMARK UNBOUND:                -0.872
REMARK  Name = 
REMARK  7 active torsions:
REMARK  status: ('A' for Active; 'I' for Inactive)
REMARK    1  A    between atoms: C_1  and  C_2
REMARK    2  A    between atoms: N_4  and  C_5
REMARK    3  A    between atoms: C_7  and  C_8
REMARK    4  A    between atoms: C_8  and  C_9
REMARK    5  A    between atoms: C_9  and  N_10
REMARK    6  A    between atoms: C_14  and  C_15
REMARK    7  A    between atoms: C_21  and  C_22
REMARK                            x       y       z     vdW  Elec       q    Type
REMARK                         _______ _______ _______ _____ _____    ______ ____
ROOT
ATOM      1  C   UNL     1      44.728   6.882  11.858  0.00  0.00    +0.000 A 
ATOM      2  C   UNL     1      46.069   7.139  12.194  0.00  0.00    +0.000 A 
ATOM      3  C   UNL     1      46.645   8.414  12.086  0.00  0.00    +0.000 A 
ATOM      4  C   UNL     1      45.843   9.474  11.653  0.00  0.00    +0.000 A 
ATOM      5  C   UNL     1      44.500   9.267  11.323  0.00  0.00    +0.000 A 
ATOM      6  C   UNL     1      43.957   7.977  11.448  0.00  0.00    +0.000 A 
ENDROOT
BRANCH   1  10
ATOM      7  C   UNL     1      45.193   4.257   9.223  0.00  0.00    +0.000 C 
ATOM      8  C   UNL     1      44.078   3.808  10.173  0.00  0.00    +0.000 C 
ATOM      9  C   UNL     1      43.387   5.015  10.862  0.00  0.00    +0.000 C 
ATOM     10  N   UNL     1      44.224   5.595  11.921  0.00  0.00    +0.000 N 
ATOM     11  C   UNL     1      44.793   4.629  12.878  0.00  0.00    +0.000 C 
ATOM     12  C   UNL     1      45.438   3.426  12.150  0.00  0.00    +0.000 C 
ATOM     13  N   UNL     1      44.570   2.792  11.136  0.00  0.00    +0.000 NA
ATOM     14  H   UNL     1      43.756   2.418  11.626  0.00  0.00    +0.000 HD
ENDBRANCH   1  10
BRANCH   5  15
ATOM     15  C   UNL     1      43.648  10.387  10.779  0.00  0.00    +0.000 C 
ATOM     16  F   UNL     1      44.373  11.449  10.328  0.00  0.00    +0.000 F 
ATOM     17  F   UNL     1      42.881   9.989   9.725  0.00  0.00    +0.000 F 
ATOM     18  F   UNL     1      42.782  10.890  11.700  0.00  0.00    +0.000 F 
ENDBRANCH   5  15
BRANCH   3  19
ATOM     19  C   UNL     1      48.121   8.615  12.355  0.00  0.00    +0.000 C 
BRANCH  19  20
ATOM     20  C   UNL     1      48.837   7.344  12.821  0.00  0.00    +0.000 C 
BRANCH  20  21
ATOM     21  N   UNL     1      49.364   7.500  14.190  0.00  0.00    +0.000 N 
ATOM     22  C   UNL     1      48.870   6.511  15.066  0.00  0.00    +0.000 A 
ATOM     23  C   UNL     1      49.252   6.479  16.415  0.00  0.00    +0.000 A 
ATOM     24  N   UNL     1      48.816   5.556  17.319  0.00  0.00    +0.000 NA
ATOM     25  C   UNL     1      47.960   4.631  16.802  0.00  0.00    +0.000 A 
ATOM     26  C   UNL     1      47.578   4.639  15.474  0.00  0.00    +0.000 A 
ATOM     27  N   UNL     1      48.028   5.566  14.592  0.00  0.00    +0.000 NA
ATOM     28  H   UNL     1      49.150   8.416  14.578  0.00  0.00    +0.000 HD
BRANCH  25  29
ATOM     29  C   UNL     1      47.409   3.584  17.709  0.00  0.00    +0.000 C 
ATOM     30  N   UNL     1      48.069   3.371  18.885  0.00  0.00    +0.000 N 
ATOM     31  O   UNL     1      46.407   2.942  17.420  0.00  0.00    +0.000 OA
ATOM     32  H   UNL     1      48.901   3.897  19.121  0.00  0.00    +0.000 HD
ATOM     33  H   UNL     1      47.713   2.669  19.517  0.00  0.00    +0.000 HD
ENDBRANCH  25  29
ENDBRANCH  20  21
ENDBRANCH  19  20
ENDBRANCH   3  19
TORSDOF 6
ENDMDL
MODEL 4
REMARK VINA RESULT:    -7.010      3.271      4.276
REMARK INTER + INTRA:         -10.341
REMARK INTER:                 -10.529
REMARK INTRA:                   0.188
REMARK UNBOUND:                -0.872
REMARK  Name = 
REMARK  7 active torsions:
REMARK  status: ('A' for Active; 'I' for Inactive)
REMARK    1  A    between atoms: C_1  and  C_2
REMARK    2  A    between atoms: N_4  and  C_5
REMARK    3  A    between atoms: C_7  and  C_8
REMARK    4  A    between atoms: C_8  and  C_9
REMARK    5  A    between atoms: C_9  and  N_10
REMARK    6  A    between atoms: C_14  and  C_15
REMARK    7  A    between atoms: C_21  and  C_22
REMARK                            x       y       z     vdW  Elec       q    Type
REMARK                         _______ _______ _______ _____ _____    ______ ____
ROOT
ATOM      1  C   UNL     1      47.368   6.200  13.420  0.00  0.00    +0.000 A 
ATOM      2  C   UNL     1      46.472   5.483  12.607  0.00  0.00    +0.000 A 
ATOM      3  C   UNL     1      45.957   4.229  12.971  0.00  0.00    +0.000 A 
ATOM      4  C   UNL     1      46.331   3.686  14.204  0.00  0.00    +0.000 A 
ATOM      5  C   UNL     1      47.209   4.372  15.051  0.00  0.00    +0.000 A 
ATOM      6  C   UNL     1      47.700   5.628  14.654  0.00  0.00    +0.000 A 
ENDROOT
BRANCH   1  10
ATOM      7  C   UNL     1      45.375   9.295  12.718  0.00  0.00    +0.000 C 
ATOM      8  C   UNL     1      46.772   9.461  12.111  0.00  0.00    +0.000 C 
ATOM      9  C   UNL     1      47.423   8.092  11.780  0.00  0.00    +0.000 C 
ATOM     10  N   UNL     1      47.897   7.403  12.988  0.00  0.00    +0.000 N 
ATOM     11  C   UNL     1      48.705   8.223  13.909  0.00  0.00    +0.000 C 
ATOM     12  C   UNL     1      48.038   9.591  14.181  0.00  0.00    +0.000 C 
ATOM     13  N   UNL     1      47.628  10.322  12.963  0.00  0.00    +0.000 NA
ATOM     14  H   UNL     1      48.477  10.527  12.435  0.00  0.00    +0.000 HD
ENDBRANCH   1  10
BRANCH   5  15
ATOM     15  C   UNL     1      47.681   3.760  16.346  0.00  0.00    +0.000 C 
ATOM     16  F   UNL     1      48.171   2.497  16.202  0.00  0.00    +0.000 F 
ATOM     17  F   UNL     1      48.684   4.481  16.923  0.00  0.00    +0.000 F 
ATOM     18  F   UNL     1      46.698   3.675  17.282  0.00  0.00    +0.000 F 
ENDBRANCH   5  15
BRANCH   3  19
ATOM     19  C   UNL     1      45.083   3.449  12.012  0.00  0.00    +0.000 C 
BRANCH  19  20
ATOM     20  C   UNL     1      44.052   4.315  11.282  0.00  0.00    +0.000 C 
BRANCH  20  21
ATOM     21  N   UNL     1      44.675   5.071  10.179  0.00  0.00    +0.000 N 
ATOM     22  C   UNL     1      45.336   4.226   9.262  0.00  0.00    +0.000 A 
ATOM     23  C   UNL     1      45.991   4.747   8.137  0.00  0.00    +0.000 A 
ATOM     24  N   UNL     1      46.649   3.994   7.211  0.00  0.00    +0.000 NA
ATOM     25  C   UNL     1      46.619   2.655   7.457  0.00  0.00    +0.000 A 
ATOM     26  C   UNL     1      45.971   2.121   8.554  0.00  0.00    +0.000 A 
ATOM     27  N   UNL     1      45.319   2.890   9.462  0.00  0.00    +0.000 NA
ATOM     28  H   UNL     1      45.337   5.765  10.520  0.00  0.00    +0.000 HD
BRANCH  25  29
ATOM     29  C   UNL     1      47.323   1.740   6.513  0.00  0.00    +0.000 C 
ATOM     30  N   UNL     1      48.296   2.288   5.728  0.00  0.00    +0.000 N 
ATOM     31  O   UNL     1      47.048   0.548   6.445  0.00  0.00    +0.000 OA
ATOM     32  H   UNL     1      48.518   3.273   5.780  0.00  0.00    +0.000 HD
ATOM     33  H   UNL     1      48.789   1.687   5.083  0.00  0.00    +0.000 HD
ENDBRANCH  25  29
ENDBRANCH  20  21
ENDBRANCH  19  20
ENDBRANCH   3  19
TORSDOF 6
ENDMDL
MODEL 5
REMARK VINA RESULT:    -6.834      3.593      5.930
REMARK INTER + INTRA:         -10.104
REMARK INTER:                  -9.228
REMARK INTRA:                  -0.875
REMARK UNBOUND:                -0.872
REMARK  Name = 
REMARK  7 active torsions:
REMARK  status: ('A' for Active; 'I' for Inactive)
REMARK    1  A    between atoms: C_1  and  C_2
REMARK    2  A    between atoms: N_4  and  C_5
REMARK    3  A    between atoms: C_7  and  C_8
REMARK    4  A    between atoms: C_8  and  C_9
REMARK    5  A    between atoms: C_9  and  N_10
REMARK    6  A    between atoms: C_14  and  C_15
REMARK    7  A    between atoms: C_21  and  C_22
REMARK                            x       y       z     vdW  Elec       q    Type
REMARK                         _______ _______ _______ _____ _____    ______ ____
ROOT
ATOM      1  C   UNL     1      49.119   6.741  17.829  0.00  0.00    +0.000 A 
ATOM      2  C   UNL     1      49.202   6.871  16.432  0.00  0.00    +0.000 A 
ATOM      3  C   UNL     1      48.811   8.037  15.756  0.00  0.00    +0.000 A 
ATOM      4  C   UNL     1      48.347   9.121  16.508  0.00  0.00    +0.000 A 
ATOM      5  C   UNL     1      48.262   9.040  17.902  0.00  0.00    +0.000 A 
ATOM      6  C   UNL     1      48.668   7.858  18.544  0.00  0.00    +0.000 A 
ENDROOT
BRANCH   1  10
ATOM      7  C   UNL     1      47.864   3.361  16.804  0.00  0.00    +0.000 C 
ATOM      8  C   UNL     1      48.492   3.251  18.196  0.00  0.00    +0.000 C 
ATOM      9  C   UNL     1      48.455   4.604  18.955  0.00  0.00    +0.000 C 
ATOM     10  N   UNL     1      49.457   5.548  18.443  0.00  0.00    +0.000 N 
ATOM     11  C   UNL     1      50.820   5.005  18.293  0.00  0.00    +0.000 C 
ATOM     12  C   UNL     1      50.806   3.640  17.565  0.00  0.00    +0.000 C 
ATOM     13  N   UNL     1      49.852   2.661  18.126  0.00  0.00    +0.000 NA
ATOM     14  H   UNL     1      50.149   2.464  19.083  0.00  0.00    +0.000 HD
ENDBRANCH   1  10
BRANCH   5  15
ATOM     15  C   UNL     1      47.690  10.174  18.716  0.00  0.00    +0.000 C 
ATOM     16  F   UNL     1      47.199  11.192  17.956  0.00  0.00    +0.000 F 
ATOM     17  F   UNL     1      46.655   9.772  19.506  0.00  0.00    +0.000 F 
ATOM     18  F   UNL     1      48.601  10.739  19.554  0.00  0.00    +0.000 F 
ENDBRANCH   5  15
BRANCH   3  19
ATOM     19  C   UNL     1      48.815   8.086  14.243  0.00  0.00    +0.000 C 
BRANCH  19  20
ATOM     20  C   UNL     1      47.463   7.733  13.616  0.00  0.00    +0.000 C 
BRANCH  20  21
ATOM     21  N   UNL     1      47.022   6.385  14.022  0.00  0.00    +0.000 N 
ATOM     22  C   UNL     1      46.329   5.719  12.991  0.00  0.00    +0.000 A 
ATOM     23  C   UNL     1      45.827   4.422  13.173  0.00  0.00    +0.000 A 
ATOM     24  N   UNL     1      45.148   3.717  12.224  0.00  0.00    +0.000 NA
ATOM     25  C   UNL     1      44.991   4.379  11.044  0.00  0.00    +0.000 A 
ATOM     26  C   UNL     1      45.484   5.653  10.841  0.00  0.00    +0.000 A 
ATOM     27  N   UNL     1      46.161   6.334  11.799  0.00  0.00    +0.000 NA
ATOM     28  H   UNL     1      46.431   6.412  14.850  0.00  0.00    +0.000 HD
BRANCH  25  29
ATOM     29  C   UNL     1      44.246   3.705   9.942  0.00  0.00    +0.000 C 
ATOM     30  N   UNL     1      44.096   4.402   8.778  0.00  0.00    +0.000 N 
ATOM     31  O   UNL     1      43.791   2.575  10.068  0.00  0.00    +0.000 OA
ATOM     32  H   UNL     1      44.466   5.338   8.676  0.00  0.00    +0.000 HD
ATOM     33  H   UNL     1      43.598   3.964   8.016  0.00  0.00    +0.000 HD
ENDBRANCH  25  29
ENDBRANCH  20  21
ENDBRANCH  19  20
ENDBRANCH   3  19
TORSDOF 6
ENDMDL
MODEL 6
REMARK VINA RESULT:    -6.763      4.322      6.378
REMARK INTER + INTRA:         -10.008
REMARK INTER:                  -8.842
REMARK INTRA:                  -1.166
REMARK UNBOUND:                -0.872
REMARK  Name = 
REMARK  7 active torsions:
REMARK  status: ('A' for Active; 'I' for Inactive)
REMARK    1  A    between atoms: C_1  and  C_2
REMARK    2  A    between atoms: N_4  and  C_5
REMARK    3  A    between atoms: C_7  and  C_8
REMARK    4  A    between atoms: C_8  and  C_9
REMARK    5  A    between atoms: C_9  and  N_10
REMARK    6  A    between atoms: C_14  and  C_15
REMARK    7  A    between atoms: C_21  and  C_22
REMARK                            x       y       z     vdW  Elec       q    Type
REMARK                         _______ _______ _______ _____ _____    ______ ____
ROOT
ATOM      1  C   UNL     1      49.226   6.161  16.538  0.00  0.00    +0.000 A 
ATOM      2  C   UNL     1      48.658   6.974  15.541  0.00  0.00    +0.000 A 
ATOM      3  C   UNL     1      49.426   7.812  14.719  0.00  0.00    +0.000 A 
ATOM      4  C   UNL     1      50.815   7.816  14.881  0.00  0.00    +0.000 A 
ATOM      5  C   UNL     1      51.424   7.011  15.849  0.00  0.00    +0.000 A 
ATOM      6  C   UNL     1      50.622   6.181  16.651  0.00  0.00    +0.000 A 
ENDROOT
BRANCH   1  10
ATOM      7  C   UNL     1      49.799   2.552  17.371  0.00  0.00    +0.000 C 
ATOM      8  C   UNL     1      48.372   2.931  17.779  0.00  0.00    +0.000 C 
ATOM      9  C   UNL     1      47.830   4.122  16.944  0.00  0.00    +0.000 C 
ATOM     10  N   UNL     1      48.420   5.400  17.365  0.00  0.00    +0.000 N 
ATOM     11  C   UNL     1      48.408   5.655  18.817  0.00  0.00    +0.000 C 
ATOM     12  C   UNL     1      48.920   4.430  19.611  0.00  0.00    +0.000 C 
ATOM     13  N   UNL     1      48.274   3.153  19.242  0.00  0.00    +0.000 NA
ATOM     14  H   UNL     1      47.283   3.239  19.472  0.00  0.00    +0.000 HD
ENDBRANCH   1  10
BRANCH   5  15
ATOM     15  C   UNL     1      52.913   7.066  16.086  0.00  0.00    +0.000 C 
ATOM     16  F   UNL     1      53.362   6.101  16.937  0.00  0.00    +0.000 F 
ATOM     17  F   UNL     1      53.626   6.904  14.936  0.00  0.00    +0.000 F 
ATOM     18  F   UNL     1      53.323   8.250  16.615  0.00  0.00    +0.000 F 
ENDBRANCH   5  15
BRANCH   3  19
ATOM     19  C   UNL     1      48.756   8.750  13.737  0.00  0.00    +0.000 C 
BRANCH  19  20
ATOM     20  C   UNL     1      47.273   8.443  13.513  0.00  0.00    +0.000 C 
BRANCH  20  21
ATOM     21  N   UNL     1      47.023   8.003  12.127  0.00  0.00    +0.000 N 
ATOM     22  C   UNL     1      46.319   6.782  12.075  0.00  0.00    +0.000 A 
ATOM     23  C   UNL     1      45.978   6.192  10.849  0.00  0.00    +0.000 A 
ATOM     24  N   UNL     1      45.301   5.015  10.722  0.00  0.00    +0.000 NA
ATOM     25  C   UNL     1      44.961   4.437  11.907  0.00  0.00    +0.000 A 
ATOM     26  C   UNL     1      45.279   5.006  13.125  0.00  0.00    +0.000 A 
ATOM     27  N   UNL     1      45.951   6.180  13.227  0.00  0.00    +0.000 NA
ATOM     28  H   UNL     1      47.886   7.906  11.597  0.00  0.00    +0.000 HD
BRANCH  25  29
ATOM     29  C   UNL     1      44.232   3.136  11.882  0.00  0.00    +0.000 C 
ATOM     30  N   UNL     1      44.220   2.454  10.700  0.00  0.00    +0.000 N 
ATOM     31  O   UNL     1      43.669   2.693  12.876  0.00  0.00    +0.000 OA
ATOM     32  H   UNL     1      44.679   2.823   9.877  0.00  0.00    +0.000 HD
ATOM     33  H   UNL     1      43.735   1.569  10.659  0.00  0.00    +0.000 HD
ENDBRANCH  25  29
ENDBRANCH  20  21
ENDBRANCH  19  20
ENDBRANCH   3  19
TORSDOF 6
ENDMDL
MODEL 7
REMARK VINA RESULT:    -6.606      4.817      7.171
REMARK INTER + INTRA:          -9.795
REMARK INTER:                  -8.684
REMARK INTRA:                  -1.111
REMARK UNBOUND:                -0.872
REMARK  Name = 
REMARK  7 active torsions:
REMARK  status: ('A' for Active; 'I' for Inactive)
REMARK    1  A    between atoms: C_1  and  C_2
REMARK    2  A    between atoms: N_4  and  C_5
REMARK    3  A    between atoms: C_7  and  C_8
REMARK    4  A    between atoms: C_8  and  C_9
REMARK    5  A    between atoms: C_9  and  N_10
REMARK    6  A    between atoms: C_14  and  C_15
REMARK    7  A    between atoms: C_21  and  C_22
REMARK                            x       y       z     vdW  Elec       q    Type
REMARK                         _______ _______ _______ _____ _____    ______ ____
ROOT
ATOM      1  C   UNL     1      49.882   5.823  18.704  0.00  0.00    +0.000 A 
ATOM      2  C   UNL     1      49.596   6.857  17.795  0.00  0.00    +0.000 A 
ATOM      3  C   UNL     1      48.879   6.645  16.608  0.00  0.00    +0.000 A 
ATOM      4  C   UNL     1      48.407   5.357  16.335  0.00  0.00    +0.000 A 
ATOM      5  C   UNL     1      48.655   4.302  17.218  0.00  0.00    +0.000 A 
ATOM      6  C   UNL     1      49.373   4.554  18.400  0.00  0.00    +0.000 A 
ENDROOT
BRANCH   1  10
ATOM      7  C   UNL     1      52.925   3.878  19.708  0.00  0.00    +0.000 C 
ATOM      8  C   UNL     1      52.464   4.721  20.900  0.00  0.00    +0.000 C 
ATOM      9  C   UNL     1      50.947   5.039  20.831  0.00  0.00    +0.000 C 
ATOM     10  N   UNL     1      50.647   6.071  19.829  0.00  0.00    +0.000 N 
ATOM     11  C   UNL     1      51.490   7.279  19.894  0.00  0.00    +0.000 C 
ATOM     12  C   UNL     1      52.990   6.916  20.000  0.00  0.00    +0.000 C 
ATOM     13  N   UNL     1      53.306   5.933  21.058  0.00  0.00    +0.000 NA
ATOM     14  H   UNL     1      53.059   6.362  21.951  0.00  0.00    +0.000 HD
ENDBRANCH   1  10
BRANCH   5  15
ATOM     15  C   UNL     1      48.219   2.894  16.895  0.00  0.00    +0.000 C 
ATOM     16  F   UNL     1      47.189   2.455  17.672  0.00  0.00    +0.000 F 
ATOM     17  F   UNL     1      47.791   2.768  15.608  0.00  0.00    +0.000 F 
ATOM     18  F   UNL     1      49.217   1.982  17.047  0.00  0.00    +0.000 F 
ENDBRANCH   5  15
BRANCH   3  19
ATOM     19  C   UNL     1      48.694   7.768  15.611  0.00  0.00    +0.000 C 
BRANCH  19  20
ATOM     20  C   UNL     1      48.469   7.281  14.176  0.00  0.00    +0.000 C 
BRANCH  20  21
ATOM     21  N   UNL     1      47.199   7.797  13.631  0.00  0.00    +0.000 N 
ATOM     22  C   UNL     1      46.338   6.759  13.215  0.00  0.00    +0.000 A 
ATOM     23  C   UNL     1      45.077   7.037  12.668  0.00  0.00    +0.000 A 
ATOM     24  N   UNL     1      44.194   6.089  12.245  0.00  0.00    +0.000 NA
ATOM     25  C   UNL     1      44.633   4.809  12.401  0.00  0.00    +0.000 A 
ATOM     26  C   UNL     1      45.868   4.513  12.944  0.00  0.00    +0.000 A 
ATOM     27  N   UNL     1      46.729   5.474  13.363  0.00  0.00    +0.000 NA
ATOM     28  H   UNL     1      47.350   8.430  12.849  0.00  0.00    +0.000 HD
BRANCH  25  29
ATOM     29  C   UNL     1      43.751   3.693  11.953  0.00  0.00    +0.000 C 
ATOM     30  N   UNL     1      43.940   2.477  12.544  0.00  0.00    +0.000 N 
ATOM     31  O   UNL     1      42.890   3.855  11.097  0.00  0.00    +0.000 OA
ATOM     32  H   UNL     1      44.656   2.342  13.247  0.00  0.00    +0.000 HD
ATOM     33  H   UNL     1      43.353   1.707  12.260  0.00  0.00    +0.000 HD
ENDBRANCH  25  29
ENDBRANCH  20  21
ENDBRANCH  19  20
ENDBRANCH   3  19
TORSDOF 6
ENDMDL
MODEL 8
REMARK VINA RESULT:    -6.602      4.383      8.142
REMARK INTER + INTRA:          -9.789
REMARK INTER:                  -8.878
REMARK INTRA:                  -0.911
REMARK UNBOUND:                -0.872
REMARK  Name = 
REMARK  7 active torsions:
REMARK  status: ('A' for Active; 'I' for Inactive)
REMARK    1  A    between atoms: C_1  and  C_2
REMARK    2  A    between atoms: N_4  and  C_5
REMARK    3  A    between atoms: C_7  and  C_8
REMARK    4  A    between atoms: C_8  and  C_9
REMARK    5  A    between atoms: C_9  and  N_10
REMARK    6  A    between atoms: C_14  and  C_15
REMARK    7  A    between atoms: C_21  and  C_22
REMARK                            x       y       z     vdW  Elec       q    Type
REMARK                         _______ _______ _______ _____ _____    ______ ____
ROOT
ATOM      1  C   UNL     1      46.378   6.147  12.315  0.00  0.00    +0.000 A 
ATOM      2  C   UNL     1      46.184   5.233  13.365  0.00  0.00    +0.000 A 
ATOM      3  C   UNL     1      47.080   5.112  14.438  0.00  0.00    +0.000 A 
ATOM      4  C   UNL     1      48.194   5.956  14.476  0.00  0.00    +0.000 A 
ATOM      5  C   UNL     1      48.418   6.891  13.460  0.00  0.00    +0.000 A 
ATOM      6  C   UNL     1      47.495   6.986  12.404  0.00  0.00    +0.000 A 
ENDROOT
BRANCH   1  10
ATOM      7  C   UNL     1      44.944   3.137  10.603  0.00  0.00    +0.000 C 
ATOM      8  C   UNL     1      44.703   4.366   9.721  0.00  0.00    +0.000 C 
ATOM      9  C   UNL     1      45.752   5.479   9.984  0.00  0.00    +0.000 C 
ATOM     10  N   UNL     1      45.499   6.184  11.247  0.00  0.00    +0.000 N 
ATOM     11  C   UNL     1      44.110   6.635  11.453  0.00  0.00    +0.000 C 
ATOM     12  C   UNL     1      43.098   5.507  11.145  0.00  0.00    +0.000 C 
ATOM     13  N   UNL     1      43.304   4.845   9.840  0.00  0.00    +0.000 NA
ATOM     14  H   UNL     1      43.161   5.552   9.117  0.00  0.00    +0.000 HD
ENDBRANCH   1  10
BRANCH   5  15
ATOM     15  C   UNL     1      49.657   7.751  13.449  0.00  0.00    +0.000 C 
ATOM     16  F   UNL     1      50.505   7.491  14.484  0.00  0.00    +0.000 F 
ATOM     17  F   UNL     1      50.395   7.581  12.316  0.00  0.00    +0.000 F 
ATOM     18  F   UNL     1      49.381   9.081  13.518  0.00  0.00    +0.000 F 
ENDBRANCH   5  15
BRANCH   3  19
ATOM     19  C   UNL     1      46.885   4.036  15.485  0.00  0.00    +0.000 C 
BRANCH  19  20
ATOM     20  C   UNL     1      47.997   3.997  16.537  0.00  0.00    +0.000 C 
BRANCH  20  21
ATOM     21  N   UNL     1      48.574   2.644  16.654  0.00  0.00    +0.000 N 
ATOM     22  C   UNL     1      49.911   2.673  17.101  0.00  0.00    +0.000 A 
ATOM     23  C   UNL     1      50.642   1.489  17.283  0.00  0.00    +0.000 A 
ATOM     24  N   UNL     1      51.935   1.439  17.711  0.00  0.00    +0.000 NA
ATOM     25  C   UNL     1      52.485   2.659  17.966  0.00  0.00    +0.000 A 
ATOM     26  C   UNL     1      51.781   3.836  17.802  0.00  0.00    +0.000 A 
ATOM     27  N   UNL     1      50.492   3.861  17.378  0.00  0.00    +0.000 NA
ATOM     28  H   UNL     1      48.534   2.137  15.773  0.00  0.00    +0.000 HD
BRANCH  25  29
ATOM     29  C   UNL     1      53.903   2.720  18.423  0.00  0.00    +0.000 C 
ATOM     30  N   UNL     1      54.263   1.886  19.442  0.00  0.00    +0.000 N 
ATOM     31  O   UNL     1      54.715   3.479  17.909  0.00  0.00    +0.000 OA
ATOM     32  H   UNL     1      53.591   1.263  19.872  0.00  0.00    +0.000 HD
ATOM     33  H   UNL     1      55.219   1.907  19.767  0.00  0.00    +0.000 HD
ENDBRANCH  25  29
ENDBRANCH  20  21
ENDBRANCH  19  20
ENDBRANCH   3  19
TORSDOF 6
ENDMDL
MODEL 9
REMARK VINA RESULT:    -6.437      4.399      6.202
REMARK INTER + INTRA:          -9.568
REMARK INTER:                  -8.575
REMARK INTRA:                  -0.993
REMARK UNBOUND:                -0.872
REMARK  Name = 
REMARK  7 active torsions:
REMARK  status: ('A' for Active; 'I' for Inactive)
REMARK    1  A    between atoms: C_1  and  C_2
REMARK    2  A    between atoms: N_4  and  C_5
REMARK    3  A    between atoms: C_7  and  C_8
REMARK    4  A    between atoms: C_8  and  C_9
REMARK    5  A    between atoms: C_9  and  N_10
REMARK    6  A    between atoms: C_14  and  C_15
REMARK    7  A    between atoms: C_21  and  C_22
REMARK                            x       y       z     vdW  Elec       q    Type
REMARK                         _______ _______ _______ _____ _____    ______ ____
ROOT
ATOM      1  C   UNL     1      48.919   6.912  17.794  0.00  0.00    +0.000 A 
ATOM      2  C   UNL     1      48.850   7.413  16.482  0.00  0.00    +0.000 A 
ATOM      3  C   UNL     1      48.517   6.609  15.381  0.00  0.00    +0.000 A 
ATOM      4  C   UNL     1      48.213   5.263  15.605  0.00  0.00    +0.000 A 
ATOM      5  C   UNL     1      48.253   4.726  16.896  0.00  0.00    +0.000 A 
ATOM      6  C   UNL     1      48.587   5.563  17.974  0.00  0.00    +0.000 A 
ENDROOT
BRANCH   1  10
ATOM      7  C   UNL     1      47.614  10.367  18.431  0.00  0.00    +0.000 C 
ATOM      8  C   UNL     1      48.884  10.160  19.262  0.00  0.00    +0.000 C 
ATOM      9  C   UNL     1      49.819   9.094  18.630  0.00  0.00    +0.000 C 
ATOM     10  N   UNL     1      49.315   7.730  18.836  0.00  0.00    +0.000 N 
ATOM     11  C   UNL     1      48.915   7.405  20.218  0.00  0.00    +0.000 C 
ATOM     12  C   UNL     1      48.015   8.510  20.820  0.00  0.00    +0.000 C 
ATOM     13  N   UNL     1      48.557   9.878  20.681  0.00  0.00    +0.000 NA
ATOM     14  H   UNL     1      49.430   9.912  21.209  0.00  0.00    +0.000 HD
ENDBRANCH   1  10
BRANCH   5  15
ATOM     15  C   UNL     1      48.005   3.258  17.139  0.00  0.00    +0.000 C 
ATOM     16  F   UNL     1      48.230   2.482  16.042  0.00  0.00    +0.000 F 
ATOM     17  F   UNL     1      48.807   2.753  18.119  0.00  0.00    +0.000 F 
ATOM     18  F   UNL     1      46.729   2.993  17.528  0.00  0.00    +0.000 F 
ENDBRANCH   5  15
BRANCH   3  19
ATOM     19  C   UNL     1      48.565   7.171  13.976  0.00  0.00    +0.000 C 
BRANCH  19  20
ATOM     20  C   UNL     1      47.224   7.733  13.495  0.00  0.00    +0.000 C 
BRANCH  20  21
ATOM     21  N   UNL     1      47.049   7.529  12.045  0.00  0.00    +0.000 N 
ATOM     22  C   UNL     1      46.283   6.379  11.759  0.00  0.00    +0.000 A 
ATOM     23  C   UNL     1      45.998   6.008  10.437  0.00  0.00    +0.000 A 
ATOM     24  N   UNL     1      45.266   4.912  10.084  0.00  0.00    +0.000 NA
ATOM     25  C   UNL     1      44.811   4.183  11.140  0.00  0.00    +0.000 A 
ATOM     26  C   UNL     1      45.073   4.536  12.449  0.00  0.00    +0.000 A 
ATOM     27  N   UNL     1      45.801   5.633  12.777  0.00  0.00    +0.000 NA
ATOM     28  H   UNL     1      47.941   7.457  11.561  0.00  0.00    +0.000 HD
BRANCH  25  29
ATOM     29  C   UNL     1      44.013   2.953  10.866  0.00  0.00    +0.000 C 
ATOM     30  N   UNL     1      44.486   2.109   9.903  0.00  0.00    +0.000 N 
ATOM     31  O   UNL     1      42.981   2.704  11.477  0.00  0.00    +0.000 OA
ATOM     32  H   UNL     1      45.335   2.318   9.394  0.00  0.00    +0.000 HD
ATOM     33  H   UNL     1      43.964   1.267   9.702  0.00  0.00    +0.000 HD
ENDBRANCH  25  29
ENDBRANCH  20  21
ENDBRANCH  19  20
ENDBRANCH   3  19
TORSDOF 6
ENDMDL
