MODEL 1
REMARK VINA RESULT:    -8.118      0.000      0.000
REMARK INTER + INTRA:         -11.194
REMARK INTER:                 -10.491
REMARK INTRA:                  -0.703
REMARK UNBOUND:                -0.703
REMARK  Name = 
REMARK  7 active torsions:
REMARK  status: ('A' for Active; 'I' for Inactive)
REMARK    1  A    between atoms: C_1  and  S_2
REMARK    2  A    between atoms: S_2  and  C_3
REMARK    3  A    between atoms: C_6  and  C_7
REMARK    4  A    between atoms: C_7  and  C_8
REMARK    5  A    between atoms: C_7  and  N_9
REMARK    6  A    between atoms: N_9  and  C_10
REMARK    7  A    between atoms: C_13  and  C_14
REMARK                            x       y       z     vdW  Elec       q    Type
REMARK                         _______ _______ _______ _____ _____    ______ ____
ROOT
ATOM      1  N   UNL     1      43.703   4.755   9.932  0.00  0.00    +0.000 N 
ATOM      2  H   UNL     1      43.812   5.711   9.598  0.00  0.00    +0.000 HD
ENDROOT
BRANCH   1   3
ATOM      3  C   UNL     1      44.643   3.925   9.309  0.00  0.00    +0.000 A 
ATOM      4  C   UNL     1      44.687   2.534   9.437  0.00  0.00    +0.000 A 
ATOM      5  C   UNL     1      45.591   1.758   8.695  0.00  0.00    +0.000 A 
ATOM      6  C   UNL     1      46.462   2.357   7.782  0.00  0.00    +0.000 A 
ATOM      7  C   UNL     1      46.432   3.743   7.631  0.00  0.00    +0.000 A 
ATOM      8  C   UNL     1      45.520   4.509   8.374  0.00  0.00    +0.000 A 
BRANCH   6   9
ATOM      9  C   UNL     1      47.393   1.488   7.013  0.00  0.00    +0.000 C 
ATOM     10  N   UNL     1      48.469   2.082   6.414  0.00  0.00    +0.000 N 
ATOM     11  O   UNL     1      47.192   0.286   6.883  0.00  0.00    +0.000 OA
ATOM     12  H   UNL     1      48.537   3.082   6.283  0.00  0.00    +0.000 HD
ATOM     13  H   UNL     1      49.021   1.492   5.804  0.00  0.00    +0.000 HD
ENDBRANCH   6   9
ENDBRANCH   1   3
BRANCH   1  14
ATOM     14  C   UNL     1      43.496   4.741  11.395  0.00  0.00    +0.000 C 
ATOM     15  C   UNL     1      42.283   5.587  11.797  0.00  0.00    +0.000 C 
BRANCH  14  19
ATOM     16  C   UNL     1      47.043   6.336  13.263  0.00  0.00    +0.000 A 
ATOM     17  C   UNL     1      46.718   4.996  13.457  0.00  0.00    +0.000 A 
ATOM     18  C   UNL     1      45.558   4.471  12.883  0.00  0.00    +0.000 A 
ATOM     19  C   UNL     1      44.744   5.296  12.102  0.00  0.00    +0.000 A 
ATOM     20  N   UNL     1      45.039   6.607  11.912  0.00  0.00    +0.000 NA
ATOM     21  C   UNL     1      46.174   7.089  12.483  0.00  0.00    +0.000 A 
BRANCH  16  23
ATOM     22  C   UNL     1      49.453   7.360  12.417  0.00  0.00    +0.000 C 
ATOM     23  S   UNL     1      48.550   6.991  13.943  0.00  0.00    +0.000 S 
ENDBRANCH  16  23
ENDBRANCH  14  19
ENDBRANCH   1  14
TORSDOF 5
ENDMDL
MODEL 2
REMARK VINA RESULT:    -8.067      0.896      1.642
REMARK INTER + INTRA:         -11.129
REMARK INTER:                 -10.476
REMARK INTRA:                  -0.652
REMARK UNBOUND:                -0.703
REMARK  Name = 
REMARK  7 active torsions:
REMARK  status: ('A' for Active; 'I' for Inactive)
REMARK    1  A    between atoms: C_1  and  S_2
REMARK    2  A    between atoms: S_2  and  C_3
REMARK    3  A    between atoms: C_6  and  C_7
REMARK    4  A    between atoms: C_7  and  C_8
REMARK    5  A    between atoms: C_7  and  N_9
REMARK    6  A    between atoms: N_9  and  C_10
REMARK    7  A    between atoms: C_13  and  C_14
REMARK                            x       y       z     vdW  Elec       q    Type
REMARK                         _______ _______ _______ _____ _____    ______ ____
ROOT
ATOM      1  N   UNL     1      43.763   4.844   9.875  0.00  0.00    +0.000 N 
ATOM      2  H   UNL     1      43.924   5.816   9.620  0.00  0.00    +0.000 HD
ENDROOT
BRANCH   1   3
ATOM      3  C   UNL     1      44.594   4.011   9.117  0.00  0.00    +0.000 A 
ATOM      4  C   UNL     1      45.585   4.460   8.239  0.00  0.00    +0.000 A 
ATOM      5  C   UNL     1      46.453   3.566   7.594  0.00  0.00    +0.000 A 
ATOM      6  C   UNL     1      46.368   2.193   7.834  0.00  0.00    +0.000 A 
ATOM      7  C   UNL     1      45.393   1.721   8.712  0.00  0.00    +0.000 A 
ATOM      8  C   UNL     1      44.533   2.625   9.355  0.00  0.00    +0.000 A 
BRANCH   6   9
ATOM      9  C   UNL     1      47.320   1.289   7.134  0.00  0.00    +0.000 C 
ATOM     10  N   UNL     1      48.332   1.865   6.417  0.00  0.00    +0.000 N 
ATOM     11  O   UNL     1      47.190   0.072   7.160  0.00  0.00    +0.000 OA
ATOM     12  H   UNL     1      48.332   2.843   6.162  0.00  0.00    +0.000 HD
ATOM     13  H   UNL     1      48.896   1.236   5.857  0.00  0.00    +0.000 HD
ENDBRANCH   6   9
ENDBRANCH   1   3
BRANCH   1  14
ATOM     14  C   UNL     1      43.650   4.709  11.343  0.00  0.00    +0.000 C 
ATOM     15  C   UNL     1      42.433   5.468  11.883  0.00  0.00    +0.000 C 
BRANCH  14  19
ATOM     16  C   UNL     1      47.142   6.263  13.344  0.00  0.00    +0.000 A 
ATOM     17  C   UNL     1      46.644   6.934  12.231  0.00  0.00    +0.000 A 
ATOM     18  C   UNL     1      45.531   6.429  11.554  0.00  0.00    +0.000 A 
ATOM     19  C   UNL     1      44.918   5.261  12.015  0.00  0.00    +0.000 A 
ATOM     20  N   UNL     1      45.397   4.587  13.092  0.00  0.00    +0.000 NA
ATOM     21  C   UNL     1      46.481   5.103  13.729  0.00  0.00    +0.000 A 
BRANCH  16  23
ATOM     22  C   UNL     1      47.929   8.628  14.511  0.00  0.00    +0.000 C 
ATOM     23  S   UNL     1      48.521   6.937  14.242  0.00  0.00    +0.000 S 
ENDBRANCH  16  23
ENDBRANCH  14  19
ENDBRANCH   1  14
TORSDOF 5
ENDMDL
MODEL 3
REMARK VINA RESULT:    -6.510      3.387      6.354
REMARK INTER + INTRA:          -9.116
REMARK INTER:                  -9.178
REMARK INTRA:                   0.062
REMARK UNBOUND:                -0.703
REMARK  Name = 
REMARK  7 active torsions:
REMARK  status: ('A' for Active; 'I' for Inactive)
REMARK    1  A    between atoms: C_1  and  S_2
REMARK    2  A    between atoms: S_2  and  C_3
REMARK    3  A    between atoms: C_6  and  C_7
REMARK    4  A    between atoms: C_7  and  C_8
REMARK    5  A    between atoms: C_7  and  N_9
REMARK    6  A    between atoms: N_9  and  C_10
REMARK    7  A    between atoms: C_13  and  C_14
REMARK                            x       y       z     vdW  Elec       q    Type
REMARK                         _______ _______ _______ _____ _____    ______ ____
ROOT
ATOM      1  N   UNL     1      43.980   5.590  10.822  0.00  0.00    +0.000 N 
ATOM      2  H   UNL     1      43.225   6.173  11.179  0.00  0.00    +0.000 HD
ENDROOT
BRANCH   1   3
ATOM      3  C   UNL     1      45.120   5.749  11.618  0.00  0.00    +0.000 A 
ATOM      4  C   UNL     1      46.231   6.524  11.272  0.00  0.00    +0.000 A 
ATOM      5  C   UNL     1      47.292   6.725  12.169  0.00  0.00    +0.000 A 
ATOM      6  C   UNL     1      47.254   6.174  13.451  0.00  0.00    +0.000 A 
ATOM      7  C   UNL     1      46.153   5.404  13.823  0.00  0.00    +0.000 A 
ATOM      8  C   UNL     1      45.095   5.213  12.920  0.00  0.00    +0.000 A 
BRANCH   6   9
ATOM      9  C   UNL     1      48.399   6.427  14.367  0.00  0.00    +0.000 C 
ATOM     10  N   UNL     1      48.185   6.275  15.709  0.00  0.00    +0.000 N 
ATOM     11  O   UNL     1      49.490   6.795  13.948  0.00  0.00    +0.000 OA
ATOM     12  H   UNL     1      47.260   6.222  16.111  0.00  0.00    +0.000 HD
ATOM     13  H   UNL     1      48.943   6.564  16.317  0.00  0.00    +0.000 HD
ENDBRANCH   6   9
ENDBRANCH   1   3
BRANCH   1  14
ATOM     14  C   UNL     1      43.465   4.255  10.452  0.00  0.00    +0.000 C 
ATOM     15  C   UNL     1      43.297   3.358  11.683  0.00  0.00    +0.000 C 
BRANCH  14  19
ATOM     16  C   UNL     1      46.258   2.304   7.804  0.00  0.00    +0.000 A 
ATOM     17  C   UNL     1      46.035   3.672   7.668  0.00  0.00    +0.000 A 
ATOM     18  C   UNL     1      45.114   4.314   8.498  0.00  0.00    +0.000 A 
ATOM     19  C   UNL     1      44.436   3.576   9.472  0.00  0.00    +0.000 A 
ATOM     20  N   UNL     1      44.631   2.239   9.612  0.00  0.00    +0.000 NA
ATOM     21  C   UNL     1      45.534   1.644   8.790  0.00  0.00    +0.000 A 
BRANCH  16  23
ATOM     22  C   UNL     1      47.540   2.651   5.394  0.00  0.00    +0.000 C 
ATOM     23  S   UNL     1      47.475   1.498   6.790  0.00  0.00    +0.000 S 
ENDBRANCH  16  23
ENDBRANCH  14  19
ENDBRANCH   1  14
TORSDOF 5
ENDMDL
MODEL 4
REMARK VINA RESULT:    -6.134      3.774      6.826
REMARK INTER + INTRA:          -8.630
REMARK INTER:                  -8.031
REMARK INTRA:                  -0.598
REMARK UNBOUND:                -0.703
REMARK  Name = 
REMARK  7 active torsions:
REMARK  status: ('A' for Active; 'I' for Inactive)
REMARK    1  A    between atoms: C_1  and  S_2
REMARK    2  A    between atoms: S_2  and  C_3
REMARK    3  A    between atoms: C_6  and  C_7
REMARK    4  A    between atoms: C_7  and  C_8
REMARK    5  A    between atoms: C_7  and  N_9
REMARK    6  A    between atoms: N_9  and  C_10
REMARK    7  A    between atoms: C_13  and  C_14
REMARK                            x       y       z     vdW  Elec       q    Type
REMARK                         _______ _______ _______ _____ _____    ______ ____
ROOT
ATOM      1  N   UNL     1      45.149   5.303  11.978  0.00  0.00    +0.000 N 
ATOM      2  H   UNL     1      45.833   4.556  12.082  0.00  0.00    +0.000 HD
ENDROOT
BRANCH   1   3
ATOM      3  C   UNL     1      45.791   6.546  12.026  0.00  0.00    +0.000 A 
ATOM      4  C   UNL     1      45.202   7.730  12.476  0.00  0.00    +0.000 A 
ATOM      5  C   UNL     1      45.942   8.917  12.599  0.00  0.00    +0.000 A 
ATOM      6  C   UNL     1      47.305   8.939  12.297  0.00  0.00    +0.000 A 
ATOM      7  C   UNL     1      47.918   7.768  11.853  0.00  0.00    +0.000 A 
ATOM      8  C   UNL     1      47.169   6.586  11.739  0.00  0.00    +0.000 A 
BRANCH   6   9
ATOM      9  C   UNL     1      48.046  10.220  12.454  0.00  0.00    +0.000 C 
ATOM     10  N   UNL     1      48.123  10.759  13.709  0.00  0.00    +0.000 N 
ATOM     11  O   UNL     1      48.541  10.800  11.496  0.00  0.00    +0.000 OA
ATOM     12  H   UNL     1      47.530  10.458  14.469  0.00  0.00    +0.000 HD
ATOM     13  H   UNL     1      48.531  11.684  13.772  0.00  0.00    +0.000 HD
ENDBRANCH   6   9
ENDBRANCH   1   3
BRANCH   1  14
ATOM     14  C   UNL     1      44.177   4.965  10.917  0.00  0.00    +0.000 C 
ATOM     15  C   UNL     1      42.995   4.165  11.474  0.00  0.00    +0.000 C 
BRANCH  14  19
ATOM     16  C   UNL     1      46.181   2.568   7.942  0.00  0.00    +0.000 A 
ATOM     17  C   UNL     1      46.277   3.955   7.873  0.00  0.00    +0.000 A 
ATOM     18  C   UNL     1      45.612   4.747   8.811  0.00  0.00    +0.000 A 
ATOM     19  C   UNL     1      44.868   4.134   9.823  0.00  0.00    +0.000 A 
ATOM     20  N   UNL     1      44.753   2.784   9.899  0.00  0.00    +0.000 NA
ATOM     21  C   UNL     1      45.412   2.041   8.972  0.00  0.00    +0.000 A 
BRANCH  16  23
ATOM     22  C   UNL     1      47.167   2.692   5.376  0.00  0.00    +0.000 C 
ATOM     23  S   UNL     1      47.077   1.558   6.785  0.00  0.00    +0.000 S 
ENDBRANCH  16  23
ENDBRANCH  14  19
ENDBRANCH   1  14
TORSDOF 5
ENDMDL
MODEL 5
REMARK VINA RESULT:    -5.720      4.026      7.035
REMARK INTER + INTRA:          -8.096
REMARK INTER:                  -7.554
REMARK INTRA:                  -0.542
REMARK UNBOUND:                -0.703
REMARK  Name = 
REMARK  7 active torsions:
REMARK  status: ('A' for Active; 'I' for Inactive)
REMARK    1  A    between atoms: C_1  and  S_2
REMARK    2  A    between atoms: S_2  and  C_3
REMARK    3  A    between atoms: C_6  and  C_7
REMARK    4  A    between atoms: C_7  and  C_8
REMARK    5  A    between atoms: C_7  and  N_9
REMARK    6  A    between atoms: N_9  and  C_10
REMARK    7  A    between atoms: C_13  and  C_14
REMARK                            x       y       z     vdW  Elec       q    Type
REMARK                         _______ _______ _______ _____ _____    ______ ____
ROOT
ATOM      1  N   UNL     1      45.652   4.096  13.622  0.00  0.00    +0.000 N 
ATOM      2  H   UNL     1      46.090   3.318  13.131  0.00  0.00    +0.000 HD
ENDROOT
BRANCH   1   3
ATOM      3  C   UNL     1      46.620   4.808  14.341  0.00  0.00    +0.000 A 
ATOM      4  C   UNL     1      47.138   4.419  15.579  0.00  0.00    +0.000 A 
ATOM      5  C   UNL     1      48.186   5.126  16.190  0.00  0.00    +0.000 A 
ATOM      6  C   UNL     1      48.761   6.231  15.559  0.00  0.00    +0.000 A 
ATOM      7  C   UNL     1      48.266   6.634  14.320  0.00  0.00    +0.000 A 
ATOM      8  C   UNL     1      47.222   5.916  13.716  0.00  0.00    +0.000 A 
BRANCH   6   9
ATOM      9  C   UNL     1      49.876   6.938  16.245  0.00  0.00    +0.000 C 
ATOM     10  N   UNL     1      49.556   7.792  17.264  0.00  0.00    +0.000 N 
ATOM     11  O   UNL     1      51.041   6.798  15.893  0.00  0.00    +0.000 OA
ATOM     12  H   UNL     1      48.616   8.127  17.420  0.00  0.00    +0.000 HD
ATOM     13  H   UNL     1      50.318   8.346  17.637  0.00  0.00    +0.000 HD
ENDBRANCH   6   9
ENDBRANCH   1   3
BRANCH   1  14
ATOM     14  C   UNL     1      44.676   4.773  12.743  0.00  0.00    +0.000 C 
ATOM     15  C   UNL     1      43.240   4.348  13.070  0.00  0.00    +0.000 C 
BRANCH  14  19
ATOM     16  C   UNL     1      45.591   3.722   8.660  0.00  0.00    +0.000 A 
ATOM     17  C   UNL     1      45.767   5.038   9.078  0.00  0.00    +0.000 A 
ATOM     18  C   UNL     1      45.449   5.402  10.388  0.00  0.00    +0.000 A 
ATOM     19  C   UNL     1      44.972   4.431  11.274  0.00  0.00    +0.000 A 
ATOM     20  N   UNL     1      44.783   3.145  10.881  0.00  0.00    +0.000 NA
ATOM     21  C   UNL     1      45.102   2.822   9.601  0.00  0.00    +0.000 A 
BRANCH  16  23
ATOM     22  C   UNL     1      46.956   1.714   7.365  0.00  0.00    +0.000 C 
ATOM     23  S   UNL     1      46.052   3.244   7.011  0.00  0.00    +0.000 S 
ENDBRANCH  16  23
ENDBRANCH  14  19
ENDBRANCH   1  14
TORSDOF 5
ENDMDL
MODEL 6
REMARK VINA RESULT:    -5.564      4.850      6.479
REMARK INTER + INTRA:          -7.893
REMARK INTER:                  -7.356
REMARK INTRA:                  -0.537
REMARK UNBOUND:                -0.703
REMARK  Name = 
REMARK  7 active torsions:
REMARK  status: ('A' for Active; 'I' for Inactive)
REMARK    1  A    between atoms: C_1  and  S_2
REMARK    2  A    between atoms: S_2  and  C_3
REMARK    3  A    between atoms: C_6  and  C_7
REMARK    4  A    between atoms: C_7  and  C_8
REMARK    5  A    between atoms: C_7  and  N_9
REMARK    6  A    between atoms: N_9  and  C_10
REMARK    7  A    between atoms: C_13  and  C_14
REMARK                            x       y       z     vdW  Elec       q    Type
REMARK                         _______ _______ _______ _____ _____    ______ ____
ROOT
ATOM      1  N   UNL     1      47.518   5.129  15.470  0.00  0.00    +0.000 N 
ATOM      2  H   UNL     1      48.482   5.383  15.263  0.00  0.00    +0.000 HD
ENDROOT
BRANCH   1   3
ATOM      3  C   UNL     1      46.856   4.777  14.288  0.00  0.00    +0.000 A 
ATOM      4  C   UNL     1      46.715   3.470  13.813  0.00  0.00    +0.000 A 
ATOM      5  C   UNL     1      45.944   3.182  12.676  0.00  0.00    +0.000 A 
ATOM      6  C   UNL     1      45.270   4.200  11.997  0.00  0.00    +0.000 A 
ATOM      7  C   UNL     1      45.390   5.511  12.456  0.00  0.00    +0.000 A 
ATOM      8  C   UNL     1      46.159   5.786  13.597  0.00  0.00    +0.000 A 
BRANCH   6   9
ATOM      9  C   UNL     1      44.458   3.840  10.804  0.00  0.00    +0.000 C 
ATOM     10  N   UNL     1      44.456   2.531  10.407  0.00  0.00    +0.000 N 
ATOM     11  O   UNL     1      43.838   4.684  10.168  0.00  0.00    +0.000 OA
ATOM     12  H   UNL     1      45.135   1.860  10.738  0.00  0.00    +0.000 HD
ATOM     13  H   UNL     1      43.991   2.332   9.530  0.00  0.00    +0.000 HD
ENDBRANCH   6   9
ENDBRANCH   1   3
BRANCH   1  14
ATOM     14  C   UNL     1      47.458   4.283  16.681  0.00  0.00    +0.000 C 
ATOM     15  C   UNL     1      47.070   5.103  17.917  0.00  0.00    +0.000 C 
BRANCH  14  19
ATOM     16  C   UNL     1      51.239   2.349  17.436  0.00  0.00    +0.000 A 
ATOM     17  C   UNL     1      51.039   3.650  17.890  0.00  0.00    +0.000 A 
ATOM     18  C   UNL     1      49.832   4.301  17.630  0.00  0.00    +0.000 A 
ATOM     19  C   UNL     1      48.827   3.630  16.929  0.00  0.00    +0.000 A 
ATOM     20  N   UNL     1      49.008   2.365  16.467  0.00  0.00    +0.000 NA
ATOM     21  C   UNL     1      50.193   1.758  16.737  0.00  0.00    +0.000 A 
BRANCH  16  23
ATOM     22  C   UNL     1      53.504   2.684  18.962  0.00  0.00    +0.000 C 
ATOM     23  S   UNL     1      52.752   1.497  17.819  0.00  0.00    +0.000 S 
ENDBRANCH  16  23
ENDBRANCH  14  19
ENDBRANCH   1  14
TORSDOF 5
ENDMDL
MODEL 7
REMARK VINA RESULT:    -5.461      3.553      5.421
REMARK INTER + INTRA:          -7.761
REMARK INTER:                  -7.283
REMARK INTRA:                  -0.478
REMARK UNBOUND:                -0.703
REMARK  Name = 
REMARK  7 active torsions:
REMARK  status: ('A' for Active; 'I' for Inactive)
REMARK    1  A    between atoms: C_1  and  S_2
REMARK    2  A    between atoms: S_2  and  C_3
REMARK    3  A    between atoms: C_6  and  C_7
REMARK    4  A    between atoms: C_7  and  C_8
REMARK    5  A    between atoms: C_7  and  N_9
REMARK    6  A    between atoms: N_9  and  C_10
REMARK    7  A    between atoms: C_13  and  C_14
REMARK                            x       y       z     vdW  Elec       q    Type
REMARK                         _______ _______ _______ _____ _____    ______ ____
ROOT
ATOM      1  N   UNL     1      46.739   7.541  13.458  0.00  0.00    +0.000 N 
ATOM      2  H   UNL     1      46.331   8.371  13.031  0.00  0.00    +0.000 HD
ENDROOT
BRANCH   1   3
ATOM      3  C   UNL     1      46.210   6.391  12.861  0.00  0.00    +0.000 A 
ATOM      4  C   UNL     1      45.979   5.183  13.525  0.00  0.00    +0.000 A 
ATOM      5  C   UNL     1      45.344   4.106  12.887  0.00  0.00    +0.000 A 
ATOM      6  C   UNL     1      44.900   4.222  11.568  0.00  0.00    +0.000 A 
ATOM      7  C   UNL     1      45.112   5.419  10.887  0.00  0.00    +0.000 A 
ATOM      8  C   UNL     1      45.743   6.492  11.536  0.00  0.00    +0.000 A 
BRANCH   6   9
ATOM      9  C   UNL     1      44.223   3.054  10.942  0.00  0.00    +0.000 C 
ATOM     10  N   UNL     1      44.881   2.403   9.935  0.00  0.00    +0.000 N 
ATOM     11  O   UNL     1      43.100   2.701  11.282  0.00  0.00    +0.000 OA
ATOM     12  H   UNL     1      45.678   2.800   9.458  0.00  0.00    +0.000 HD
ATOM     13  H   UNL     1      44.354   1.686   9.449  0.00  0.00    +0.000 HD
ENDBRANCH   6   9
ENDBRANCH   1   3
BRANCH   1  14
ATOM     14  C   UNL     1      48.193   7.725  13.651  0.00  0.00    +0.000 C 
ATOM     15  C   UNL     1      49.000   6.817  12.716  0.00  0.00    +0.000 C 
BRANCH  14  19
ATOM     16  C   UNL     1      49.155   6.733  17.738  0.00  0.00    +0.000 A 
ATOM     17  C   UNL     1      48.904   8.060  17.402  0.00  0.00    +0.000 A 
ATOM     18  C   UNL     1      48.619   8.403  16.079  0.00  0.00    +0.000 A 
ATOM     19  C   UNL     1      48.571   7.402  15.105  0.00  0.00    +0.000 A 
ATOM     20  N   UNL     1      48.824   6.103  15.411  0.00  0.00    +0.000 NA
ATOM     21  C   UNL     1      49.098   5.802  16.707  0.00  0.00    +0.000 A 
BRANCH  16  23
ATOM     22  C   UNL     1      49.013   4.531  19.382  0.00  0.00    +0.000 C 
ATOM     23  S   UNL     1      49.458   6.286  19.432  0.00  0.00    +0.000 S 
ENDBRANCH  16  23
ENDBRANCH  14  19
ENDBRANCH   1  14
TORSDOF 5
ENDMDL
