MODEL 1
REMARK VINA RESULT:    -7.810      0.000      0.000
REMARK INTER + INTRA:         -12.021
REMARK INTER:                 -11.005
REMARK INTRA:                  -1.015
REMARK UNBOUND:                -1.015
REMARK  Name = 
REMARK  9 active torsions:
REMARK  status: ('A' for Active; 'I' for Inactive)
REMARK    1  A    between atoms: C_1  and  C_2
REMARK    2  A    between atoms: C_2  and  N_3
REMARK    3  A    between atoms: C_2  and  C_27
REMARK    4  A    between atoms: N_3  and  C_4
REMARK    5  A    between atoms: C_4  and  C_5
REMARK    6  A    between atoms: C_8  and  C_9
REMARK    7  A    between atoms: C_9  and  N_10
REMARK    8  A    between atoms: C_11  and  C_13
REMARK    9  A    between atoms: N_19  and  C_20
REMARK                            x       y       z     vdW  Elec       q    Type
REMARK                         _______ _______ _______ _____ _____    ______ ____
ROOT
ATOM      1  C   UNL     1      45.133   4.878  12.078  0.00  0.00    +0.000 A 
ATOM      2  C   UNL     1      46.100   4.493  13.012  0.00  0.00    +0.000 A 
ATOM      3  C   UNL     1      46.982   5.430  13.557  0.00  0.00    +0.000 A 
ATOM      4  C   UNL     1      46.911   6.777  13.187  0.00  0.00    +0.000 A 
ATOM      5  C   UNL     1      45.933   7.156  12.261  0.00  0.00    +0.000 A 
ATOM      6  F   UNL     1      45.828   8.429  11.858  0.00  0.00    +0.000 F 
ATOM      7  C   UNL     1      45.039   6.227  11.723  0.00  0.00    +0.000 A 
ENDROOT
BRANCH   1   8
ATOM      8  C   UNL     1      44.204   3.840  11.503  0.00  0.00    +0.000 C 
BRANCH   8   9
ATOM      9  N   UNL     1      44.910   2.808  10.738  0.00  0.00    +0.000 NA
ATOM     10  H   UNL     1      44.698   1.888  11.123  0.00  0.00    +0.000 HD
BRANCH   9  12
ATOM     11  C   UNL     1      44.129   4.244   8.938  0.00  0.00    +0.000 C 
ATOM     12  C   UNL     1      44.561   2.817   9.299  0.00  0.00    +0.000 C 
BRANCH  12  13
ATOM     13  C   UNL     1      45.729   2.355   8.418  0.00  0.00    +0.000 A 
ATOM     14  C   UNL     1      46.429   3.262   7.622  0.00  0.00    +0.000 A 
ATOM     15  N   UNL     1      47.393   2.902   6.734  0.00  0.00    +0.000 NA
ATOM     16  C   UNL     1      47.670   1.582   6.694  0.00  0.00    +0.000 A 
ATOM     17  C   UNL     1      47.029   0.672   7.516  0.00  0.00    +0.000 A 
ATOM     18  N   UNL     1      46.047   1.032   8.383  0.00  0.00    +0.000 NA
ENDBRANCH  12  13
ENDBRANCH   9  12
ENDBRANCH   8   9
ENDBRANCH   1   8
BRANCH   4  19
ATOM     19  C   UNL     1      47.872   7.761  13.791  0.00  0.00    +0.000 C 
BRANCH  19  20
ATOM     20  N   UNL     1      47.907   7.657  15.227  0.00  0.00    +0.000 N 
ATOM     21  C   UNL     1      48.866   8.227  16.002  0.00  0.00    +0.000 C 
ATOM     22  O   UNL     1      49.734   8.995  15.557  0.00  0.00    +0.000 OA
ATOM     23  H   UNL     1      47.159   7.145  15.672  0.00  0.00    +0.000 HD
BRANCH  21  24
ATOM     24  C   UNL     1      48.753   7.925  17.422  0.00  0.00    +0.000 A 
ATOM     25  C   UNL     1      48.590   8.895  18.397  0.00  0.00    +0.000 A 
ATOM     26  S   UNL     1      48.424   8.239  19.968  0.00  0.00    +0.000 S 
ATOM     27  C   UNL     1      48.593   6.649  19.385  0.00  0.00    +0.000 A 
ATOM     28  N   UNL     1      48.542   5.583  20.221  0.00  0.00    +0.000 NA
ATOM     29  C   UNL     1      48.696   4.437  19.633  0.00  0.00    +0.000 A 
ATOM     30  N   UNL     1      48.911   4.246  18.285  0.00  0.00    +0.000 N 
ATOM     31  C   UNL     1      49.109   2.916  17.749  0.00  0.00    +0.000 C 
ATOM     32  C   UNL     1      49.042   5.322  17.418  0.00  0.00    +0.000 A 
ATOM     33  O   UNL     1      49.348   5.172  16.232  0.00  0.00    +0.000 OA
ATOM     34  C   UNL     1      48.797   6.616  18.024  0.00  0.00    +0.000 A 
ENDBRANCH  21  24
ENDBRANCH  19  20
ENDBRANCH   4  19
TORSDOF 7
ENDMDL
MODEL 2
REMARK VINA RESULT:    -7.681      3.247      8.698
REMARK INTER + INTRA:         -11.840
REMARK INTER:                 -10.376
REMARK INTRA:                  -1.463
REMARK UNBOUND:                -1.015
REMARK  Name = 
REMARK  9 active torsions:
REMARK  status: ('A' for Active; 'I' for Inactive)
REMARK    1  A    between atoms: C_1  and  C_2
REMARK    2  A    between atoms: C_2  and  N_3
REMARK    3  A    between atoms: C_2  and  C_27
REMARK    4  A    between atoms: N_3  and  C_4
REMARK    5  A    between atoms: C_4  and  C_5
REMARK    6  A    between atoms: C_8  and  C_9
REMARK    7  A    between atoms: C_9  and  N_10
REMARK    8  A    between atoms: C_11  and  C_13
REMARK    9  A    between atoms: N_19  and  C_20
REMARK                            x       y       z     vdW  Elec       q    Type
REMARK                         _______ _______ _______ _____ _____    ______ ____
ROOT
ATOM      1  C   UNL     1      49.561   8.238  15.448  0.00  0.00    +0.000 A 
ATOM      2  C   UNL     1      48.274   8.784  15.402  0.00  0.00    +0.000 A 
ATOM      3  C   UNL     1      47.520   8.744  14.227  0.00  0.00    +0.000 A 
ATOM      4  C   UNL     1      48.033   8.148  13.069  0.00  0.00    +0.000 A 
ATOM      5  C   UNL     1      49.317   7.594  13.127  0.00  0.00    +0.000 A 
ATOM      6  F   UNL     1      49.865   7.024  12.046  0.00  0.00    +0.000 F 
ATOM      7  C   UNL     1      50.069   7.618  14.303  0.00  0.00    +0.000 A 
ENDROOT
BRANCH   1   8
ATOM      8  C   UNL     1      50.350   8.308  16.730  0.00  0.00    +0.000 C 
BRANCH   8   9
ATOM      9  N   UNL     1      49.905   7.327  17.725  0.00  0.00    +0.000 NA
ATOM     10  H   UNL     1      48.886   7.301  17.750  0.00  0.00    +0.000 HD
BRANCH   9  12
ATOM     11  C   UNL     1      51.375   5.597  18.595  0.00  0.00    +0.000 C 
ATOM     12  C   UNL     1      50.414   5.963  17.457  0.00  0.00    +0.000 C 
BRANCH  12  13
ATOM     13  C   UNL     1      49.280   4.936  17.342  0.00  0.00    +0.000 A 
ATOM     14  C   UNL     1      47.967   5.278  17.669  0.00  0.00    +0.000 A 
ATOM     15  N   UNL     1      46.940   4.389  17.702  0.00  0.00    +0.000 NA
ATOM     16  C   UNL     1      47.263   3.127  17.352  0.00  0.00    +0.000 A 
ATOM     17  C   UNL     1      48.546   2.778  16.968  0.00  0.00    +0.000 A 
ATOM     18  N   UNL     1      49.577   3.663  16.963  0.00  0.00    +0.000 NA
ENDBRANCH  12  13
ENDBRANCH   9  12
ENDBRANCH   8   9
ENDBRANCH   1   8
BRANCH   4  19
ATOM     19  C   UNL     1      47.199   8.119  11.821  0.00  0.00    +0.000 C 
BRANCH  19  20
ATOM     20  N   UNL     1      46.499   6.868  11.678  0.00  0.00    +0.000 N 
ATOM     21  C   UNL     1      45.158   6.771  11.488  0.00  0.00    +0.000 C 
ATOM     22  O   UNL     1      44.424   7.754  11.296  0.00  0.00    +0.000 OA
ATOM     23  H   UNL     1      47.052   6.023  11.702  0.00  0.00    +0.000 HD
BRANCH  21  24
ATOM     24  C   UNL     1      44.650   5.407  11.453  0.00  0.00    +0.000 A 
ATOM     25  C   UNL     1      43.931   4.833  12.489  0.00  0.00    +0.000 A 
ATOM     26  S   UNL     1      43.410   3.242  12.138  0.00  0.00    +0.000 S 
ATOM     27  C   UNL     1      44.155   3.274  10.608  0.00  0.00    +0.000 A 
ATOM     28  N   UNL     1      44.090   2.210   9.770  0.00  0.00    +0.000 NA
ATOM     29  C   UNL     1      44.713   2.378   8.645  0.00  0.00    +0.000 A 
ATOM     30  N   UNL     1      45.412   3.507   8.273  0.00  0.00    +0.000 N 
ATOM     31  C   UNL     1      46.103   3.563   7.002  0.00  0.00    +0.000 C 
ATOM     32  C   UNL     1      45.557   4.581   9.139  0.00  0.00    +0.000 A 
ATOM     33  O   UNL     1      46.275   5.548   8.867  0.00  0.00    +0.000 OA
ATOM     34  C   UNL     1      44.810   4.463  10.375  0.00  0.00    +0.000 A 
ENDBRANCH  21  24
ENDBRANCH  19  20
ENDBRANCH   4  19
TORSDOF 7
ENDMDL
MODEL 3
REMARK VINA RESULT:    -7.534      1.566      2.056
REMARK INTER + INTRA:         -11.632
REMARK INTER:                 -10.563
REMARK INTRA:                  -1.070
REMARK UNBOUND:                -1.015
REMARK  Name = 
REMARK  9 active torsions:
REMARK  status: ('A' for Active; 'I' for Inactive)
REMARK    1  A    between atoms: C_1  and  C_2
REMARK    2  A    between atoms: C_2  and  N_3
REMARK    3  A    between atoms: C_2  and  C_27
REMARK    4  A    between atoms: N_3  and  C_4
REMARK    5  A    between atoms: C_4  and  C_5
REMARK    6  A    between atoms: C_8  and  C_9
REMARK    7  A    between atoms: C_9  and  N_10
REMARK    8  A    between atoms: C_11  and  C_13
REMARK    9  A    between atoms: N_19  and  C_20
REMARK                            x       y       z     vdW  Elec       q    Type
REMARK                         _______ _______ _______ _____ _____    ______ ____
ROOT
ATOM      1  C   UNL     1      44.903   5.677  11.694  0.00  0.00    +0.000 A 
ATOM      2  C   UNL     1      45.819   6.634  11.244  0.00  0.00    +0.000 A 
ATOM      3  C   UNL     1      46.960   6.938  11.990  0.00  0.00    +0.000 A 
ATOM      4  C   UNL     1      47.217   6.286  13.201  0.00  0.00    +0.000 A 
ATOM      5  C   UNL     1      46.301   5.322  13.638  0.00  0.00    +0.000 A 
ATOM      6  F   UNL     1      46.487   4.677  14.797  0.00  0.00    +0.000 F 
ATOM      7  C   UNL     1      45.166   5.003  12.890  0.00  0.00    +0.000 A 
ENDROOT
BRANCH   1   8
ATOM      8  C   UNL     1      43.677   5.380  10.869  0.00  0.00    +0.000 C 
BRANCH   8   9
ATOM      9  N   UNL     1      43.987   4.654   9.632  0.00  0.00    +0.000 NA
ATOM     10  H   UNL     1      44.442   5.281   8.970  0.00  0.00    +0.000 HD
BRANCH   9  12
ATOM     11  C   UNL     1      43.974   2.344  10.390  0.00  0.00    +0.000 C 
ATOM     12  C   UNL     1      44.858   3.478   9.858  0.00  0.00    +0.000 C 
BRANCH  12  13
ATOM     13  C   UNL     1      45.593   3.052   8.580  0.00  0.00    +0.000 A 
ATOM     14  C   UNL     1      45.996   1.729   8.392  0.00  0.00    +0.000 A 
ATOM     15  N   UNL     1      46.751   1.311   7.343  0.00  0.00    +0.000 NA
ATOM     16  C   UNL     1      47.065   2.268   6.446  0.00  0.00    +0.000 A 
ATOM     17  C   UNL     1      46.628   3.574   6.582  0.00  0.00    +0.000 A 
ATOM     18  N   UNL     1      45.896   3.995   7.647  0.00  0.00    +0.000 NA
ENDBRANCH  12  13
ENDBRANCH   9  12
ENDBRANCH   8   9
ENDBRANCH   1   8
BRANCH   4  19
ATOM     19  C   UNL     1      48.452   6.635  13.981  0.00  0.00    +0.000 C 
BRANCH  19  20
ATOM     20  N   UNL     1      48.128   7.250  15.243  0.00  0.00    +0.000 N 
ATOM     21  C   UNL     1      48.903   8.188  15.845  0.00  0.00    +0.000 C 
ATOM     22  O   UNL     1      49.901   8.696  15.309  0.00  0.00    +0.000 OA
ATOM     23  H   UNL     1      47.263   6.974  15.684  0.00  0.00    +0.000 HD
BRANCH  21  24
ATOM     24  C   UNL     1      48.428   8.614  17.155  0.00  0.00    +0.000 A 
ATOM     25  C   UNL     1      48.012   9.905  17.432  0.00  0.00    +0.000 A 
ATOM     26  S   UNL     1      47.448  10.094  19.036  0.00  0.00    +0.000 S 
ATOM     27  C   UNL     1      47.772   8.463  19.403  0.00  0.00    +0.000 A 
ATOM     28  N   UNL     1      47.513   7.953  20.632  0.00  0.00    +0.000 NA
ATOM     29  C   UNL     1      47.822   6.700  20.765  0.00  0.00    +0.000 A 
ATOM     30  N   UNL     1      48.380   5.901  19.790  0.00  0.00    +0.000 N 
ATOM     31  C   UNL     1      48.719   4.522  20.069  0.00  0.00    +0.000 C 
ATOM     32  C   UNL     1      48.724   6.416  18.547  0.00  0.00    +0.000 A 
ATOM     33  O   UNL     1      49.329   5.745  17.706  0.00  0.00    +0.000 OA
ATOM     34  C   UNL     1      48.323   7.792  18.334  0.00  0.00    +0.000 A 
ENDBRANCH  21  24
ENDBRANCH  19  20
ENDBRANCH   4  19
TORSDOF 7
ENDMDL
MODEL 4
REMARK VINA RESULT:    -7.359      2.268      2.660
REMARK INTER + INTRA:         -11.386
REMARK INTER:                 -10.070
REMARK INTRA:                  -1.316
REMARK UNBOUND:                -1.015
REMARK  Name = 
REMARK  9 active torsions:
REMARK  status: ('A' for Active; 'I' for Inactive)
REMARK    1  A    between atoms: C_1  and  C_2
REMARK    2  A    between atoms: C_2  and  N_3
REMARK    3  A    between atoms: C_2  and  C_27
REMARK    4  A    between atoms: N_3  and  C_4
REMARK    5  A    between atoms: C_4  and  C_5
REMARK    6  A    between atoms: C_8  and  C_9
REMARK    7  A    between atoms: C_9  and  N_10
REMARK    8  A    between atoms: C_11  and  C_13
REMARK    9  A    between atoms: N_19  and  C_20
REMARK                            x       y       z     vdW  Elec       q    Type
REMARK                         _______ _______ _______ _____ _____    ______ ____
ROOT
ATOM      1  C   UNL     1      45.562   5.202  13.082  0.00  0.00    +0.000 A 
ATOM      2  C   UNL     1      46.796   4.791  13.597  0.00  0.00    +0.000 A 
ATOM      3  C   UNL     1      47.907   5.637  13.557  0.00  0.00    +0.000 A 
ATOM      4  C   UNL     1      47.808   6.920  13.006  0.00  0.00    +0.000 A 
ATOM      5  C   UNL     1      46.567   7.327  12.502  0.00  0.00    +0.000 A 
ATOM      6  F   UNL     1      46.417   8.538  11.949  0.00  0.00    +0.000 F 
ATOM      7  C   UNL     1      45.450   6.491  12.553  0.00  0.00    +0.000 A 
ENDROOT
BRANCH   1   8
ATOM      8  C   UNL     1      44.387   4.260  13.133  0.00  0.00    +0.000 C 
BRANCH   8   9
ATOM      9  N   UNL     1      44.579   3.067  12.302  0.00  0.00    +0.000 NA
ATOM     10  H   UNL     1      44.286   2.237  12.818  0.00  0.00    +0.000 HD
BRANCH   9  12
ATOM     11  C   UNL     1      42.912   4.354  11.087  0.00  0.00    +0.000 C 
ATOM     12  C   UNL     1      43.831   3.127  11.026  0.00  0.00    +0.000 C 
BRANCH  12  13
ATOM     13  C   UNL     1      44.766   3.198   9.812  0.00  0.00    +0.000 A 
ATOM     14  C   UNL     1      45.078   4.422   9.217  0.00  0.00    +0.000 A 
ATOM     15  N   UNL     1      45.802   4.544   8.074  0.00  0.00    +0.000 NA
ATOM     16  C   UNL     1      46.248   3.383   7.551  0.00  0.00    +0.000 A 
ATOM     17  C   UNL     1      45.999   2.163   8.154  0.00  0.00    +0.000 A 
ATOM     18  N   UNL     1      45.252   2.041   9.283  0.00  0.00    +0.000 NA
ENDBRANCH  12  13
ENDBRANCH   9  12
ENDBRANCH   8   9
ENDBRANCH   1   8
BRANCH   4  19
ATOM     19  C   UNL     1      49.019   7.807  12.977  0.00  0.00    +0.000 C 
BRANCH  19  20
ATOM     20  N   UNL     1      50.062   7.312  13.840  0.00  0.00    +0.000 N 
ATOM     21  C   UNL     1      50.506   7.971  14.940  0.00  0.00    +0.000 C 
ATOM     22  O   UNL     1      49.973   9.003  15.379  0.00  0.00    +0.000 OA
ATOM     23  H   UNL     1      50.462   6.413  13.614  0.00  0.00    +0.000 HD
BRANCH  21  24
ATOM     24  C   UNL     1      51.623   7.329  15.620  0.00  0.00    +0.000 A 
ATOM     25  C   UNL     1      52.944   7.704  15.438  0.00  0.00    +0.000 A 
ATOM     26  S   UNL     1      54.030   6.814  16.416  0.00  0.00    +0.000 S 
ATOM     27  C   UNL     1      52.764   5.891  17.082  0.00  0.00    +0.000 A 
ATOM     28  N   UNL     1      53.004   4.931  18.008  0.00  0.00    +0.000 NA
ATOM     29  C   UNL     1      51.943   4.305  18.416  0.00  0.00    +0.000 A 
ATOM     30  N   UNL     1      50.656   4.535  17.979  0.00  0.00    +0.000 N 
ATOM     31  C   UNL     1      49.553   3.744  18.480  0.00  0.00    +0.000 C 
ATOM     32  C   UNL     1      50.390   5.461  16.979  0.00  0.00    +0.000 A 
ATOM     33  O   UNL     1      49.262   5.596  16.496  0.00  0.00    +0.000 OA
ATOM     34  C   UNL     1      51.539   6.235  16.554  0.00  0.00    +0.000 A 
ENDBRANCH  21  24
ENDBRANCH  19  20
ENDBRANCH   4  19
TORSDOF 7
ENDMDL
MODEL 5
REMARK VINA RESULT:    -7.247      4.995      8.143
REMARK INTER + INTRA:         -11.228
REMARK INTER:                  -9.901
REMARK INTRA:                  -1.327
REMARK UNBOUND:                -1.015
REMARK  Name = 
REMARK  9 active torsions:
REMARK  status: ('A' for Active; 'I' for Inactive)
REMARK    1  A    between atoms: C_1  and  C_2
REMARK    2  A    between atoms: C_2  and  N_3
REMARK    3  A    between atoms: C_2  and  C_27
REMARK    4  A    between atoms: N_3  and  C_4
REMARK    5  A    between atoms: C_4  and  C_5
REMARK    6  A    between atoms: C_8  and  C_9
REMARK    7  A    between atoms: C_9  and  N_10
REMARK    8  A    between atoms: C_11  and  C_13
REMARK    9  A    between atoms: N_19  and  C_20
REMARK                            x       y       z     vdW  Elec       q    Type
REMARK                         _______ _______ _______ _____ _____    ______ ____
ROOT
ATOM      1  C   UNL     1      50.316   8.556  12.059  0.00  0.00    +0.000 A 
ATOM      2  C   UNL     1      49.702   7.299  12.040  0.00  0.00    +0.000 A 
ATOM      3  C   UNL     1      48.310   7.182  12.053  0.00  0.00    +0.000 A 
ATOM      4  C   UNL     1      47.497   8.321  12.078  0.00  0.00    +0.000 A 
ATOM      5  C   UNL     1      48.120   9.575  12.087  0.00  0.00    +0.000 A 
ATOM      6  F   UNL     1      47.393  10.699  12.126  0.00  0.00    +0.000 F 
ATOM      7  C   UNL     1      49.510   9.698  12.059  0.00  0.00    +0.000 A 
ENDROOT
BRANCH   1   8
ATOM      8  C   UNL     1      51.820   8.646  12.054  0.00  0.00    +0.000 C 
BRANCH   8   9
ATOM      9  N   UNL     1      52.444   7.686  11.137  0.00  0.00    +0.000 NA
ATOM     10  H   UNL     1      52.075   6.752  11.313  0.00  0.00    +0.000 HD
BRANCH   9  12
ATOM     11  C   UNL     1      52.870   9.396   9.462  0.00  0.00    +0.000 C 
ATOM     12  C   UNL     1      52.227   8.027   9.712  0.00  0.00    +0.000 C 
BRANCH  12  13
ATOM     13  C   UNL     1      52.806   6.964   8.770  0.00  0.00    +0.000 A 
ATOM     14  C   UNL     1      52.300   6.796   7.481  0.00  0.00    +0.000 A 
ATOM     15  N   UNL     1      52.687   5.800   6.641  0.00  0.00    +0.000 NA
ATOM     16  C   UNL     1      53.645   4.984   7.124  0.00  0.00    +0.000 A 
ATOM     17  C   UNL     1      54.203   5.167   8.377  0.00  0.00    +0.000 A 
ATOM     18  N   UNL     1      53.795   6.147   9.225  0.00  0.00    +0.000 NA
ENDBRANCH  12  13
ENDBRANCH   9  12
ENDBRANCH   8   9
ENDBRANCH   1   8
BRANCH   4  19
ATOM     19  C   UNL     1      46.004   8.163  12.092  0.00  0.00    +0.000 C 
BRANCH  19  20
ATOM     20  N   UNL     1      45.611   6.804  11.818  0.00  0.00    +0.000 N 
ATOM     21  C   UNL     1      44.373   6.449  11.389  0.00  0.00    +0.000 C 
ATOM     22  O   UNL     1      43.499   7.272  11.072  0.00  0.00    +0.000 OA
ATOM     23  H   UNL     1      46.311   6.087  11.938  0.00  0.00    +0.000 HD
BRANCH  21  24
ATOM     24  C   UNL     1      44.168   5.014  11.256  0.00  0.00    +0.000 A 
ATOM     25  C   UNL     1      43.464   4.255  12.176  0.00  0.00    +0.000 A 
ATOM     26  S   UNL     1      43.332   2.611  11.723  0.00  0.00    +0.000 S 
ATOM     27  C   UNL     1      44.235   2.870  10.303  0.00  0.00    +0.000 A 
ATOM     28  N   UNL     1      44.495   1.858   9.439  0.00  0.00    +0.000 NA
ATOM     29  C   UNL     1      45.202   2.205   8.409  0.00  0.00    +0.000 A 
ATOM     30  N   UNL     1      45.691   3.470   8.157  0.00  0.00    +0.000 N 
ATOM     31  C   UNL     1      46.504   3.729   6.989  0.00  0.00    +0.000 C 
ATOM     32  C   UNL     1      45.503   4.507   9.060  0.00  0.00    +0.000 A 
ATOM     33  O   UNL     1      46.030   5.612   8.906  0.00  0.00    +0.000 OA
ATOM     34  C   UNL     1      44.651   4.177  10.186  0.00  0.00    +0.000 A 
ENDBRANCH  21  24
ENDBRANCH  19  20
ENDBRANCH   4  19
TORSDOF 7
ENDMDL
MODEL 6
REMARK VINA RESULT:    -7.234      1.793      2.367
REMARK INTER + INTRA:         -11.210
REMARK INTER:                  -9.875
REMARK INTRA:                  -1.335
REMARK UNBOUND:                -1.015
REMARK  Name = 
REMARK  9 active torsions:
REMARK  status: ('A' for Active; 'I' for Inactive)
REMARK    1  A    between atoms: C_1  and  C_2
REMARK    2  A    between atoms: C_2  and  N_3
REMARK    3  A    between atoms: C_2  and  C_27
REMARK    4  A    between atoms: N_3  and  C_4
REMARK    5  A    between atoms: C_4  and  C_5
REMARK    6  A    between atoms: C_8  and  C_9
REMARK    7  A    between atoms: C_9  and  N_10
REMARK    8  A    between atoms: C_11  and  C_13
REMARK    9  A    between atoms: N_19  and  C_20
REMARK                            x       y       z     vdW  Elec       q    Type
REMARK                         _______ _______ _______ _____ _____    ______ ____
ROOT
ATOM      1  C   UNL     1      45.635   7.251  12.151  0.00  0.00    +0.000 A 
ATOM      2  C   UNL     1      45.578   8.488  12.799  0.00  0.00    +0.000 A 
ATOM      3  C   UNL     1      46.727   9.063  13.349  0.00  0.00    +0.000 A 
ATOM      4  C   UNL     1      47.964   8.416  13.255  0.00  0.00    +0.000 A 
ATOM      5  C   UNL     1      48.014   7.183  12.594  0.00  0.00    +0.000 A 
ATOM      6  F   UNL     1      49.168   6.510  12.486  0.00  0.00    +0.000 F 
ATOM      7  C   UNL     1      46.872   6.610  12.030  0.00  0.00    +0.000 A 
ENDROOT
BRANCH   1   8
ATOM      8  C   UNL     1      44.375   6.655  11.578  0.00  0.00    +0.000 C 
BRANCH   8   9
ATOM      9  N   UNL     1      44.612   5.902  10.343  0.00  0.00    +0.000 NA
ATOM     10  H   UNL     1      45.458   6.245   9.888  0.00  0.00    +0.000 HD
BRANCH   9  12
ATOM     11  C   UNL     1      43.357   3.903  10.927  0.00  0.00    +0.000 C 
ATOM     12  C   UNL     1      44.747   4.446  10.573  0.00  0.00    +0.000 C 
BRANCH  12  13
ATOM     13  C   UNL     1      45.328   3.720   9.353  0.00  0.00    +0.000 A 
ATOM     14  C   UNL     1      45.358   2.326   9.294  0.00  0.00    +0.000 A 
ATOM     15  N   UNL     1      45.962   1.625   8.300  0.00  0.00    +0.000 NA
ATOM     16  C   UNL     1      46.514   2.373   7.323  0.00  0.00    +0.000 A 
ATOM     17  C   UNL     1      46.446   3.755   7.331  0.00  0.00    +0.000 A 
ATOM     18  N   UNL     1      45.865   4.456   8.341  0.00  0.00    +0.000 NA
ENDBRANCH  12  13
ENDBRANCH   9  12
ENDBRANCH   8   9
ENDBRANCH   1   8
BRANCH   4  19
ATOM     19  C   UNL     1      49.182   9.058  13.854  0.00  0.00    +0.000 C 
BRANCH  19  20
ATOM     20  N   UNL     1      49.454   8.552  15.175  0.00  0.00    +0.000 N 
ATOM     21  C   UNL     1      50.579   7.868  15.505  0.00  0.00    +0.000 C 
ATOM     22  O   UNL     1      51.538   7.720  14.730  0.00  0.00    +0.000 OA
ATOM     23  H   UNL     1      48.769   8.742  15.893  0.00  0.00    +0.000 HD
BRANCH  21  24
ATOM     24  C   UNL     1      50.609   7.379  16.876  0.00  0.00    +0.000 A 
ATOM     25  C   UNL     1      51.467   7.874  17.844  0.00  0.00    +0.000 A 
ATOM     26  S   UNL     1      51.231   7.152  19.377  0.00  0.00    +0.000 S 
ATOM     27  C   UNL     1      49.999   6.143  18.775  0.00  0.00    +0.000 A 
ATOM     28  N   UNL     1      49.355   5.262  19.580  0.00  0.00    +0.000 NA
ATOM     29  C   UNL     1      48.448   4.556  18.978  0.00  0.00    +0.000 A 
ATOM     30  N   UNL     1      48.125   4.631  17.640  0.00  0.00    +0.000 N 
ATOM     31  C   UNL     1      47.119   3.760  17.072  0.00  0.00    +0.000 C 
ATOM     32  C   UNL     1      48.818   5.470  16.779  0.00  0.00    +0.000 A 
ATOM     33  O   UNL     1      48.620   5.465  15.561  0.00  0.00    +0.000 OA
ATOM     34  C   UNL     1      49.786   6.333  17.429  0.00  0.00    +0.000 A 
ENDBRANCH  21  24
ENDBRANCH  19  20
ENDBRANCH   4  19
TORSDOF 7
ENDMDL
MODEL 7
REMARK VINA RESULT:    -6.951      3.717      5.921
REMARK INTER + INTRA:         -10.810
REMARK INTER:                  -9.872
REMARK INTRA:                  -0.938
REMARK UNBOUND:                -1.015
REMARK  Name = 
REMARK  9 active torsions:
REMARK  status: ('A' for Active; 'I' for Inactive)
REMARK    1  A    between atoms: C_1  and  C_2
REMARK    2  A    between atoms: C_2  and  N_3
REMARK    3  A    between atoms: C_2  and  C_27
REMARK    4  A    between atoms: N_3  and  C_4
REMARK    5  A    between atoms: C_4  and  C_5
REMARK    6  A    between atoms: C_8  and  C_9
REMARK    7  A    between atoms: C_9  and  N_10
REMARK    8  A    between atoms: C_11  and  C_13
REMARK    9  A    between atoms: N_19  and  C_20
REMARK                            x       y       z     vdW  Elec       q    Type
REMARK                         _______ _______ _______ _____ _____    ______ ____
ROOT
ATOM      1  C   UNL     1      47.627   5.743  14.631  0.00  0.00    +0.000 A 
ATOM      2  C   UNL     1      47.210   4.408  14.651  0.00  0.00    +0.000 A 
ATOM      3  C   UNL     1      47.482   3.589  15.749  0.00  0.00    +0.000 A 
ATOM      4  C   UNL     1      48.171   4.089  16.860  0.00  0.00    +0.000 A 
ATOM      5  C   UNL     1      48.575   5.429  16.836  0.00  0.00    +0.000 A 
ATOM      6  F   UNL     1      49.251   5.958  17.864  0.00  0.00    +0.000 F 
ATOM      7  C   UNL     1      48.294   6.256  15.747  0.00  0.00    +0.000 A 
ENDROOT
BRANCH   1   8
ATOM      8  C   UNL     1      47.326   6.595  13.425  0.00  0.00    +0.000 C 
BRANCH   8   9
ATOM      9  N   UNL     1      45.893   6.860  13.260  0.00  0.00    +0.000 NA
ATOM     10  H   UNL     1      45.695   7.835  13.482  0.00  0.00    +0.000 HD
BRANCH   9  12
ATOM     11  C   UNL     1      46.632   6.537  10.966  0.00  0.00    +0.000 C 
ATOM     12  C   UNL     1      45.409   6.572  11.891  0.00  0.00    +0.000 C 
BRANCH  12  13
ATOM     13  C   UNL     1      44.627   5.254  11.820  0.00  0.00    +0.000 A 
ATOM     14  C   UNL     1      44.125   4.655  12.977  0.00  0.00    +0.000 A 
ATOM     15  N   UNL     1      43.528   3.435  12.998  0.00  0.00    +0.000 NA
ATOM     16  C   UNL     1      43.410   2.834  11.796  0.00  0.00    +0.000 A 
ATOM     17  C   UNL     1      43.848   3.434  10.629  0.00  0.00    +0.000 A 
ATOM     18  N   UNL     1      44.469   4.643  10.614  0.00  0.00    +0.000 NA
ENDBRANCH  12  13
ENDBRANCH   9  12
ENDBRANCH   8   9
ENDBRANCH   1   8
BRANCH   4  19
ATOM     19  C   UNL     1      48.448   3.185  18.026  0.00  0.00    +0.000 C 
BRANCH  19  20
ATOM     20  N   UNL     1      49.847   2.855  18.123  0.00  0.00    +0.000 N 
ATOM     21  C   UNL     1      50.503   2.078  17.224  0.00  0.00    +0.000 C 
ATOM     22  O   UNL     1      49.990   1.678  16.166  0.00  0.00    +0.000 OA
ATOM     23  H   UNL     1      50.363   3.248  18.898  0.00  0.00    +0.000 HD
BRANCH  21  24
ATOM     24  C   UNL     1      51.893   1.806  17.561  0.00  0.00    +0.000 A 
ATOM     25  C   UNL     1      52.387   0.532  17.790  0.00  0.00    +0.000 A 
ATOM     26  S   UNL     1      54.069   0.515  18.101  0.00  0.00    +0.000 S 
ATOM     27  C   UNL     1      54.170   2.209  17.963  0.00  0.00    +0.000 A 
ATOM     28  N   UNL     1      55.350   2.859  18.115  0.00  0.00    +0.000 NA
ATOM     29  C   UNL     1      55.268   4.148  17.992  0.00  0.00    +0.000 A 
ATOM     30  N   UNL     1      54.115   4.861  17.742  0.00  0.00    +0.000 N 
ATOM     31  C   UNL     1      54.141   6.306  17.664  0.00  0.00    +0.000 C 
ATOM     32  C   UNL     1      52.882   4.229  17.655  0.00  0.00    +0.000 A 
ATOM     33  O   UNL     1      51.828   4.862  17.548  0.00  0.00    +0.000 OA
ATOM     34  C   UNL     1      52.944   2.781  17.709  0.00  0.00    +0.000 A 
ENDBRANCH  21  24
ENDBRANCH  19  20
ENDBRANCH   4  19
TORSDOF 7
ENDMDL
MODEL 8
REMARK VINA RESULT:    -6.824      3.662      5.091
REMARK INTER + INTRA:         -10.631
REMARK INTER:                  -9.517
REMARK INTRA:                  -1.114
REMARK UNBOUND:                -1.015
REMARK  Name = 
REMARK  9 active torsions:
REMARK  status: ('A' for Active; 'I' for Inactive)
REMARK    1  A    between atoms: C_1  and  C_2
REMARK    2  A    between atoms: C_2  and  N_3
REMARK    3  A    between atoms: C_2  and  C_27
REMARK    4  A    between atoms: N_3  and  C_4
REMARK    5  A    between atoms: C_4  and  C_5
REMARK    6  A    between atoms: C_8  and  C_9
REMARK    7  A    between atoms: C_9  and  N_10
REMARK    8  A    between atoms: C_11  and  C_13
REMARK    9  A    between atoms: N_19  and  C_20
REMARK                            x       y       z     vdW  Elec       q    Type
REMARK                         _______ _______ _______ _____ _____    ______ ____
ROOT
ATOM      1  C   UNL     1      45.362   4.501  12.113  0.00  0.00    +0.000 A 
ATOM      2  C   UNL     1      46.299   4.107  13.074  0.00  0.00    +0.000 A 
ATOM      3  C   UNL     1      47.136   5.044  13.684  0.00  0.00    +0.000 A 
ATOM      4  C   UNL     1      47.051   6.401  13.353  0.00  0.00    +0.000 A 
ATOM      5  C   UNL     1      46.103   6.788  12.398  0.00  0.00    +0.000 A 
ATOM      6  F   UNL     1      45.987   8.070  12.030  0.00  0.00    +0.000 F 
ATOM      7  C   UNL     1      45.254   5.858  11.796  0.00  0.00    +0.000 A 
ENDROOT
BRANCH   1   8
ATOM      8  C   UNL     1      44.481   3.462  11.468  0.00  0.00    +0.000 C 
BRANCH   8   9
ATOM      9  N   UNL     1      45.193   2.651  10.476  0.00  0.00    +0.000 NA
ATOM     10  H   UNL     1      45.139   1.665  10.734  0.00  0.00    +0.000 HD
BRANCH   9  12
ATOM     11  C   UNL     1      44.109   4.245   8.994  0.00  0.00    +0.000 C 
ATOM     12  C   UNL     1      44.658   2.817   9.105  0.00  0.00    +0.000 C 
BRANCH  12  13
ATOM     13  C   UNL     1      45.723   2.550   8.034  0.00  0.00    +0.000 A 
ATOM     14  C   UNL     1      46.445   1.357   8.022  0.00  0.00    +0.000 A 
ATOM     15  N   UNL     1      47.479   1.107   7.177  0.00  0.00    +0.000 NA
ATOM     16  C   UNL     1      47.750   2.093   6.296  0.00  0.00    +0.000 A 
ATOM     17  C   UNL     1      47.009   3.261   6.251  0.00  0.00    +0.000 A 
ATOM     18  N   UNL     1      45.993   3.519   7.116  0.00  0.00    +0.000 NA
ENDBRANCH  12  13
ENDBRANCH   9  12
ENDBRANCH   8   9
ENDBRANCH   1   8
BRANCH   4  19
ATOM     19  C   UNL     1      47.965   7.385  14.025  0.00  0.00    +0.000 C 
BRANCH  19  20
ATOM     20  N   UNL     1      49.259   7.427  13.393  0.00  0.00    +0.000 N 
ATOM     21  C   UNL     1      49.587   8.298  12.405  0.00  0.00    +0.000 C 
ATOM     22  O   UNL     1      48.845   9.223  12.037  0.00  0.00    +0.000 OA
ATOM     23  H   UNL     1      49.958   6.780  13.728  0.00  0.00    +0.000 HD
BRANCH  21  24
ATOM     24  C   UNL     1      50.921   8.110  11.853  0.00  0.00    +0.000 A 
ATOM     25  C   UNL     1      51.162   7.527  10.620  0.00  0.00    +0.000 A 
ATOM     26  S   UNL     1      52.822   7.500  10.207  0.00  0.00    +0.000 S 
ATOM     27  C   UNL     1      53.258   8.240  11.677  0.00  0.00    +0.000 A 
ATOM     28  N   UNL     1      54.553   8.515  11.970  0.00  0.00    +0.000 NA
ATOM     29  C   UNL     1      54.731   9.070  13.129  0.00  0.00    +0.000 A 
ATOM     30  N   UNL     1      53.740   9.370  14.038  0.00  0.00    +0.000 N 
ATOM     31  C   UNL     1      54.066   9.955  15.321  0.00  0.00    +0.000 C 
ATOM     32  C   UNL     1      52.415   9.033  13.796  0.00  0.00    +0.000 A 
ATOM     33  O   UNL     1      51.534   9.190  14.647  0.00  0.00    +0.000 OA
ATOM     34  C   UNL     1      52.165   8.483  12.479  0.00  0.00    +0.000 A 
ENDBRANCH  21  24
ENDBRANCH  19  20
ENDBRANCH   4  19
TORSDOF 7
ENDMDL
