MODEL 1
REMARK VINA RESULT:    -7.862      0.000      0.000
REMARK INTER + INTRA:         -11.286
REMARK INTER:                 -10.850
REMARK INTRA:                  -0.436
REMARK UNBOUND:                -0.436
REMARK  Name = 
REMARK  9 active torsions:
REMARK  status: ('A' for Active; 'I' for Inactive)
REMARK    1  A    between atoms: C_1  and  O_2
REMARK    2  A    between atoms: O_2  and  C_3
REMARK    3  A    between atoms: N_8  and  C_9
REMARK    4  A    between atoms: C_9  and  C_10
REMARK    5  A    between atoms: C_13  and  C_14
REMARK    6  A    between atoms: C_14  and  C_15
REMARK    7  A    between atoms: C_15  and  N_16
REMARK    8  A    between atoms: C_21  and  O_22
REMARK    9  A    between atoms: O_22  and  C_23
REMARK                            x       y       z     vdW  Elec       q    Type
REMARK                         _______ _______ _______ _____ _____    ______ ____
ROOT
ATOM      1  C   UNL     1      47.702   5.824  14.430  0.00  0.00    +0.000 A 
ATOM      2  C   UNL     1      47.307   6.992  13.747  0.00  0.00    +0.000 A 
ATOM      3  C   UNL     1      46.315   6.929  12.751  0.00  0.00    +0.000 A 
ATOM      4  C   UNL     1      45.646   7.907  11.965  0.00  0.00    +0.000 A 
ATOM      5  C   UNL     1      44.701   7.256  11.204  0.00  0.00    +0.000 A 
ATOM      6  N   UNL     1      44.780   5.913  11.488  0.00  0.00    +0.000 N 
ATOM      7  C   UNL     1      45.793   5.687  12.401  0.00  0.00    +0.000 A 
ATOM      8  C   UNL     1      46.289   4.504  12.965  0.00  0.00    +0.000 A 
ATOM      9  C   UNL     1      47.238   4.575  13.999  0.00  0.00    +0.000 A 
ENDROOT
BRANCH   1  11
ATOM     10  C   UNL     1      49.586   6.897  15.369  0.00  0.00    +0.000 C 
ATOM     11  O   UNL     1      48.558   5.910  15.499  0.00  0.00    +0.000 OA
ENDBRANCH   1  11
BRANCH   9  12
ATOM     12  O   UNL     1      47.550   3.323  14.462  0.00  0.00    +0.000 OA
ATOM     13  C   UNL     1      47.699   3.108  15.854  0.00  0.00    +0.000 C 
ENDBRANCH   9  12
BRANCH   6  14
ATOM     14  C   UNL     1      43.834   4.906  11.002  0.00  0.00    +0.000 C 
BRANCH  14  15
ATOM     15  C   UNL     1      44.444   4.048   9.919  0.00  0.00    +0.000 A 
ATOM     16  C   UNL     1      44.317   2.652   9.956  0.00  0.00    +0.000 A 
ATOM     17  C   UNL     1      45.030   1.850   9.068  0.00  0.00    +0.000 A 
ATOM     18  C   UNL     1      45.889   2.429   8.127  0.00  0.00    +0.000 A 
ATOM     19  C   UNL     1      45.928   3.825   8.009  0.00  0.00    +0.000 A 
ATOM     20  C   UNL     1      45.222   4.628   8.907  0.00  0.00    +0.000 A 
BRANCH  18  21
ATOM     21  C   UNL     1      46.842   1.565   7.339  0.00  0.00    +0.000 C 
BRANCH  21  22
ATOM     22  C   UNL     1      48.084   2.289   6.822  0.00  0.00    +0.000 C 
BRANCH  22  23
ATOM     23  N   UNL     1      48.433   1.791   5.490  0.00  0.00    +0.000 NA
ATOM     24  H   UNL     1      48.955   2.503   4.982  0.00  0.00    +0.000 HD
ATOM     25  H   UNL     1      47.583   1.618   4.955  0.00  0.00    +0.000 HD
ENDBRANCH  22  23
ENDBRANCH  21  22
ENDBRANCH  18  21
ENDBRANCH  14  15
ENDBRANCH   6  14
TORSDOF 7
ENDMDL
MODEL 2
REMARK VINA RESULT:    -7.649      2.201      3.472
REMARK INTER + INTRA:         -10.992
REMARK INTER:                 -10.185
REMARK INTRA:                  -0.808
REMARK UNBOUND:                -0.436
REMARK  Name = 
REMARK  9 active torsions:
REMARK  status: ('A' for Active; 'I' for Inactive)
REMARK    1  A    between atoms: C_1  and  O_2
REMARK    2  A    between atoms: O_2  and  C_3
REMARK    3  A    between atoms: N_8  and  C_9
REMARK    4  A    between atoms: C_9  and  C_10
REMARK    5  A    between atoms: C_13  and  C_14
REMARK    6  A    between atoms: C_14  and  C_15
REMARK    7  A    between atoms: C_15  and  N_16
REMARK    8  A    between atoms: C_21  and  O_22
REMARK    9  A    between atoms: O_22  and  C_23
REMARK                            x       y       z     vdW  Elec       q    Type
REMARK                         _______ _______ _______ _____ _____    ______ ____
ROOT
ATOM      1  C   UNL     1      46.336   8.776  12.463  0.00  0.00    +0.000 A 
ATOM      2  C   UNL     1      46.755   7.603  13.124  0.00  0.00    +0.000 A 
ATOM      3  C   UNL     1      46.141   6.370  12.836  0.00  0.00    +0.000 A 
ATOM      4  C   UNL     1      46.384   5.031  13.246  0.00  0.00    +0.000 A 
ATOM      5  C   UNL     1      45.502   4.220  12.567  0.00  0.00    +0.000 A 
ATOM      6  N   UNL     1      44.719   5.021  11.769  0.00  0.00    +0.000 N 
ATOM      7  C   UNL     1      45.066   6.346  11.952  0.00  0.00    +0.000 A 
ATOM      8  C   UNL     1      44.543   7.528  11.409  0.00  0.00    +0.000 A 
ATOM      9  C   UNL     1      45.194   8.749  11.653  0.00  0.00    +0.000 A 
ENDROOT
BRANCH   1  11
ATOM     10  C   UNL     1      48.091   9.883  13.595  0.00  0.00    +0.000 C 
ATOM     11  O   UNL     1      47.032   9.946  12.634  0.00  0.00    +0.000 OA
ENDBRANCH   1  11
BRANCH   9  12
ATOM     12  O   UNL     1      44.575   9.774  10.988  0.00  0.00    +0.000 OA
ATOM     13  C   UNL     1      43.210   9.654  10.629  0.00  0.00    +0.000 C 
ENDBRANCH   9  12
BRANCH   6  14
ATOM     14  C   UNL     1      43.768   4.521  10.773  0.00  0.00    +0.000 C 
BRANCH  14  15
ATOM     15  C   UNL     1      44.462   3.737   9.685  0.00  0.00    +0.000 A 
ATOM     16  C   UNL     1      44.389   2.337   9.655  0.00  0.00    +0.000 A 
ATOM     17  C   UNL     1      45.176   1.604   8.769  0.00  0.00    +0.000 A 
ATOM     18  C   UNL     1      46.054   2.258   7.898  0.00  0.00    +0.000 A 
ATOM     19  C   UNL     1      46.043   3.658   7.843  0.00  0.00    +0.000 A 
ATOM     20  C   UNL     1      45.263   4.391   8.739  0.00  0.00    +0.000 A 
BRANCH  18  21
ATOM     21  C   UNL     1      47.077   1.466   7.121  0.00  0.00    +0.000 C 
BRANCH  21  22
ATOM     22  C   UNL     1      48.272   2.279   6.625  0.00  0.00    +0.000 C 
BRANCH  22  23
ATOM     23  N   UNL     1      48.335   2.231   5.162  0.00  0.00    +0.000 NA
ATOM     24  H   UNL     1      47.443   1.911   4.789  0.00  0.00    +0.000 HD
ATOM     25  H   UNL     1      49.032   1.548   4.872  0.00  0.00    +0.000 HD
ENDBRANCH  22  23
ENDBRANCH  21  22
ENDBRANCH  18  21
ENDBRANCH  14  15
ENDBRANCH   6  14
TORSDOF 7
ENDMDL
MODEL 3
REMARK VINA RESULT:    -6.524      1.586      2.255
REMARK INTER + INTRA:          -9.439
REMARK INTER:                  -8.849
REMARK INTRA:                  -0.590
REMARK UNBOUND:                -0.436
REMARK  Name = 
REMARK  9 active torsions:
REMARK  status: ('A' for Active; 'I' for Inactive)
REMARK    1  A    between atoms: C_1  and  O_2
REMARK    2  A    between atoms: O_2  and  C_3
REMARK    3  A    between atoms: N_8  and  C_9
REMARK    4  A    between atoms: C_9  and  C_10
REMARK    5  A    between atoms: C_13  and  C_14
REMARK    6  A    between atoms: C_14  and  C_15
REMARK    7  A    between atoms: C_15  and  N_16
REMARK    8  A    between atoms: C_21  and  O_22
REMARK    9  A    between atoms: O_22  and  C_23
REMARK                            x       y       z     vdW  Elec       q    Type
REMARK                         _______ _______ _______ _____ _____    ______ ____
ROOT
ATOM      1  C   UNL     1      47.462   8.917  13.011  0.00  0.00    +0.000 A 
ATOM      2  C   UNL     1      46.325   9.382  12.320  0.00  0.00    +0.000 A 
ATOM      3  C   UNL     1      45.375   8.470  11.823  0.00  0.00    +0.000 A 
ATOM      4  C   UNL     1      44.114   8.613  11.184  0.00  0.00    +0.000 A 
ATOM      5  C   UNL     1      43.595   7.351  10.996  0.00  0.00    +0.000 A 
ATOM      6  N   UNL     1      44.503   6.443  11.486  0.00  0.00    +0.000 N 
ATOM      7  C   UNL     1      45.620   7.106  11.957  0.00  0.00    +0.000 A 
ATOM      8  C   UNL     1      46.821   6.633  12.505  0.00  0.00    +0.000 A 
ATOM      9  C   UNL     1      47.739   7.544  13.051  0.00  0.00    +0.000 A 
ENDROOT
BRANCH   1  11
ATOM     10  C   UNL     1      49.348  10.322  12.784  0.00  0.00    +0.000 C 
ATOM     11  O   UNL     1      48.307   9.809  13.622  0.00  0.00    +0.000 OA
ENDBRANCH   1  11
BRANCH   9  12
ATOM     12  O   UNL     1      48.814   6.890  13.593  0.00  0.00    +0.000 OA
ATOM     13  C   UNL     1      48.913   6.748  14.998  0.00  0.00    +0.000 C 
ENDBRANCH   9  12
BRANCH   6  14
ATOM     14  C   UNL     1      44.250   5.006  11.615  0.00  0.00    +0.000 C 
BRANCH  14  15
ATOM     15  C   UNL     1      44.661   4.254  10.371  0.00  0.00    +0.000 A 
ATOM     16  C   UNL     1      44.346   2.897  10.220  0.00  0.00    +0.000 A 
ATOM     17  C   UNL     1      44.880   2.158   9.166  0.00  0.00    +0.000 A 
ATOM     18  C   UNL     1      45.743   2.762   8.246  0.00  0.00    +0.000 A 
ATOM     19  C   UNL     1      45.965   4.143   8.326  0.00  0.00    +0.000 A 
ATOM     20  C   UNL     1      45.439   4.881   9.388  0.00  0.00    +0.000 A 
BRANCH  18  21
ATOM     21  C   UNL     1      46.512   1.916   7.261  0.00  0.00    +0.000 C 
BRANCH  21  22
ATOM     22  C   UNL     1      47.769   2.575   6.697  0.00  0.00    +0.000 C 
BRANCH  22  23
ATOM     23  N   UNL     1      48.457   1.647   5.796  0.00  0.00    +0.000 NA
ATOM     24  H   UNL     1      48.230   1.875   4.829  0.00  0.00    +0.000 HD
ATOM     25  H   UNL     1      48.120   0.700   5.957  0.00  0.00    +0.000 HD
ENDBRANCH  22  23
ENDBRANCH  21  22
ENDBRANCH  18  21
ENDBRANCH  14  15
ENDBRANCH   6  14
TORSDOF 7
ENDMDL
MODEL 4
REMARK VINA RESULT:    -5.798      3.182      4.768
REMARK INTER + INTRA:          -8.437
REMARK INTER:                  -8.027
REMARK INTRA:                  -0.410
REMARK UNBOUND:                -0.436
REMARK  Name = 
REMARK  9 active torsions:
REMARK  status: ('A' for Active; 'I' for Inactive)
REMARK    1  A    between atoms: C_1  and  O_2
REMARK    2  A    between atoms: O_2  and  C_3
REMARK    3  A    between atoms: N_8  and  C_9
REMARK    4  A    between atoms: C_9  and  C_10
REMARK    5  A    between atoms: C_13  and  C_14
REMARK    6  A    between atoms: C_14  and  C_15
REMARK    7  A    between atoms: C_15  and  N_16
REMARK    8  A    between atoms: C_21  and  O_22
REMARK    9  A    between atoms: O_22  and  C_23
REMARK                            x       y       z     vdW  Elec       q    Type
REMARK                         _______ _______ _______ _____ _____    ______ ____
ROOT
ATOM      1  C   UNL     1      44.438  10.221  10.990  0.00  0.00    +0.000 A 
ATOM      2  C   UNL     1      45.609   9.845  11.678  0.00  0.00    +0.000 A 
ATOM      3  C   UNL     1      45.786   8.515  12.101  0.00  0.00    +0.000 A 
ATOM      4  C   UNL     1      46.857   7.812  12.717  0.00  0.00    +0.000 A 
ATOM      5  C   UNL     1      46.484   6.491  12.823  0.00  0.00    +0.000 A 
ATOM      6  N   UNL     1      45.215   6.367  12.306  0.00  0.00    +0.000 N 
ATOM      7  C   UNL     1      44.753   7.604  11.899  0.00  0.00    +0.000 A 
ATOM      8  C   UNL     1      43.525   8.004  11.355  0.00  0.00    +0.000 A 
ATOM      9  C   UNL     1      43.373   9.318  10.882  0.00  0.00    +0.000 A 
ENDROOT
BRANCH   1  11
ATOM     10  C   UNL     1      44.268  11.516   9.020  0.00  0.00    +0.000 C 
ATOM     11  O   UNL     1      44.333  11.478  10.449  0.00  0.00    +0.000 OA
ENDBRANCH   1  11
BRANCH   9  12
ATOM     12  O   UNL     1      42.132   9.499  10.331  0.00  0.00    +0.000 OA
ATOM     13  C   UNL     1      41.190  10.333  10.980  0.00  0.00    +0.000 C 
ENDBRANCH   9  12
BRANCH   6  14
ATOM     14  C   UNL     1      44.529   5.090  12.093  0.00  0.00    +0.000 C 
BRANCH  14  15
ATOM     15  C   UNL     1      44.780   4.549  10.705  0.00  0.00    +0.000 A 
ATOM     16  C   UNL     1      44.166   3.363  10.278  0.00  0.00    +0.000 A 
ATOM     17  C   UNL     1      44.537   2.765   9.076  0.00  0.00    +0.000 A 
ATOM     18  C   UNL     1      45.534   3.339   8.279  0.00  0.00    +0.000 A 
ATOM     19  C   UNL     1      46.064   4.584   8.644  0.00  0.00    +0.000 A 
ATOM     20  C   UNL     1      45.700   5.177   9.854  0.00  0.00    +0.000 A 
BRANCH  18  21
ATOM     21  C   UNL     1      46.107   2.571   7.115  0.00  0.00    +0.000 C 
BRANCH  21  22
ATOM     22  C   UNL     1      47.493   3.032   6.665  0.00  0.00    +0.000 C 
BRANCH  22  23
ATOM     23  N   UNL     1      48.339   1.870   6.385  0.00  0.00    +0.000 NA
ATOM     24  H   UNL     1      48.976   2.084   5.620  0.00  0.00    +0.000 HD
ATOM     25  H   UNL     1      47.761   1.093   6.071  0.00  0.00    +0.000 HD
ENDBRANCH  22  23
ENDBRANCH  21  22
ENDBRANCH  18  21
ENDBRANCH  14  15
ENDBRANCH   6  14
TORSDOF 7
ENDMDL
MODEL 5
REMARK VINA RESULT:    -5.718      3.405      5.917
REMARK INTER + INTRA:          -8.327
REMARK INTER:                  -7.511
REMARK INTRA:                  -0.816
REMARK UNBOUND:                -0.436
REMARK  Name = 
REMARK  9 active torsions:
REMARK  status: ('A' for Active; 'I' for Inactive)
REMARK    1  A    between atoms: C_1  and  O_2
REMARK    2  A    between atoms: O_2  and  C_3
REMARK    3  A    between atoms: N_8  and  C_9
REMARK    4  A    between atoms: C_9  and  C_10
REMARK    5  A    between atoms: C_13  and  C_14
REMARK    6  A    between atoms: C_14  and  C_15
REMARK    7  A    between atoms: C_15  and  N_16
REMARK    8  A    between atoms: C_21  and  O_22
REMARK    9  A    between atoms: O_22  and  C_23
REMARK                            x       y       z     vdW  Elec       q    Type
REMARK                         _______ _______ _______ _____ _____    ______ ____
ROOT
ATOM      1  C   UNL     1      44.390   4.233  11.542  0.00  0.00    +0.000 A 
ATOM      2  C   UNL     1      43.822   5.426  11.052  0.00  0.00    +0.000 A 
ATOM      3  C   UNL     1      44.318   6.674  11.475  0.00  0.00    +0.000 A 
ATOM      4  C   UNL     1      44.037   8.019  11.112  0.00  0.00    +0.000 A 
ATOM      5  C   UNL     1      44.903   8.830  11.811  0.00  0.00    +0.000 A 
ATOM      6  N   UNL     1      45.693   8.026  12.599  0.00  0.00    +0.000 N 
ATOM      7  C   UNL     1      45.320   6.705  12.440  0.00  0.00    +0.000 A 
ATOM      8  C   UNL     1      45.784   5.529  13.047  0.00  0.00    +0.000 A 
ATOM      9  C   UNL     1      45.328   4.284  12.582  0.00  0.00    +0.000 A 
ENDROOT
BRANCH   1  11
ATOM     10  C   UNL     1      44.540   2.732   9.723  0.00  0.00    +0.000 C 
ATOM     11  O   UNL     1      44.006   3.024  11.019  0.00  0.00    +0.000 OA
ENDBRANCH   1  11
BRANCH   9  12
ATOM     12  O   UNL     1      45.941   3.258  13.251  0.00  0.00    +0.000 OA
ATOM     13  C   UNL     1      47.096   3.518  14.027  0.00  0.00    +0.000 C 
ENDBRANCH   9  12
BRANCH   6  14
ATOM     14  C   UNL     1      46.844   8.498  13.372  0.00  0.00    +0.000 C 
BRANCH  14  15
ATOM     15  C   UNL     1      48.090   8.576  12.522  0.00  0.00    +0.000 A 
ATOM     16  C   UNL     1      48.866   7.432  12.284  0.00  0.00    +0.000 A 
ATOM     17  C   UNL     1      50.107   7.535  11.661  0.00  0.00    +0.000 A 
ATOM     18  C   UNL     1      50.600   8.784  11.267  0.00  0.00    +0.000 A 
ATOM     19  C   UNL     1      49.778   9.911  11.397  0.00  0.00    +0.000 A 
ATOM     20  C   UNL     1      48.539   9.810  12.032  0.00  0.00    +0.000 A 
BRANCH  18  21
ATOM     21  C   UNL     1      52.035   8.926  10.824  0.00  0.00    +0.000 C 
BRANCH  21  22
ATOM     22  C   UNL     1      52.611   7.699  10.121  0.00  0.00    +0.000 C 
BRANCH  22  23
ATOM     23  N   UNL     1      53.551   7.011  11.009  0.00  0.00    +0.000 NA
ATOM     24  H   UNL     1      53.304   7.193  11.980  0.00  0.00    +0.000 HD
ATOM     25  H   UNL     1      54.489   7.387  10.874  0.00  0.00    +0.000 HD
ENDBRANCH  22  23
ENDBRANCH  21  22
ENDBRANCH  18  21
ENDBRANCH  14  15
ENDBRANCH   6  14
TORSDOF 7
ENDMDL
MODEL 6
REMARK VINA RESULT:    -5.649      3.525      7.512
REMARK INTER + INTRA:          -8.232
REMARK INTER:                  -7.418
REMARK INTRA:                  -0.814
REMARK UNBOUND:                -0.436
REMARK  Name = 
REMARK  9 active torsions:
REMARK  status: ('A' for Active; 'I' for Inactive)
REMARK    1  A    between atoms: C_1  and  O_2
REMARK    2  A    between atoms: O_2  and  C_3
REMARK    3  A    between atoms: N_8  and  C_9
REMARK    4  A    between atoms: C_9  and  C_10
REMARK    5  A    between atoms: C_13  and  C_14
REMARK    6  A    between atoms: C_14  and  C_15
REMARK    7  A    between atoms: C_15  and  N_16
REMARK    8  A    between atoms: C_21  and  O_22
REMARK    9  A    between atoms: O_22  and  C_23
REMARK                            x       y       z     vdW  Elec       q    Type
REMARK                         _______ _______ _______ _____ _____    ______ ____
ROOT
ATOM      1  C   UNL     1      45.324   4.207  12.886  0.00  0.00    +0.000 A 
ATOM      2  C   UNL     1      44.768   5.402  12.386  0.00  0.00    +0.000 A 
ATOM      3  C   UNL     1      45.500   6.603  12.446  0.00  0.00    +0.000 A 
ATOM      4  C   UNL     1      45.271   7.919  11.961  0.00  0.00    +0.000 A 
ATOM      5  C   UNL     1      46.388   8.671  12.251  0.00  0.00    +0.000 A 
ATOM      6  N   UNL     1      47.284   7.861  12.909  0.00  0.00    +0.000 N 
ATOM      7  C   UNL     1      46.741   6.602  13.076  0.00  0.00    +0.000 A 
ATOM      8  C   UNL     1      47.233   5.454  13.712  0.00  0.00    +0.000 A 
ATOM      9  C   UNL     1      46.527   4.244  13.601  0.00  0.00    +0.000 A 
ENDROOT
BRANCH   1  11
ATOM     10  C   UNL     1      43.476   3.100  11.914  0.00  0.00    +0.000 C 
ATOM     11  O   UNL     1      44.674   3.014  12.693  0.00  0.00    +0.000 OA
ENDBRANCH   1  11
BRANCH   9  12
ATOM     12  O   UNL     1      47.197   3.228  14.231  0.00  0.00    +0.000 OA
ATOM     13  C   UNL     1      47.587   3.379  15.584  0.00  0.00    +0.000 C 
ENDBRANCH   9  12
BRANCH   6  14
ATOM     14  C   UNL     1      48.657   8.246  13.244  0.00  0.00    +0.000 C 
BRANCH  14  15
ATOM     15  C   UNL     1      48.897   8.210  14.735  0.00  0.00    +0.000 A 
ATOM     16  C   UNL     1      49.750   7.252  15.299  0.00  0.00    +0.000 A 
ATOM     17  C   UNL     1      49.828   7.098  16.681  0.00  0.00    +0.000 A 
ATOM     18  C   UNL     1      49.050   7.897  17.527  0.00  0.00    +0.000 A 
ATOM     19  C   UNL     1      48.287   8.932  16.972  0.00  0.00    +0.000 A 
ATOM     20  C   UNL     1      48.200   9.079  15.586  0.00  0.00    +0.000 A 
BRANCH  18  21
ATOM     21  C   UNL     1      48.946   7.567  18.995  0.00  0.00    +0.000 C 
BRANCH  21  22
ATOM     22  C   UNL     1      47.540   7.206  19.471  0.00  0.00    +0.000 C 
BRANCH  22  23
ATOM     23  N   UNL     1      47.028   6.072  18.699  0.00  0.00    +0.000 NA
ATOM     24  H   UNL     1      47.217   5.203  19.197  0.00  0.00    +0.000 HD
ATOM     25  H   UNL     1      47.523   6.010  17.811  0.00  0.00    +0.000 HD
ENDBRANCH  22  23
ENDBRANCH  21  22
ENDBRANCH  18  21
ENDBRANCH  14  15
ENDBRANCH   6  14
TORSDOF 7
ENDMDL
MODEL 7
REMARK VINA RESULT:    -5.472      3.727      7.394
REMARK INTER + INTRA:          -7.987
REMARK INTER:                  -7.608
REMARK INTRA:                  -0.380
REMARK UNBOUND:                -0.436
REMARK  Name = 
REMARK  9 active torsions:
REMARK  status: ('A' for Active; 'I' for Inactive)
REMARK    1  A    between atoms: C_1  and  O_2
REMARK    2  A    between atoms: O_2  and  C_3
REMARK    3  A    between atoms: N_8  and  C_9
REMARK    4  A    between atoms: C_9  and  C_10
REMARK    5  A    between atoms: C_13  and  C_14
REMARK    6  A    between atoms: C_14  and  C_15
REMARK    7  A    between atoms: C_15  and  N_16
REMARK    8  A    between atoms: C_21  and  O_22
REMARK    9  A    between atoms: O_22  and  C_23
REMARK                            x       y       z     vdW  Elec       q    Type
REMARK                         _______ _______ _______ _____ _____    ______ ____
ROOT
ATOM      1  C   UNL     1      45.533   5.600  11.330  0.00  0.00    +0.000 A 
ATOM      2  C   UNL     1      46.708   6.264  11.737  0.00  0.00    +0.000 A 
ATOM      3  C   UNL     1      47.216   6.072  13.035  0.00  0.00    +0.000 A 
ATOM      4  C   UNL     1      48.392   6.507  13.704  0.00  0.00    +0.000 A 
ATOM      5  C   UNL     1      48.396   5.935  14.957  0.00  0.00    +0.000 A 
ATOM      6  N   UNL     1      47.254   5.177  15.079  0.00  0.00    +0.000 N 
ATOM      7  C   UNL     1      46.497   5.284  13.928  0.00  0.00    +0.000 A 
ATOM      8  C   UNL     1      45.250   4.745  13.582  0.00  0.00    +0.000 A 
ATOM      9  C   UNL     1      44.773   4.890  12.269  0.00  0.00    +0.000 A 
ENDROOT
BRANCH   1  11
ATOM     10  C   UNL     1      45.616   4.624   9.179  0.00  0.00    +0.000 C 
ATOM     11  O   UNL     1      45.122   5.670  10.022  0.00  0.00    +0.000 OA
ENDBRANCH   1  11
BRANCH   9  12
ATOM     12  O   UNL     1      43.575   4.244  12.109  0.00  0.00    +0.000 OA
ATOM     13  C   UNL     1      43.554   2.918  11.616  0.00  0.00    +0.000 C 
ENDBRANCH   9  12
BRANCH   6  14
ATOM     14  C   UNL     1      46.969   4.284  16.204  0.00  0.00    +0.000 C 
BRANCH  14  15
ATOM     15  C   UNL     1      48.230   3.654  16.748  0.00  0.00    +0.000 A 
ATOM     16  C   UNL     1      49.062   4.364  17.625  0.00  0.00    +0.000 A 
ATOM     17  C   UNL     1      50.312   3.861  17.980  0.00  0.00    +0.000 A 
ATOM     18  C   UNL     1      50.756   2.640  17.460  0.00  0.00    +0.000 A 
ATOM     19  C   UNL     1      49.881   1.875  16.678  0.00  0.00    +0.000 A 
ATOM     20  C   UNL     1      48.633   2.384  16.314  0.00  0.00    +0.000 A 
BRANCH  18  21
ATOM     21  C   UNL     1      52.193   2.218  17.642  0.00  0.00    +0.000 C 
BRANCH  21  22
ATOM     22  C   UNL     1      52.400   0.715  17.821  0.00  0.00    +0.000 C 
BRANCH  22  23
ATOM     23  N   UNL     1      53.330   0.216  16.805  0.00  0.00    +0.000 NA
ATOM     24  H   UNL     1      54.239   0.663  16.920  0.00  0.00    +0.000 HD
ATOM     25  H   UNL     1      52.997   0.474  15.878  0.00  0.00    +0.000 HD
ENDBRANCH  22  23
ENDBRANCH  21  22
ENDBRANCH  18  21
ENDBRANCH  14  15
ENDBRANCH   6  14
TORSDOF 7
ENDMDL
MODEL 8
REMARK VINA RESULT:    -5.370      4.407      8.051
REMARK INTER + INTRA:          -7.847
REMARK INTER:                  -7.590
REMARK INTRA:                  -0.257
REMARK UNBOUND:                -0.436
REMARK  Name = 
REMARK  9 active torsions:
REMARK  status: ('A' for Active; 'I' for Inactive)
REMARK    1  A    between atoms: C_1  and  O_2
REMARK    2  A    between atoms: O_2  and  C_3
REMARK    3  A    between atoms: N_8  and  C_9
REMARK    4  A    between atoms: C_9  and  C_10
REMARK    5  A    between atoms: C_13  and  C_14
REMARK    6  A    between atoms: C_14  and  C_15
REMARK    7  A    between atoms: C_15  and  N_16
REMARK    8  A    between atoms: C_21  and  O_22
REMARK    9  A    between atoms: O_22  and  C_23
REMARK                            x       y       z     vdW  Elec       q    Type
REMARK                         _______ _______ _______ _____ _____    ______ ____
ROOT
ATOM      1  C   UNL     1      46.843   5.795  12.872  0.00  0.00    +0.000 A 
ATOM      2  C   UNL     1      47.648   6.757  13.516  0.00  0.00    +0.000 A 
ATOM      3  C   UNL     1      48.164   6.503  14.801  0.00  0.00    +0.000 A 
ATOM      4  C   UNL     1      49.056   7.202  15.658  0.00  0.00    +0.000 A 
ATOM      5  C   UNL     1      49.262   6.421  16.773  0.00  0.00    +0.000 A 
ATOM      6  N   UNL     1      48.515   5.275  16.632  0.00  0.00    +0.000 N 
ATOM      7  C   UNL     1      47.801   5.326  15.450  0.00  0.00    +0.000 A 
ATOM      8  C   UNL     1      46.878   4.437  14.881  0.00  0.00    +0.000 A 
ATOM      9  C   UNL     1      46.410   4.665  13.577  0.00  0.00    +0.000 A 
ENDROOT
BRANCH   1  11
ATOM     10  C   UNL     1      45.492   7.010  11.361  0.00  0.00    +0.000 C 
ATOM     11  O   UNL     1      46.464   5.980  11.566  0.00  0.00    +0.000 OA
ENDBRANCH   1  11
BRANCH   9  12
ATOM     12  O   UNL     1      45.572   3.658  13.175  0.00  0.00    +0.000 OA
ATOM     13  C   UNL     1      44.221   3.949  12.870  0.00  0.00    +0.000 C 
ENDBRANCH   9  12
BRANCH   6  14
ATOM     14  C   UNL     1      48.587   4.123  17.532  0.00  0.00    +0.000 C 
BRANCH  14  15
ATOM     15  C   UNL     1      49.950   3.474  17.497  0.00  0.00    +0.000 A 
ATOM     16  C   UNL     1      50.105   2.161  17.030  0.00  0.00    +0.000 A 
ATOM     17  C   UNL     1      51.322   1.498  17.169  0.00  0.00    +0.000 A 
ATOM     18  C   UNL     1      52.407   2.133  17.783  0.00  0.00    +0.000 A 
ATOM     19  C   UNL     1      52.291   3.482  18.144  0.00  0.00    +0.000 A 
ATOM     20  C   UNL     1      51.068   4.143  18.014  0.00  0.00    +0.000 A 
BRANCH  18  21
ATOM     21  C   UNL     1      53.636   1.341  18.156  0.00  0.00    +0.000 C 
BRANCH  21  22
ATOM     22  C   UNL     1      53.633  -0.108  17.673  0.00  0.00    +0.000 C 
BRANCH  22  23
ATOM     23  N   UNL     1      53.133  -0.987  18.733  0.00  0.00    +0.000 NA
ATOM     24  H   UNL     1      52.225  -0.656  19.055  0.00  0.00    +0.000 HD
ATOM     25  H   UNL     1      53.758  -0.944  19.536  0.00  0.00    +0.000 HD
ENDBRANCH  22  23
ENDBRANCH  21  22
ENDBRANCH  18  21
ENDBRANCH  14  15
ENDBRANCH   6  14
TORSDOF 7
ENDMDL
MODEL 9
REMARK VINA RESULT:    -5.084      3.760      5.956
REMARK INTER + INTRA:          -7.452
REMARK INTER:                  -6.797
REMARK INTRA:                  -0.655
REMARK UNBOUND:                -0.436
REMARK  Name = 
REMARK  9 active torsions:
REMARK  status: ('A' for Active; 'I' for Inactive)
REMARK    1  A    between atoms: C_1  and  O_2
REMARK    2  A    between atoms: O_2  and  C_3
REMARK    3  A    between atoms: N_8  and  C_9
REMARK    4  A    between atoms: C_9  and  C_10
REMARK    5  A    between atoms: C_13  and  C_14
REMARK    6  A    between atoms: C_14  and  C_15
REMARK    7  A    between atoms: C_15  and  N_16
REMARK    8  A    between atoms: C_21  and  O_22
REMARK    9  A    between atoms: O_22  and  C_23
REMARK                            x       y       z     vdW  Elec       q    Type
REMARK                         _______ _______ _______ _____ _____    ______ ____
ROOT
ATOM      1  C   UNL     1      45.642   5.057  13.087  0.00  0.00    +0.000 A 
ATOM      2  C   UNL     1      45.206   6.292  12.568  0.00  0.00    +0.000 A 
ATOM      3  C   UNL     1      46.008   7.441  12.703  0.00  0.00    +0.000 A 
ATOM      4  C   UNL     1      45.903   8.776  12.226  0.00  0.00    +0.000 A 
ATOM      5  C   UNL     1      47.042   9.448  12.611  0.00  0.00    +0.000 A 
ATOM      6  N   UNL     1      47.831   8.572  13.320  0.00  0.00    +0.000 N 
ATOM      7  C   UNL     1      47.195   7.350  13.424  0.00  0.00    +0.000 A 
ATOM      8  C   UNL     1      47.562   6.163  14.075  0.00  0.00    +0.000 A 
ATOM      9  C   UNL     1      46.789   5.005  13.891  0.00  0.00    +0.000 A 
ENDROOT
BRANCH   1  11
ATOM     10  C   UNL     1      43.553   4.120  12.504  0.00  0.00    +0.000 C 
ATOM     11  O   UNL     1      44.932   3.912  12.826  0.00  0.00    +0.000 OA
ENDBRANCH   1  11
BRANCH   9  12
ATOM     12  O   UNL     1      47.341   3.939  14.551  0.00  0.00    +0.000 OA
ATOM     13  C   UNL     1      47.615   4.038  15.937  0.00  0.00    +0.000 C 
ENDBRANCH   9  12
BRANCH   6  14
ATOM     14  C   UNL     1      49.197   8.860  13.762  0.00  0.00    +0.000 C 
BRANCH  14  15
ATOM     15  C   UNL     1      50.197   8.661  12.648  0.00  0.00    +0.000 A 
ATOM     16  C   UNL     1      50.007   7.655  11.689  0.00  0.00    +0.000 A 
ATOM     17  C   UNL     1      51.013   7.348  10.776  0.00  0.00    +0.000 A 
ATOM     18  C   UNL     1      52.231   8.038  10.806  0.00  0.00    +0.000 A 
ATOM     19  C   UNL     1      52.378   9.119  11.684  0.00  0.00    +0.000 A 
ATOM     20  C   UNL     1      51.374   9.420  12.607  0.00  0.00    +0.000 A 
BRANCH  18  21
ATOM     21  C   UNL     1      53.400   7.544   9.992  0.00  0.00    +0.000 C 
BRANCH  21  22
ATOM     22  C   UNL     1      53.280   6.099   9.510  0.00  0.00    +0.000 C 
BRANCH  22  23
ATOM     23  N   UNL     1      53.796   5.188  10.535  0.00  0.00    +0.000 NA
ATOM     24  H   UNL     1      54.759   4.936  10.318  0.00  0.00    +0.000 HD
ATOM     25  H   UNL     1      53.260   4.321  10.523  0.00  0.00    +0.000 HD
ENDBRANCH  22  23
ENDBRANCH  21  22
ENDBRANCH  18  21
ENDBRANCH  14  15
ENDBRANCH   6  14
TORSDOF 7
ENDMDL
