MODEL 1
REMARK VINA RESULT:    -8.509      0.000      0.000
REMARK INTER + INTRA:         -12.796
REMARK INTER:                 -11.991
REMARK INTRA:                  -0.805
REMARK UNBOUND:                -0.805
REMARK  Name = 
REMARK  7 active torsions:
REMARK  status: ('A' for Active; 'I' for Inactive)
REMARK    1  A    between atoms: C_2  and  C_3
REMARK    2  A    between atoms: C_7  and  C_8
REMARK    3  A    between atoms: C_8  and  N_9
REMARK    4  A    between atoms: N_9  and  C_10
REMARK    5  A    between atoms: C_13  and  C_14
REMARK    6  A    between atoms: C_14  and  N_15
REMARK    7  A    between atoms: C_16  and  C_18
REMARK                            x       y       z     vdW  Elec       q    Type
REMARK                         _______ _______ _______ _____ _____    ______ ____
ROOT
ATOM      1  C   UNL     1      44.782   6.073  11.080  0.00  0.00    +0.000 A 
ATOM      2  C   UNL     1      46.005   5.534  11.507  0.00  0.00    +0.000 A 
ATOM      3  C   UNL     1      46.881   6.271  12.329  0.00  0.00    +0.000 A 
ATOM      4  C   UNL     1      46.565   7.580  12.719  0.00  0.00    +0.000 A 
ATOM      5  C   UNL     1      45.399   8.153  12.206  0.00  0.00    +0.000 A 
ATOM      6  C   UNL     1      44.534   7.411  11.401  0.00  0.00    +0.000 A 
ENDROOT
BRANCH   1   7
ATOM      7  N   UNL     1      43.908   5.335  10.259  0.00  0.00    +0.000 N 
ATOM      8  H   UNL     1      43.827   5.735   9.328  0.00  0.00    +0.000 HD
BRANCH   7   9
ATOM      9  C   UNL     1      44.098   3.879  10.229  0.00  0.00    +0.000 C 
BRANCH   9  14
ATOM     10  C   UNL     1      46.217   1.708   7.923  0.00  0.00    +0.000 A 
ATOM     11  C   UNL     1      46.800   2.661   7.084  0.00  0.00    +0.000 A 
ATOM     12  C   UNL     1      46.521   4.017   7.264  0.00  0.00    +0.000 A 
ATOM     13  C   UNL     1      45.648   4.423   8.278  0.00  0.00    +0.000 A 
ATOM     14  C   UNL     1      45.030   3.476   9.110  0.00  0.00    +0.000 A 
ATOM     15  C   UNL     1      45.333   2.114   8.930  0.00  0.00    +0.000 A 
BRANCH  10  17
ATOM     16  N   UNL     1      46.775  -0.811   7.639  0.00  0.00    +0.000 NA
ATOM     17  C   UNL     1      46.522   0.320   7.757  0.00  0.00    +0.000 C 
ENDBRANCH  10  17
ENDBRANCH   9  14
ENDBRANCH   7   9
ENDBRANCH   1   7
BRANCH   4  18
ATOM     18  C   UNL     1      47.411   8.368  13.686  0.00  0.00    +0.000 C 
BRANCH  18  19
ATOM     19  N   UNL     1      47.706   7.651  14.899  0.00  0.00    +0.000 N 
ATOM     20  C   UNL     1      48.910   7.003  15.060  0.00  0.00    +0.000 C 
ATOM     21  O   UNL     1      49.780   7.016  14.194  0.00  0.00    +0.000 OA
ATOM     22  H   UNL     1      46.931   7.409  15.508  0.00  0.00    +0.000 HD
BRANCH  20  23
ATOM     23  C   UNL     1      49.125   6.334  16.348  0.00  0.00    +0.000 A 
ATOM     24  C   UNL     1      50.037   6.861  17.254  0.00  0.00    +0.000 A 
ATOM     25  S   UNL     1      50.201   5.930  18.674  0.00  0.00    +0.000 S 
ATOM     26  C   UNL     1      49.069   4.786  18.122  0.00  0.00    +0.000 A 
ATOM     27  N   UNL     1      48.775   3.679  18.857  0.00  0.00    +0.000 NA
ATOM     28  C   UNL     1      47.906   2.893  18.312  0.00  0.00    +0.000 A 
ATOM     29  N   UNL     1      47.290   3.124  17.110  0.00  0.00    +0.000 N 
ATOM     30  C   UNL     1      47.525   4.247  16.353  0.00  0.00    +0.000 A 
ATOM     31  O   UNL     1      46.898   4.467  15.323  0.00  0.00    +0.000 OA
ATOM     32  C   UNL     1      48.535   5.137  16.895  0.00  0.00    +0.000 A 
ATOM     33  H   UNL     1      46.590   2.488  16.758  0.00  0.00    +0.000 HD
ENDBRANCH  20  23
ENDBRANCH  18  19
ENDBRANCH   4  18
TORSDOF 7
ENDMDL
MODEL 2
REMARK VINA RESULT:    -8.333      1.511      1.787
REMARK INTER + INTRA:         -12.547
REMARK INTER:                 -11.613
REMARK INTRA:                  -0.935
REMARK UNBOUND:                -0.805
REMARK  Name = 
REMARK  7 active torsions:
REMARK  status: ('A' for Active; 'I' for Inactive)
REMARK    1  A    between atoms: C_2  and  C_3
REMARK    2  A    between atoms: C_7  and  C_8
REMARK    3  A    between atoms: C_8  and  N_9
REMARK    4  A    between atoms: N_9  and  C_10
REMARK    5  A    between atoms: C_13  and  C_14
REMARK    6  A    between atoms: C_14  and  N_15
REMARK    7  A    between atoms: C_16  and  C_18
REMARK                            x       y       z     vdW  Elec       q    Type
REMARK                         _______ _______ _______ _____ _____    ______ ____
ROOT
ATOM      1  C   UNL     1      45.384   4.489  11.940  0.00  0.00    +0.000 A 
ATOM      2  C   UNL     1      46.158   4.085  13.038  0.00  0.00    +0.000 A 
ATOM      3  C   UNL     1      47.071   4.967  13.652  0.00  0.00    +0.000 A 
ATOM      4  C   UNL     1      47.249   6.268  13.161  0.00  0.00    +0.000 A 
ATOM      5  C   UNL     1      46.557   6.633  12.005  0.00  0.00    +0.000 A 
ATOM      6  C   UNL     1      45.649   5.756  11.410  0.00  0.00    +0.000 A 
ENDROOT
BRANCH   1   7
ATOM      7  N   UNL     1      44.474   3.607  11.327  0.00  0.00    +0.000 N 
ATOM      8  H   UNL     1      43.695   3.373  11.936  0.00  0.00    +0.000 HD
BRANCH   7   9
ATOM      9  C   UNL     1      44.039   3.945   9.965  0.00  0.00    +0.000 C 
BRANCH   9  14
ATOM     10  C   UNL     1      46.309   1.705   7.879  0.00  0.00    +0.000 A 
ATOM     11  C   UNL     1      47.005   2.638   7.106  0.00  0.00    +0.000 A 
ATOM     12  C   UNL     1      46.754   4.002   7.260  0.00  0.00    +0.000 A 
ATOM     13  C   UNL     1      45.796   4.437   8.182  0.00  0.00    +0.000 A 
ATOM     14  C   UNL     1      45.066   3.511   8.944  0.00  0.00    +0.000 A 
ATOM     15  C   UNL     1      45.341   2.140   8.792  0.00  0.00    +0.000 A 
BRANCH  10  17
ATOM     16  N   UNL     1      46.794  -0.834   7.640  0.00  0.00    +0.000 NA
ATOM     17  C   UNL     1      46.584   0.307   7.741  0.00  0.00    +0.000 C 
ENDBRANCH  10  17
ENDBRANCH   9  14
ENDBRANCH   7   9
ENDBRANCH   1   7
BRANCH   4  18
ATOM     18  C   UNL     1      48.125   7.284  13.849  0.00  0.00    +0.000 C 
BRANCH  18  19
ATOM     19  N   UNL     1      47.974   7.290  15.281  0.00  0.00    +0.000 N 
ATOM     20  C   UNL     1      48.987   6.844  16.098  0.00  0.00    +0.000 C 
ATOM     21  O   UNL     1      50.057   6.437  15.652  0.00  0.00    +0.000 OA
ATOM     22  H   UNL     1      47.036   7.372  15.658  0.00  0.00    +0.000 HD
BRANCH  20  23
ATOM     23  C   UNL     1      48.746   6.927  17.543  0.00  0.00    +0.000 A 
ATOM     24  C   UNL     1      48.612   8.171  18.149  0.00  0.00    +0.000 A 
ATOM     25  S   UNL     1      48.390   8.086  19.838  0.00  0.00    +0.000 S 
ATOM     26  C   UNL     1      48.475   6.387  19.819  0.00  0.00    +0.000 A 
ATOM     27  N   UNL     1      48.404   5.668  20.973  0.00  0.00    +0.000 NA
ATOM     28  C   UNL     1      48.493   4.390  20.810  0.00  0.00    +0.000 A 
ATOM     29  N   UNL     1      48.626   3.763  19.599  0.00  0.00    +0.000 N 
ATOM     30  C   UNL     1      48.661   4.445  18.405  0.00  0.00    +0.000 A 
ATOM     31  O   UNL     1      48.697   3.854  17.332  0.00  0.00    +0.000 OA
ATOM     32  C   UNL     1      48.620   5.889  18.536  0.00  0.00    +0.000 A 
ATOM     33  H   UNL     1      48.650   2.756  19.537  0.00  0.00    +0.000 HD
ENDBRANCH  20  23
ENDBRANCH  18  19
ENDBRANCH   4  18
TORSDOF 7
ENDMDL
MODEL 3
REMARK VINA RESULT:    -7.563      1.862      2.508
REMARK INTER + INTRA:         -11.463
REMARK INTER:                 -10.060
REMARK INTRA:                  -1.403
REMARK UNBOUND:                -0.805
REMARK  Name = 
REMARK  7 active torsions:
REMARK  status: ('A' for Active; 'I' for Inactive)
REMARK    1  A    between atoms: C_2  and  C_3
REMARK    2  A    between atoms: C_7  and  C_8
REMARK    3  A    between atoms: C_8  and  N_9
REMARK    4  A    between atoms: N_9  and  C_10
REMARK    5  A    between atoms: C_13  and  C_14
REMARK    6  A    between atoms: C_14  and  N_15
REMARK    7  A    between atoms: C_16  and  C_18
REMARK                            x       y       z     vdW  Elec       q    Type
REMARK                         _______ _______ _______ _____ _____    ______ ____
ROOT
ATOM      1  C   UNL     1      44.775   6.145  12.917  0.00  0.00    +0.000 A 
ATOM      2  C   UNL     1      45.610   5.148  13.443  0.00  0.00    +0.000 A 
ATOM      3  C   UNL     1      46.972   5.399  13.705  0.00  0.00    +0.000 A 
ATOM      4  C   UNL     1      47.537   6.650  13.417  0.00  0.00    +0.000 A 
ATOM      5  C   UNL     1      46.731   7.605  12.794  0.00  0.00    +0.000 A 
ATOM      6  C   UNL     1      45.382   7.350  12.549  0.00  0.00    +0.000 A 
ENDROOT
BRANCH   1   7
ATOM      7  N   UNL     1      43.415   5.892  12.656  0.00  0.00    +0.000 N 
ATOM      8  H   UNL     1      42.801   6.519  13.168  0.00  0.00    +0.000 HD
BRANCH   7   9
ATOM      9  C   UNL     1      43.026   5.754  11.246  0.00  0.00    +0.000 C 
BRANCH   9  14
ATOM     10  C   UNL     1      45.050   3.586   8.853  0.00  0.00    +0.000 A 
ATOM     11  C   UNL     1      44.845   2.308   9.378  0.00  0.00    +0.000 A 
ATOM     12  C   UNL     1      44.041   2.133  10.506  0.00  0.00    +0.000 A 
ATOM     13  C   UNL     1      43.447   3.241  11.119  0.00  0.00    +0.000 A 
ATOM     14  C   UNL     1      43.668   4.536  10.622  0.00  0.00    +0.000 A 
ATOM     15  C   UNL     1      44.466   4.696   9.476  0.00  0.00    +0.000 A 
BRANCH  10  17
ATOM     16  N   UNL     1      46.503   3.925   6.729  0.00  0.00    +0.000 NA
ATOM     17  C   UNL     1      45.853   3.763   7.682  0.00  0.00    +0.000 C 
ENDBRANCH  10  17
ENDBRANCH   9  14
ENDBRANCH   7   9
ENDBRANCH   1   7
BRANCH   4  18
ATOM     18  C   UNL     1      48.956   7.005  13.782  0.00  0.00    +0.000 C 
BRANCH  18  19
ATOM     19  N   UNL     1      49.248   6.822  15.179  0.00  0.00    +0.000 N 
ATOM     20  C   UNL     1      48.903   7.782  16.102  0.00  0.00    +0.000 C 
ATOM     21  O   UNL     1      48.328   8.819  15.784  0.00  0.00    +0.000 OA
ATOM     22  H   UNL     1      49.935   6.118  15.432  0.00  0.00    +0.000 HD
BRANCH  20  23
ATOM     23  C   UNL     1      49.213   7.481  17.505  0.00  0.00    +0.000 A 
ATOM     24  C   UNL     1      49.939   8.393  18.262  0.00  0.00    +0.000 A 
ATOM     25  S   UNL     1      50.254   7.861  19.851  0.00  0.00    +0.000 S 
ATOM     26  C   UNL     1      49.441   6.391  19.580  0.00  0.00    +0.000 A 
ATOM     27  N   UNL     1      49.381   5.434  20.546  0.00  0.00    +0.000 NA
ATOM     28  C   UNL     1      48.742   4.367  20.199  0.00  0.00    +0.000 A 
ATOM     29  N   UNL     1      48.140   4.177  18.982  0.00  0.00    +0.000 N 
ATOM     30  C   UNL     1      48.141   5.130  17.991  0.00  0.00    +0.000 A 
ATOM     31  O   UNL     1      47.524   4.966  16.945  0.00  0.00    +0.000 OA
ATOM     32  C   UNL     1      48.893   6.329  18.311  0.00  0.00    +0.000 A 
ATOM     33  H   UNL     1      47.622   3.333  18.788  0.00  0.00    +0.000 HD
ENDBRANCH  20  23
ENDBRANCH  18  19
ENDBRANCH   4  18
TORSDOF 7
ENDMDL
MODEL 4
REMARK VINA RESULT:    -7.507      1.662      2.454
REMARK INTER + INTRA:         -11.384
REMARK INTER:                 -10.727
REMARK INTRA:                  -0.657
REMARK UNBOUND:                -0.805
REMARK  Name = 
REMARK  7 active torsions:
REMARK  status: ('A' for Active; 'I' for Inactive)
REMARK    1  A    between atoms: C_2  and  C_3
REMARK    2  A    between atoms: C_7  and  C_8
REMARK    3  A    between atoms: C_8  and  N_9
REMARK    4  A    between atoms: N_9  and  C_10
REMARK    5  A    between atoms: C_13  and  C_14
REMARK    6  A    between atoms: C_14  and  N_15
REMARK    7  A    between atoms: C_16  and  C_18
REMARK                            x       y       z     vdW  Elec       q    Type
REMARK                         _______ _______ _______ _____ _____    ______ ____
ROOT
ATOM      1  C   UNL     1      44.677   5.807  11.502  0.00  0.00    +0.000 A 
ATOM      2  C   UNL     1      45.583   5.087  12.295  0.00  0.00    +0.000 A 
ATOM      3  C   UNL     1      46.590   5.743  13.032  0.00  0.00    +0.000 A 
ATOM      4  C   UNL     1      46.731   7.136  12.967  0.00  0.00    +0.000 A 
ATOM      5  C   UNL     1      45.899   7.840  12.095  0.00  0.00    +0.000 A 
ATOM      6  C   UNL     1      44.899   7.182  11.378  0.00  0.00    +0.000 A 
ENDROOT
BRANCH   1   7
ATOM      7  N   UNL     1      43.673   5.151  10.766  0.00  0.00    +0.000 N 
ATOM      8  H   UNL     1      43.427   5.653   9.917  0.00  0.00    +0.000 HD
BRANCH   7   9
ATOM      9  C   UNL     1      43.855   3.712  10.533  0.00  0.00    +0.000 C 
BRANCH   9  14
ATOM     10  C   UNL     1      46.165   1.880   8.118  0.00  0.00    +0.000 A 
ATOM     11  C   UNL     1      46.718   2.936   7.390  0.00  0.00    +0.000 A 
ATOM     12  C   UNL     1      46.357   4.253   7.681  0.00  0.00    +0.000 A 
ATOM     13  C   UNL     1      45.432   4.516   8.696  0.00  0.00    +0.000 A 
ATOM     14  C   UNL     1      44.842   3.464   9.416  0.00  0.00    +0.000 A 
ATOM     15  C   UNL     1      45.228   2.143   9.125  0.00  0.00    +0.000 A 
BRANCH  10  17
ATOM     16  N   UNL     1      46.885  -0.563   7.614  0.00  0.00    +0.000 NA
ATOM     17  C   UNL     1      46.553   0.531   7.839  0.00  0.00    +0.000 C 
ENDBRANCH  10  17
ENDBRANCH   9  14
ENDBRANCH   7   9
ENDBRANCH   1   7
BRANCH   4  18
ATOM     18  C   UNL     1      47.716   7.894  13.821  0.00  0.00    +0.000 C 
BRANCH  18  19
ATOM     19  N   UNL     1      47.865   7.344  15.144  0.00  0.00    +0.000 N 
ATOM     20  C   UNL     1      49.059   6.791  15.545  0.00  0.00    +0.000 C 
ATOM     21  O   UNL     1      50.042   6.751  14.811  0.00  0.00    +0.000 OA
ATOM     22  H   UNL     1      47.022   7.132  15.667  0.00  0.00    +0.000 HD
BRANCH  20  23
ATOM     23  C   UNL     1      49.116   6.292  16.924  0.00  0.00    +0.000 A 
ATOM     24  C   UNL     1      48.602   5.037  17.226  0.00  0.00    +0.000 A 
ATOM     25  S   UNL     1      48.702   4.639  18.881  0.00  0.00    +0.000 S 
ATOM     26  C   UNL     1      49.426   6.133  19.254  0.00  0.00    +0.000 A 
ATOM     27  N   UNL     1      49.732   6.463  20.538  0.00  0.00    +0.000 NA
ATOM     28  C   UNL     1      50.268   7.631  20.675  0.00  0.00    +0.000 A 
ATOM     29  N   UNL     1      50.542   8.490  19.643  0.00  0.00    +0.000 N 
ATOM     30  C   UNL     1      50.286   8.183  18.327  0.00  0.00    +0.000 A 
ATOM     31  O   UNL     1      50.618   8.936  17.419  0.00  0.00    +0.000 OA
ATOM     32  C   UNL     1      49.634   6.903  18.124  0.00  0.00    +0.000 A 
ATOM     33  H   UNL     1      50.998   9.374  19.814  0.00  0.00    +0.000 HD
ENDBRANCH  20  23
ENDBRANCH  18  19
ENDBRANCH   4  18
TORSDOF 7
ENDMDL
MODEL 5
REMARK VINA RESULT:    -7.491      3.018      8.161
REMARK INTER + INTRA:         -11.362
REMARK INTER:                  -9.894
REMARK INTRA:                  -1.468
REMARK UNBOUND:                -0.805
REMARK  Name = 
REMARK  7 active torsions:
REMARK  status: ('A' for Active; 'I' for Inactive)
REMARK    1  A    between atoms: C_2  and  C_3
REMARK    2  A    between atoms: C_7  and  C_8
REMARK    3  A    between atoms: C_8  and  N_9
REMARK    4  A    between atoms: N_9  and  C_10
REMARK    5  A    between atoms: C_13  and  C_14
REMARK    6  A    between atoms: C_14  and  N_15
REMARK    7  A    between atoms: C_16  and  C_18
REMARK                            x       y       z     vdW  Elec       q    Type
REMARK                         _______ _______ _______ _____ _____    ______ ____
ROOT
ATOM      1  C   UNL     1      49.436   7.625  15.978  0.00  0.00    +0.000 A 
ATOM      2  C   UNL     1      48.464   8.612  15.756  0.00  0.00    +0.000 A 
ATOM      3  C   UNL     1      47.808   8.724  14.513  0.00  0.00    +0.000 A 
ATOM      4  C   UNL     1      48.134   7.866  13.452  0.00  0.00    +0.000 A 
ATOM      5  C   UNL     1      49.175   6.956  13.641  0.00  0.00    +0.000 A 
ATOM      6  C   UNL     1      49.811   6.847  14.879  0.00  0.00    +0.000 A 
ENDROOT
BRANCH   1   7
ATOM      7  N   UNL     1      50.091   7.515  17.220  0.00  0.00    +0.000 N 
ATOM      8  H   UNL     1      50.549   8.381  17.491  0.00  0.00    +0.000 HD
BRANCH   7   9
ATOM      9  C   UNL     1      49.325   6.917  18.321  0.00  0.00    +0.000 C 
BRANCH   9  14
ATOM     10  C   UNL     1      49.443   3.210  17.445  0.00  0.00    +0.000 A 
ATOM     11  C   UNL     1      48.092   2.915  17.254  0.00  0.00    +0.000 A 
ATOM     12  C   UNL     1      47.129   3.916  17.396  0.00  0.00    +0.000 A 
ATOM     13  C   UNL     1      47.516   5.214  17.742  0.00  0.00    +0.000 A 
ATOM     14  C   UNL     1      48.868   5.520  17.968  0.00  0.00    +0.000 A 
ATOM     15  C   UNL     1      49.829   4.507  17.804  0.00  0.00    +0.000 A 
BRANCH  10  17
ATOM     16  N   UNL     1      51.252   1.372  17.144  0.00  0.00    +0.000 NA
ATOM     17  C   UNL     1      50.434   2.191  17.274  0.00  0.00    +0.000 C 
ENDBRANCH  10  17
ENDBRANCH   9  14
ENDBRANCH   7   9
ENDBRANCH   1   7
BRANCH   4  18
ATOM     18  C   UNL     1      47.384   7.870  12.144  0.00  0.00    +0.000 C 
BRANCH  18  19
ATOM     19  N   UNL     1      46.723   6.623  11.862  0.00  0.00    +0.000 N 
ATOM     20  C   UNL     1      45.350   6.546  11.829  0.00  0.00    +0.000 C 
ATOM     21  O   UNL     1      44.634   7.524  12.023  0.00  0.00    +0.000 OA
ATOM     22  H   UNL     1      47.263   5.768  11.953  0.00  0.00    +0.000 HD
BRANCH  20  23
ATOM     23  C   UNL     1      44.777   5.237  11.496  0.00  0.00    +0.000 A 
ATOM     24  C   UNL     1      43.953   4.592  12.410  0.00  0.00    +0.000 A 
ATOM     25  S   UNL     1      43.419   3.059  11.884  0.00  0.00    +0.000 S 
ATOM     26  C   UNL     1      44.279   3.200  10.423  0.00  0.00    +0.000 A 
ATOM     27  N   UNL     1      44.287   2.187   9.514  0.00  0.00    +0.000 NA
ATOM     28  C   UNL     1      44.988   2.427   8.456  0.00  0.00    +0.000 A 
ATOM     29  N   UNL     1      45.664   3.594   8.214  0.00  0.00    +0.000 N 
ATOM     30  C   UNL     1      45.651   4.659   9.085  0.00  0.00    +0.000 A 
ATOM     31  O   UNL     1      46.196   5.720   8.804  0.00  0.00    +0.000 OA
ATOM     32  C   UNL     1      44.922   4.420  10.316  0.00  0.00    +0.000 A 
ATOM     33  H   UNL     1      46.162   3.733   7.348  0.00  0.00    +0.000 HD
ENDBRANCH  20  23
ENDBRANCH  18  19
ENDBRANCH   4  18
TORSDOF 7
ENDMDL
MODEL 6
REMARK VINA RESULT:    -7.395      3.163      5.125
REMARK INTER + INTRA:         -11.225
REMARK INTER:                 -10.173
REMARK INTRA:                  -1.053
REMARK UNBOUND:                -0.805
REMARK  Name = 
REMARK  7 active torsions:
REMARK  status: ('A' for Active; 'I' for Inactive)
REMARK    1  A    between atoms: C_2  and  C_3
REMARK    2  A    between atoms: C_7  and  C_8
REMARK    3  A    between atoms: C_8  and  N_9
REMARK    4  A    between atoms: N_9  and  C_10
REMARK    5  A    between atoms: C_13  and  C_14
REMARK    6  A    between atoms: C_14  and  N_15
REMARK    7  A    between atoms: C_16  and  C_18
REMARK                            x       y       z     vdW  Elec       q    Type
REMARK                         _______ _______ _______ _____ _____    ______ ____
ROOT
ATOM      1  C   UNL     1      47.572   5.809  13.964  0.00  0.00    +0.000 A 
ATOM      2  C   UNL     1      48.205   6.311  15.111  0.00  0.00    +0.000 A 
ATOM      3  C   UNL     1      48.311   5.536  16.285  0.00  0.00    +0.000 A 
ATOM      4  C   UNL     1      47.758   4.249  16.345  0.00  0.00    +0.000 A 
ATOM      5  C   UNL     1      47.036   3.794  15.240  0.00  0.00    +0.000 A 
ATOM      6  C   UNL     1      46.946   4.564  14.080  0.00  0.00    +0.000 A 
ENDROOT
BRANCH   1   7
ATOM      7  N   UNL     1      47.467   6.584  12.794  0.00  0.00    +0.000 N 
ATOM      8  H   UNL     1      47.883   6.124  11.989  0.00  0.00    +0.000 HD
BRANCH   7   9
ATOM      9  C   UNL     1      46.146   7.153  12.494  0.00  0.00    +0.000 C 
BRANCH   9  14
ATOM     10  C   UNL     1      45.083   4.842   9.656  0.00  0.00    +0.000 A 
ATOM     11  C   UNL     1      43.804   4.456  10.062  0.00  0.00    +0.000 A 
ATOM     12  C   UNL     1      43.268   4.949  11.253  0.00  0.00    +0.000 A 
ATOM     13  C   UNL     1      44.016   5.822  12.048  0.00  0.00    +0.000 A 
ATOM     14  C   UNL     1      45.316   6.195  11.670  0.00  0.00    +0.000 A 
ATOM     15  C   UNL     1      45.838   5.706  10.460  0.00  0.00    +0.000 A 
BRANCH  10  17
ATOM     16  N   UNL     1      46.068   3.982   7.414  0.00  0.00    +0.000 NA
ATOM     17  C   UNL     1      45.625   4.359   8.423  0.00  0.00    +0.000 C 
ENDBRANCH  10  17
ENDBRANCH   9  14
ENDBRANCH   7   9
ENDBRANCH   1   7
BRANCH   4  18
ATOM     18  C   UNL     1      47.942   3.340  17.533  0.00  0.00    +0.000 C 
BRANCH  18  19
ATOM     19  N   UNL     1      49.324   3.096  17.856  0.00  0.00    +0.000 N 
ATOM     20  C   UNL     1      50.089   2.254  17.082  0.00  0.00    +0.000 C 
ATOM     21  O   UNL     1      49.641   1.689  16.088  0.00  0.00    +0.000 OA
ATOM     22  H   UNL     1      49.642   3.333  18.790  0.00  0.00    +0.000 HD
BRANCH  20  23
ATOM     23  C   UNL     1      51.495   2.103  17.476  0.00  0.00    +0.000 A 
ATOM     24  C   UNL     1      52.037   0.832  17.620  0.00  0.00    +0.000 A 
ATOM     25  S   UNL     1      53.664   0.839  18.133  0.00  0.00    +0.000 S 
ATOM     26  C   UNL     1      53.696   2.539  18.191  0.00  0.00    +0.000 A 
ATOM     27  N   UNL     1      54.806   3.206  18.610  0.00  0.00    +0.000 NA
ATOM     28  C   UNL     1      54.685   4.492  18.612  0.00  0.00    +0.000 A 
ATOM     29  N   UNL     1      53.564   5.173  18.215  0.00  0.00    +0.000 N 
ATOM     30  C   UNL     1      52.435   4.543  17.747  0.00  0.00    +0.000 A 
ATOM     31  O   UNL     1      51.478   5.180  17.320  0.00  0.00    +0.000 OA
ATOM     32  C   UNL     1      52.499   3.094  17.775  0.00  0.00    +0.000 A 
ATOM     33  H   UNL     1      53.549   6.181  18.204  0.00  0.00    +0.000 HD
ENDBRANCH  20  23
ENDBRANCH  18  19
ENDBRANCH   4  18
TORSDOF 7
ENDMDL
MODEL 7
REMARK VINA RESULT:    -7.321      2.175      2.841
REMARK INTER + INTRA:         -11.122
REMARK INTER:                 -10.012
REMARK INTRA:                  -1.109
REMARK UNBOUND:                -0.805
REMARK  Name = 
REMARK  7 active torsions:
REMARK  status: ('A' for Active; 'I' for Inactive)
REMARK    1  A    between atoms: C_2  and  C_3
REMARK    2  A    between atoms: C_7  and  C_8
REMARK    3  A    between atoms: C_8  and  N_9
REMARK    4  A    between atoms: N_9  and  C_10
REMARK    5  A    between atoms: C_13  and  C_14
REMARK    6  A    between atoms: C_14  and  N_15
REMARK    7  A    between atoms: C_16  and  C_18
REMARK                            x       y       z     vdW  Elec       q    Type
REMARK                         _______ _______ _______ _____ _____    ______ ____
ROOT
ATOM      1  C   UNL     1      45.231   5.136  11.376  0.00  0.00    +0.000 A 
ATOM      2  C   UNL     1      46.020   6.197  10.907  0.00  0.00    +0.000 A 
ATOM      3  C   UNL     1      46.977   6.818  11.737  0.00  0.00    +0.000 A 
ATOM      4  C   UNL     1      47.143   6.409  13.067  0.00  0.00    +0.000 A 
ATOM      5  C   UNL     1      46.284   5.427  13.564  0.00  0.00    +0.000 A 
ATOM      6  C   UNL     1      45.348   4.811  12.731  0.00  0.00    +0.000 A 
ENDROOT
BRANCH   1   7
ATOM      7  N   UNL     1      44.276   4.517  10.547  0.00  0.00    +0.000 N 
ATOM      8  H   UNL     1      43.325   4.769  10.802  0.00  0.00    +0.000 HD
BRANCH   7   9
ATOM      9  C   UNL     1      44.508   4.594   9.099  0.00  0.00    +0.000 C 
BRANCH   9  14
ATOM     10  C   UNL     1      46.701   2.324   6.962  0.00  0.00    +0.000 A 
ATOM     11  C   UNL     1      46.518   1.083   7.576  0.00  0.00    +0.000 A 
ATOM     12  C   UNL     1      45.674   0.967   8.682  0.00  0.00    +0.000 A 
ATOM     13  C   UNL     1      45.019   2.096   9.184  0.00  0.00    +0.000 A 
ATOM     14  C   UNL     1      45.216   3.356   8.597  0.00  0.00    +0.000 A 
ATOM     15  C   UNL     1      46.055   3.457   7.473  0.00  0.00    +0.000 A 
BRANCH  10  17
ATOM     16  N   UNL     1      48.246   2.540   4.887  0.00  0.00    +0.000 NA
ATOM     17  C   UNL     1      47.545   2.441   5.812  0.00  0.00    +0.000 C 
ENDBRANCH  10  17
ENDBRANCH   9  14
ENDBRANCH   7   9
ENDBRANCH   1   7
BRANCH   4  18
ATOM     18  C   UNL     1      48.226   6.961  13.958  0.00  0.00    +0.000 C 
BRANCH  18  19
ATOM     19  N   UNL     1      48.083   6.575  15.338  0.00  0.00    +0.000 N 
ATOM     20  C   UNL     1      49.186   6.283  16.106  0.00  0.00    +0.000 C 
ATOM     21  O   UNL     1      50.329   6.349  15.662  0.00  0.00    +0.000 OA
ATOM     22  H   UNL     1      47.167   6.267  15.651  0.00  0.00    +0.000 HD
BRANCH  20  23
ATOM     23  C   UNL     1      48.932   5.935  17.509  0.00  0.00    +0.000 A 
ATOM     24  C   UNL     1      49.224   4.656  17.966  0.00  0.00    +0.000 A 
ATOM     25  S   UNL     1      48.818   4.409  19.604  0.00  0.00    +0.000 S 
ATOM     26  C   UNL     1      48.227   5.997  19.755  0.00  0.00    +0.000 A 
ATOM     27  N   UNL     1      47.675   6.432  20.921  0.00  0.00    +0.000 NA
ATOM     28  C   UNL     1      47.260   7.655  20.890  0.00  0.00    +0.000 A 
ATOM     29  N   UNL     1      47.365   8.488  19.806  0.00  0.00    +0.000 N 
ATOM     30  C   UNL     1      47.951   8.105  18.623  0.00  0.00    +0.000 A 
ATOM     31  O   UNL     1      48.105   8.897  17.700  0.00  0.00    +0.000 OA
ATOM     32  C   UNL     1      48.385   6.722  18.587  0.00  0.00    +0.000 A 
ATOM     33  H   UNL     1      47.056   9.447  19.861  0.00  0.00    +0.000 HD
ENDBRANCH  20  23
ENDBRANCH  18  19
ENDBRANCH   4  18
TORSDOF 7
ENDMDL
MODEL 8
REMARK VINA RESULT:    -7.053      2.965      3.853
REMARK INTER + INTRA:         -10.744
REMARK INTER:                 -10.233
REMARK INTRA:                  -0.511
REMARK UNBOUND:                -0.805
REMARK  Name = 
REMARK  7 active torsions:
REMARK  status: ('A' for Active; 'I' for Inactive)
REMARK    1  A    between atoms: C_2  and  C_3
REMARK    2  A    between atoms: C_7  and  C_8
REMARK    3  A    between atoms: C_8  and  N_9
REMARK    4  A    between atoms: N_9  and  C_10
REMARK    5  A    between atoms: C_13  and  C_14
REMARK    6  A    between atoms: C_14  and  N_15
REMARK    7  A    between atoms: C_16  and  C_18
REMARK                            x       y       z     vdW  Elec       q    Type
REMARK                         _______ _______ _______ _____ _____    ______ ____
ROOT
ATOM      1  C   UNL     1      46.847   5.932  12.698  0.00  0.00    +0.000 A 
ATOM      2  C   UNL     1      46.389   4.708  13.207  0.00  0.00    +0.000 A 
ATOM      3  C   UNL     1      46.736   4.281  14.506  0.00  0.00    +0.000 A 
ATOM      4  C   UNL     1      47.577   5.060  15.314  0.00  0.00    +0.000 A 
ATOM      5  C   UNL     1      48.117   6.224  14.766  0.00  0.00    +0.000 A 
ATOM      6  C   UNL     1      47.759   6.643  13.484  0.00  0.00    +0.000 A 
ENDROOT
BRANCH   1   7
ATOM      7  N   UNL     1      46.500   6.356  11.401  0.00  0.00    +0.000 N 
ATOM      8  H   UNL     1      47.181   6.065  10.706  0.00  0.00    +0.000 HD
BRANCH   7   9
ATOM      9  C   UNL     1      45.117   6.108  10.971  0.00  0.00    +0.000 C 
BRANCH   9  14
ATOM     10  C   UNL     1      45.534   3.489   8.234  0.00  0.00    +0.000 A 
ATOM     11  C   UNL     1      44.801   2.416   8.747  0.00  0.00    +0.000 A 
ATOM     12  C   UNL     1      44.156   2.533   9.979  0.00  0.00    +0.000 A 
ATOM     13  C   UNL     1      44.251   3.723  10.708  0.00  0.00    +0.000 A 
ATOM     14  C   UNL     1      45.010   4.800  10.221  0.00  0.00    +0.000 A 
ATOM     15  C   UNL     1      45.641   4.675   8.971  0.00  0.00    +0.000 A 
BRANCH  10  17
ATOM     16  N   UNL     1      46.712   3.290   5.929  0.00  0.00    +0.000 NA
ATOM     17  C   UNL     1      46.175   3.379   6.959  0.00  0.00    +0.000 C 
ENDBRANCH  10  17
ENDBRANCH   9  14
ENDBRANCH   7   9
ENDBRANCH   1   7
BRANCH   4  18
ATOM     18  C   UNL     1      47.885   4.704  16.746  0.00  0.00    +0.000 C 
BRANCH  18  19
ATOM     19  N   UNL     1      49.235   4.243  16.941  0.00  0.00    +0.000 N 
ATOM     20  C   UNL     1      50.075   4.879  17.826  0.00  0.00    +0.000 C 
ATOM     21  O   UNL     1      49.715   5.846  18.491  0.00  0.00    +0.000 OA
ATOM     22  H   UNL     1      49.633   3.629  16.237  0.00  0.00    +0.000 HD
BRANCH  20  23
ATOM     23  C   UNL     1      51.418   4.307  17.977  0.00  0.00    +0.000 A 
ATOM     24  C   UNL     1      52.475   5.122  18.364  0.00  0.00    +0.000 A 
ATOM     25  S   UNL     1      53.972   4.307  18.439  0.00  0.00    +0.000 S 
ATOM     26  C   UNL     1      53.262   2.842  17.946  0.00  0.00    +0.000 A 
ATOM     27  N   UNL     1      54.017   1.725  17.759  0.00  0.00    +0.000 NA
ATOM     28  C   UNL     1      53.348   0.688  17.376  0.00  0.00    +0.000 A 
ATOM     29  N   UNL     1      51.992   0.661  17.182  0.00  0.00    +0.000 N 
ATOM     30  C   UNL     1      51.184   1.753  17.397  0.00  0.00    +0.000 A 
ATOM     31  O   UNL     1      49.965   1.677  17.297  0.00  0.00    +0.000 OA
ATOM     32  C   UNL     1      51.894   2.960  17.777  0.00  0.00    +0.000 A 
ATOM     33  H   UNL     1      51.524  -0.194  16.920  0.00  0.00    +0.000 HD
ENDBRANCH  20  23
ENDBRANCH  18  19
ENDBRANCH   4  18
TORSDOF 7
ENDMDL
MODEL 9
REMARK VINA RESULT:    -6.934      3.665      8.018
REMARK INTER + INTRA:         -10.577
REMARK INTER:                  -8.492
REMARK INTRA:                  -2.085
REMARK UNBOUND:                -0.805
REMARK  Name = 
REMARK  7 active torsions:
REMARK  status: ('A' for Active; 'I' for Inactive)
REMARK    1  A    between atoms: C_2  and  C_3
REMARK    2  A    between atoms: C_7  and  C_8
REMARK    3  A    between atoms: C_8  and  N_9
REMARK    4  A    between atoms: N_9  and  C_10
REMARK    5  A    between atoms: C_13  and  C_14
REMARK    6  A    between atoms: C_14  and  N_15
REMARK    7  A    between atoms: C_16  and  C_18
REMARK                            x       y       z     vdW  Elec       q    Type
REMARK                         _______ _______ _______ _____ _____    ______ ____
ROOT
ATOM      1  C   UNL     1      51.187   7.272  18.221  0.00  0.00    +0.000 A 
ATOM      2  C   UNL     1      50.138   7.914  18.896  0.00  0.00    +0.000 A 
ATOM      3  C   UNL     1      49.206   8.715  18.205  0.00  0.00    +0.000 A 
ATOM      4  C   UNL     1      49.322   8.915  16.822  0.00  0.00    +0.000 A 
ATOM      5  C   UNL     1      50.426   8.364  16.170  0.00  0.00    +0.000 A 
ATOM      6  C   UNL     1      51.337   7.565  16.861  0.00  0.00    +0.000 A 
ENDROOT
BRANCH   1   7
ATOM      7  N   UNL     1      52.117   6.474  18.912  0.00  0.00    +0.000 N 
ATOM      8  H   UNL     1      52.773   7.029  19.455  0.00  0.00    +0.000 HD
BRANCH   7   9
ATOM      9  C   UNL     1      51.579   5.338  19.673  0.00  0.00    +0.000 C 
BRANCH   9  14
ATOM     10  C   UNL     1      49.127   3.246  17.640  0.00  0.00    +0.000 A 
ATOM     11  C   UNL     1      49.966   2.279  17.082  0.00  0.00    +0.000 A 
ATOM     12  C   UNL     1      51.332   2.288  17.366  0.00  0.00    +0.000 A 
ATOM     13  C   UNL     1      51.866   3.273  18.203  0.00  0.00    +0.000 A 
ATOM     14  C   UNL     1      51.041   4.271  18.748  0.00  0.00    +0.000 A 
ATOM     15  C   UNL     1      49.663   4.240  18.467  0.00  0.00    +0.000 A 
BRANCH  10  17
ATOM     16  N   UNL     1      46.580   3.190  17.141  0.00  0.00    +0.000 NA
ATOM     17  C   UNL     1      47.721   3.223  17.371  0.00  0.00    +0.000 C 
ENDBRANCH  10  17
ENDBRANCH   9  14
ENDBRANCH   7   9
ENDBRANCH   1   7
BRANCH   4  18
ATOM     18  C   UNL     1      48.290   9.667  16.020  0.00  0.00    +0.000 C 
BRANCH  18  19
ATOM     19  N   UNL     1      47.451   8.810  15.224  0.00  0.00    +0.000 N 
ATOM     20  C   UNL     1      47.592   8.759  13.856  0.00  0.00    +0.000 C 
ATOM     21  O   UNL     1      48.435   9.423  13.260  0.00  0.00    +0.000 OA
ATOM     22  H   UNL     1      46.597   8.458  15.646  0.00  0.00    +0.000 HD
BRANCH  20  23
ATOM     23  C   UNL     1      46.712   7.826  13.144  0.00  0.00    +0.000 A 
ATOM     24  C   UNL     1      45.810   8.310  12.205  0.00  0.00    +0.000 A 
ATOM     25  S   UNL     1      44.830   7.098  11.512  0.00  0.00    +0.000 S 
ATOM     26  C   UNL     1      45.571   5.886  12.449  0.00  0.00    +0.000 A 
ATOM     27  N   UNL     1      45.157   4.592  12.376  0.00  0.00    +0.000 NA
ATOM     28  C   UNL     1      45.801   3.782  13.150  0.00  0.00    +0.000 A 
ATOM     29  N   UNL     1      46.833   4.146  13.975  0.00  0.00    +0.000 N 
ATOM     30  C   UNL     1      47.311   5.433  14.052  0.00  0.00    +0.000 A 
ATOM     31  O   UNL     1      48.289   5.712  14.736  0.00  0.00    +0.000 OA
ATOM     32  C   UNL     1      46.585   6.393  13.242  0.00  0.00    +0.000 A 
ATOM     33  H   UNL     1      47.321   3.456  14.527  0.00  0.00    +0.000 HD
ENDBRANCH  20  23
ENDBRANCH  18  19
ENDBRANCH   4  18
TORSDOF 7
ENDMDL
