MODEL 1
REMARK VINA RESULT:    -7.528      0.000      0.000
REMARK INTER + INTRA:         -11.485
REMARK INTER:                 -10.389
REMARK INTRA:                  -1.096
REMARK UNBOUND:                -1.096
REMARK  Name = 
REMARK  11 active torsions:
REMARK  status: ('A' for Active; 'I' for Inactive)
REMARK    1  A    between atoms: C_1  and  C_2
REMARK    2  A    between atoms: C_4  and  O_5
REMARK    3  A    between atoms: O_5  and  C_6
REMARK    4  A    between atoms: C_6  and  C_7
REMARK    5  A    between atoms: C_7  and  C_8
REMARK    6  A    between atoms: C_7  and  C_9
REMARK    7  A    between atoms: C_7  and  C_10
REMARK    8  A    between atoms: C_12  and  N_13
REMARK    9  A    between atoms: C_16  and  C_17
REMARK   10  A    between atoms: C_17  and  O_19
REMARK   11  A    between atoms: C_26  and  C_27
REMARK                            x       y       z     vdW  Elec       q    Type
REMARK                         _______ _______ _______ _____ _____    ______ ____
ROOT
ATOM      1  C   UNL     1      45.142   5.183  12.109  0.00  0.00    +0.000 A 
ATOM      2  C   UNL     1      45.682   4.795  13.335  0.00  0.00    +0.000 A 
ATOM      3  C   UNL     1      46.868   5.360  13.813  0.00  0.00    +0.000 A 
ATOM      4  C   UNL     1      47.525   6.266  12.987  0.00  0.00    +0.000 A 
ATOM      5  C   UNL     1      46.942   6.610  11.781  0.00  0.00    +0.000 A 
ATOM      6  N   UNL     1      45.772   6.102  11.333  0.00  0.00    +0.000 NA
ENDROOT
BRANCH   3   7
ATOM      7  N   UNL     1      47.341   5.135  15.108  0.00  0.00    +0.000 N 
ATOM      8  C   UNL     1      47.417   3.743  15.550  0.00  0.00    +0.000 C 
ATOM      9  C   UNL     1      47.283   3.745  17.067  0.00  0.00    +0.000 C 
ATOM     10  C   UNL     1      48.388   4.586  17.719  0.00  0.00    +0.000 C 
ATOM     11  C   UNL     1      48.474   5.990  17.083  0.00  0.00    +0.000 C 
ATOM     12  C   UNL     1      48.473   5.961  15.547  0.00  0.00    +0.000 C 
BRANCH  10  13
ATOM     13  C   UNL     1      49.721   3.863  17.656  0.00  0.00    +0.000 C 
ATOM     14  O   UNL     1      50.766   4.356  17.254  0.00  0.00    +0.000 OA
BRANCH  13  15
ATOM     15  O   UNL     1      49.664   2.592  18.119  0.00  0.00    +0.000 OA
ATOM     16  H   UNL     1      50.531   2.188  18.304  0.00  0.00    +0.000 HD
ENDBRANCH  13  15
ENDBRANCH  10  13
ENDBRANCH   3   7
BRANCH   1  17
ATOM     17  C   UNL     1      43.794   4.657  11.593  0.00  0.00    +0.000 C 
ATOM     18  C   UNL     1      42.697   5.699  11.891  0.00  0.00    +0.000 C 
ATOM     19  C   UNL     1      43.466   3.351  12.350  0.00  0.00    +0.000 C 
BRANCH  17  20
ATOM     20  C   UNL     1      43.773   4.325  10.073  0.00  0.00    +0.000 C 
BRANCH  20  21
ATOM     21  O   UNL     1      44.113   2.951   9.858  0.00  0.00    +0.000 OA
BRANCH  21  25
ATOM     22  C   UNL     1      46.947   4.039   5.929  0.00  0.00    +0.000 C 
ATOM     23  C   UNL     1      46.362   3.104   6.944  0.00  0.00    +0.000 A 
ATOM     24  C   UNL     1      45.471   3.564   7.907  0.00  0.00    +0.000 A 
ATOM     25  C   UNL     1      44.973   2.660   8.837  0.00  0.00    +0.000 A 
ATOM     26  C   UNL     1      45.373   1.329   8.773  0.00  0.00    +0.000 A 
ATOM     27  C   UNL     1      46.270   0.943   7.785  0.00  0.00    +0.000 A 
ATOM     28  C   UNL     1      46.751  -0.472   7.689  0.00  0.00    +0.000 C 
ATOM     29  N   UNL     1      46.762   1.814   6.874  0.00  0.00    +0.000 NA
ENDBRANCH  21  25
ENDBRANCH  20  21
ENDBRANCH  17  20
ENDBRANCH   1  17
TORSDOF 7
ENDMDL
MODEL 2
REMARK VINA RESULT:    -7.292      2.698      9.099
REMARK INTER + INTRA:         -11.158
REMARK INTER:                 -10.135
REMARK INTRA:                  -1.023
REMARK UNBOUND:                -1.096
REMARK  Name = 
REMARK  11 active torsions:
REMARK  status: ('A' for Active; 'I' for Inactive)
REMARK    1  A    between atoms: C_1  and  C_2
REMARK    2  A    between atoms: C_4  and  O_5
REMARK    3  A    between atoms: O_5  and  C_6
REMARK    4  A    between atoms: C_6  and  C_7
REMARK    5  A    between atoms: C_7  and  C_8
REMARK    6  A    between atoms: C_7  and  C_9
REMARK    7  A    between atoms: C_7  and  C_10
REMARK    8  A    between atoms: C_12  and  N_13
REMARK    9  A    between atoms: C_16  and  C_17
REMARK   10  A    between atoms: C_17  and  O_19
REMARK   11  A    between atoms: C_26  and  C_27
REMARK                            x       y       z     vdW  Elec       q    Type
REMARK                         _______ _______ _______ _____ _____    ______ ____
ROOT
ATOM      1  C   UNL     1      47.837   5.070  15.703  0.00  0.00    +0.000 A 
ATOM      2  C   UNL     1      46.744   4.708  14.917  0.00  0.00    +0.000 A 
ATOM      3  C   UNL     1      46.526   5.297  13.668  0.00  0.00    +0.000 A 
ATOM      4  C   UNL     1      47.399   6.307  13.274  0.00  0.00    +0.000 A 
ATOM      5  C   UNL     1      48.463   6.624  14.098  0.00  0.00    +0.000 A 
ATOM      6  N   UNL     1      48.706   6.027  15.286  0.00  0.00    +0.000 NA
ENDROOT
BRANCH   3   7
ATOM      7  N   UNL     1      45.555   4.835  12.776  0.00  0.00    +0.000 N 
ATOM      8  C   UNL     1      45.364   5.609  11.551  0.00  0.00    +0.000 C 
ATOM      9  C   UNL     1      43.927   5.389  11.099  0.00  0.00    +0.000 C 
ATOM     10  C   UNL     1      43.645   3.901  10.855  0.00  0.00    +0.000 C 
ATOM     11  C   UNL     1      44.073   3.043  12.065  0.00  0.00    +0.000 C 
ATOM     12  C   UNL     1      45.480   3.381  12.580  0.00  0.00    +0.000 C 
BRANCH  10  13
ATOM     13  C   UNL     1      44.310   3.432   9.574  0.00  0.00    +0.000 C 
ATOM     14  O   UNL     1      44.948   2.395   9.457  0.00  0.00    +0.000 OA
BRANCH  13  15
ATOM     15  O   UNL     1      44.113   4.270   8.529  0.00  0.00    +0.000 OA
ATOM     16  H   UNL     1      43.796   3.837   7.716  0.00  0.00    +0.000 HD
ENDBRANCH  13  15
ENDBRANCH  10  13
ENDBRANCH   3   7
BRANCH   1  17
ATOM     17  C   UNL     1      48.164   4.380  17.037  0.00  0.00    +0.000 C 
ATOM     18  C   UNL     1      47.588   2.950  17.020  0.00  0.00    +0.000 C 
ATOM     19  C   UNL     1      47.487   5.181  18.171  0.00  0.00    +0.000 C 
BRANCH  17  20
ATOM     20  C   UNL     1      49.682   4.307  17.368  0.00  0.00    +0.000 C 
BRANCH  20  21
ATOM     21  O   UNL     1      50.220   3.042  16.968  0.00  0.00    +0.000 OA
BRANCH  21  25
ATOM     22  C   UNL     1      53.824  -0.224  17.963  0.00  0.00    +0.000 C 
ATOM     23  C   UNL     1      53.130   1.095  18.114  0.00  0.00    +0.000 A 
ATOM     24  C   UNL     1      51.952   1.364  17.426  0.00  0.00    +0.000 A 
ATOM     25  C   UNL     1      51.359   2.610  17.586  0.00  0.00    +0.000 A 
ATOM     26  C   UNL     1      51.955   3.543  18.428  0.00  0.00    +0.000 A 
ATOM     27  C   UNL     1      53.135   3.206  19.080  0.00  0.00    +0.000 A 
ATOM     28  C   UNL     1      53.829   4.183  19.978  0.00  0.00    +0.000 C 
ATOM     29  N   UNL     1      53.721   1.995  18.932  0.00  0.00    +0.000 NA
ENDBRANCH  21  25
ENDBRANCH  20  21
ENDBRANCH  17  20
ENDBRANCH   1  17
TORSDOF 7
ENDMDL
MODEL 3
REMARK VINA RESULT:    -7.220      2.154      3.872
REMARK INTER + INTRA:         -11.060
REMARK INTER:                 -10.235
REMARK INTRA:                  -0.825
REMARK UNBOUND:                -1.096
REMARK  Name = 
REMARK  11 active torsions:
REMARK  status: ('A' for Active; 'I' for Inactive)
REMARK    1  A    between atoms: C_1  and  C_2
REMARK    2  A    between atoms: C_4  and  O_5
REMARK    3  A    between atoms: O_5  and  C_6
REMARK    4  A    between atoms: C_6  and  C_7
REMARK    5  A    between atoms: C_7  and  C_8
REMARK    6  A    between atoms: C_7  and  C_9
REMARK    7  A    between atoms: C_7  and  C_10
REMARK    8  A    between atoms: C_12  and  N_13
REMARK    9  A    between atoms: C_16  and  C_17
REMARK   10  A    between atoms: C_17  and  O_19
REMARK   11  A    between atoms: C_26  and  C_27
REMARK                            x       y       z     vdW  Elec       q    Type
REMARK                         _______ _______ _______ _____ _____    ______ ____
ROOT
ATOM      1  C   UNL     1      47.937   7.995  14.081  0.00  0.00    +0.000 A 
ATOM      2  C   UNL     1      48.271   6.776  14.673  0.00  0.00    +0.000 A 
ATOM      3  C   UNL     1      48.755   6.719  15.983  0.00  0.00    +0.000 A 
ATOM      4  C   UNL     1      48.960   7.926  16.645  0.00  0.00    +0.000 A 
ATOM      5  C   UNL     1      48.613   9.102  16.004  0.00  0.00    +0.000 A 
ATOM      6  N   UNL     1      48.101   9.162  14.755  0.00  0.00    +0.000 NA
ENDROOT
BRANCH   3   7
ATOM      7  N   UNL     1      48.926   5.516  16.671  0.00  0.00    +0.000 N 
ATOM      8  C   UNL     1      48.118   4.381  16.226  0.00  0.00    +0.000 C 
ATOM      9  C   UNL     1      47.934   3.462  17.426  0.00  0.00    +0.000 C 
ATOM     10  C   UNL     1      49.287   2.987  17.972  0.00  0.00    +0.000 C 
ATOM     11  C   UNL     1      50.241   4.176  18.217  0.00  0.00    +0.000 C 
ATOM     12  C   UNL     1      50.303   5.158  17.037  0.00  0.00    +0.000 C 
BRANCH  10  13
ATOM     13  C   UNL     1      49.907   1.956  17.048  0.00  0.00    +0.000 C 
ATOM     14  O   UNL     1      49.556   1.750  15.894  0.00  0.00    +0.000 OA
BRANCH  13  15
ATOM     15  O   UNL     1      50.932   1.276  17.613  0.00  0.00    +0.000 OA
ATOM     16  H   UNL     1      50.704   0.811  18.439  0.00  0.00    +0.000 HD
ENDBRANCH  13  15
ENDBRANCH  10  13
ENDBRANCH   3   7
BRANCH   1  17
ATOM     17  C   UNL     1      47.314   8.092  12.680  0.00  0.00    +0.000 C 
ATOM     18  C   UNL     1      48.232   8.939  11.776  0.00  0.00    +0.000 C 
ATOM     19  C   UNL     1      45.946   8.798  12.809  0.00  0.00    +0.000 C 
BRANCH  17  20
ATOM     20  C   UNL     1      47.059   6.720  11.993  0.00  0.00    +0.000 C 
BRANCH  20  21
ATOM     21  O   UNL     1      45.872   6.774  11.194  0.00  0.00    +0.000 OA
BRANCH  21  25
ATOM     22  C   UNL     1      45.550   3.444   7.526  0.00  0.00    +0.000 C 
ATOM     23  C   UNL     1      45.241   3.964   8.897  0.00  0.00    +0.000 A 
ATOM     24  C   UNL     1      45.742   5.188   9.325  0.00  0.00    +0.000 A 
ATOM     25  C   UNL     1      45.442   5.615  10.612  0.00  0.00    +0.000 A 
ATOM     26  C   UNL     1      44.649   4.814  11.427  0.00  0.00    +0.000 A 
ATOM     27  C   UNL     1      44.187   3.600  10.933  0.00  0.00    +0.000 A 
ATOM     28  C   UNL     1      43.351   2.689  11.778  0.00  0.00    +0.000 C 
ATOM     29  N   UNL     1      44.473   3.173   9.680  0.00  0.00    +0.000 NA
ENDBRANCH  21  25
ENDBRANCH  20  21
ENDBRANCH  17  20
ENDBRANCH   1  17
TORSDOF 7
ENDMDL
MODEL 4
REMARK VINA RESULT:    -7.197      1.173      2.210
REMARK INTER + INTRA:         -11.028
REMARK INTER:                 -10.273
REMARK INTRA:                  -0.755
REMARK UNBOUND:                -1.096
REMARK  Name = 
REMARK  11 active torsions:
REMARK  status: ('A' for Active; 'I' for Inactive)
REMARK    1  A    between atoms: C_1  and  C_2
REMARK    2  A    between atoms: C_4  and  O_5
REMARK    3  A    between atoms: O_5  and  C_6
REMARK    4  A    between atoms: C_6  and  C_7
REMARK    5  A    between atoms: C_7  and  C_8
REMARK    6  A    between atoms: C_7  and  C_9
REMARK    7  A    between atoms: C_7  and  C_10
REMARK    8  A    between atoms: C_12  and  N_13
REMARK    9  A    between atoms: C_16  and  C_17
REMARK   10  A    between atoms: C_17  and  O_19
REMARK   11  A    between atoms: C_26  and  C_27
REMARK                            x       y       z     vdW  Elec       q    Type
REMARK                         _______ _______ _______ _____ _____    ______ ____
ROOT
ATOM      1  C   UNL     1      45.340   5.092  12.204  0.00  0.00    +0.000 A 
ATOM      2  C   UNL     1      45.964   4.727  13.397  0.00  0.00    +0.000 A 
ATOM      3  C   UNL     1      47.160   5.327  13.800  0.00  0.00    +0.000 A 
ATOM      4  C   UNL     1      47.742   6.245  12.930  0.00  0.00    +0.000 A 
ATOM      5  C   UNL     1      47.077   6.564  11.760  0.00  0.00    +0.000 A 
ATOM      6  N   UNL     1      45.897   6.022  11.386  0.00  0.00    +0.000 NA
ENDROOT
BRANCH   3   7
ATOM      7  N   UNL     1      47.717   5.124  15.065  0.00  0.00    +0.000 N 
ATOM      8  C   UNL     1      48.195   6.311  15.772  0.00  0.00    +0.000 C 
ATOM      9  C   UNL     1      49.301   5.856  16.716  0.00  0.00    +0.000 C 
ATOM     10  C   UNL     1      48.787   4.801  17.704  0.00  0.00    +0.000 C 
ATOM     11  C   UNL     1      48.060   3.653  16.971  0.00  0.00    +0.000 C 
ATOM     12  C   UNL     1      47.044   4.146  15.930  0.00  0.00    +0.000 C 
BRANCH  10  13
ATOM     13  C   UNL     1      47.901   5.439  18.758  0.00  0.00    +0.000 C 
ATOM     14  O   UNL     1      48.299   6.159  19.664  0.00  0.00    +0.000 OA
BRANCH  13  15
ATOM     15  O   UNL     1      46.587   5.158  18.596  0.00  0.00    +0.000 OA
ATOM     16  H   UNL     1      46.405   4.316  18.139  0.00  0.00    +0.000 HD
ENDBRANCH  13  15
ENDBRANCH  10  13
ENDBRANCH   3   7
BRANCH   1  17
ATOM     17  C   UNL     1      43.978   4.526  11.774  0.00  0.00    +0.000 C 
ATOM     18  C   UNL     1      42.856   5.392  12.381  0.00  0.00    +0.000 C 
ATOM     19  C   UNL     1      43.858   3.088  12.326  0.00  0.00    +0.000 C 
BRANCH  17  20
ATOM     20  C   UNL     1      43.773   4.445  10.234  0.00  0.00    +0.000 C 
BRANCH  20  21
ATOM     21  O   UNL     1      43.747   3.079   9.805  0.00  0.00    +0.000 OA
BRANCH  21  25
ATOM     22  C   UNL     1      46.659  -0.350   7.705  0.00  0.00    +0.000 C 
ATOM     23  C   UNL     1      46.198   1.056   7.942  0.00  0.00    +0.000 A 
ATOM     24  C   UNL     1      45.161   1.327   8.828  0.00  0.00    +0.000 A 
ATOM     25  C   UNL     1      44.759   2.645   8.996  0.00  0.00    +0.000 A 
ATOM     26  C   UNL     1      45.406   3.649   8.284  0.00  0.00    +0.000 A 
ATOM     27  C   UNL     1      46.431   3.303   7.412  0.00  0.00    +0.000 A 
ATOM     28  C   UNL     1      47.142   4.344   6.603  0.00  0.00    +0.000 C 
ATOM     29  N   UNL     1      46.832   2.022   7.240  0.00  0.00    +0.000 NA
ENDBRANCH  21  25
ENDBRANCH  20  21
ENDBRANCH  17  20
ENDBRANCH   1  17
TORSDOF 7
ENDMDL
MODEL 5
REMARK VINA RESULT:    -7.027      2.665      4.029
REMARK INTER + INTRA:         -10.794
REMARK INTER:                  -9.678
REMARK INTRA:                  -1.116
REMARK UNBOUND:                -1.096
REMARK  Name = 
REMARK  11 active torsions:
REMARK  status: ('A' for Active; 'I' for Inactive)
REMARK    1  A    between atoms: C_1  and  C_2
REMARK    2  A    between atoms: C_4  and  O_5
REMARK    3  A    between atoms: O_5  and  C_6
REMARK    4  A    between atoms: C_6  and  C_7
REMARK    5  A    between atoms: C_7  and  C_8
REMARK    6  A    between atoms: C_7  and  C_9
REMARK    7  A    between atoms: C_7  and  C_10
REMARK    8  A    between atoms: C_12  and  N_13
REMARK    9  A    between atoms: C_16  and  C_17
REMARK   10  A    between atoms: C_17  and  O_19
REMARK   11  A    between atoms: C_26  and  C_27
REMARK                            x       y       z     vdW  Elec       q    Type
REMARK                         _______ _______ _______ _____ _____    ______ ____
ROOT
ATOM      1  C   UNL     1      45.176   4.889  12.560  0.00  0.00    +0.000 A 
ATOM      2  C   UNL     1      45.914   6.015  12.194  0.00  0.00    +0.000 A 
ATOM      3  C   UNL     1      47.072   6.377  12.888  0.00  0.00    +0.000 A 
ATOM      4  C   UNL     1      47.418   5.615  13.999  0.00  0.00    +0.000 A 
ATOM      5  C   UNL     1      46.646   4.511  14.315  0.00  0.00    +0.000 A 
ATOM      6  N   UNL     1      45.551   4.129  13.621  0.00  0.00    +0.000 NA
ENDROOT
BRANCH   3   7
ATOM      7  N   UNL     1      47.932   7.383  12.443  0.00  0.00    +0.000 N 
ATOM      8  C   UNL     1      47.602   8.753  12.833  0.00  0.00    +0.000 C 
ATOM      9  C   UNL     1      48.182   9.676  11.770  0.00  0.00    +0.000 C 
ATOM     10  C   UNL     1      49.701   9.494  11.648  0.00  0.00    +0.000 C 
ATOM     11  C   UNL     1      50.076   8.006  11.478  0.00  0.00    +0.000 C 
ATOM     12  C   UNL     1      49.370   7.084  12.484  0.00  0.00    +0.000 C 
BRANCH  10  13
ATOM     13  C   UNL     1      50.412  10.116  12.836  0.00  0.00    +0.000 C 
ATOM     14  O   UNL     1      51.380   9.631  13.404  0.00  0.00    +0.000 OA
BRANCH  13  15
ATOM     15  O   UNL     1      49.886  11.305  13.213  0.00  0.00    +0.000 OA
ATOM     16  H   UNL     1      50.459  11.837  13.795  0.00  0.00    +0.000 HD
ENDBRANCH  13  15
ENDBRANCH  10  13
ENDBRANCH   3   7
BRANCH   1  17
ATOM     17  C   UNL     1      43.953   4.405  11.766  0.00  0.00    +0.000 C 
ATOM     18  C   UNL     1      42.738   5.282  12.125  0.00  0.00    +0.000 C 
ATOM     19  C   UNL     1      43.658   2.946  12.179  0.00  0.00    +0.000 C 
BRANCH  17  20
ATOM     20  C   UNL     1      44.144   4.416  10.223  0.00  0.00    +0.000 C 
BRANCH  20  21
ATOM     21  O   UNL     1      44.086   3.083   9.703  0.00  0.00    +0.000 OA
BRANCH  21  25
ATOM     22  C   UNL     1      47.025   3.982   5.803  0.00  0.00    +0.000 C 
ATOM     23  C   UNL     1      46.412   3.096   6.845  0.00  0.00    +0.000 A 
ATOM     24  C   UNL     1      45.496   3.602   7.762  0.00  0.00    +0.000 A 
ATOM     25  C   UNL     1      44.973   2.744   8.720  0.00  0.00    +0.000 A 
ATOM     26  C   UNL     1      45.372   1.411   8.729  0.00  0.00    +0.000 A 
ATOM     27  C   UNL     1      46.294   0.978   7.785  0.00  0.00    +0.000 A 
ATOM     28  C   UNL     1      46.775  -0.441   7.769  0.00  0.00    +0.000 C 
ATOM     29  N   UNL     1      46.811   1.805   6.847  0.00  0.00    +0.000 NA
ENDBRANCH  21  25
ENDBRANCH  20  21
ENDBRANCH  17  20
ENDBRANCH   1  17
TORSDOF 7
ENDMDL
MODEL 6
REMARK VINA RESULT:    -6.865      2.812      8.935
REMARK INTER + INTRA:         -10.569
REMARK INTER:                  -9.551
REMARK INTRA:                  -1.018
REMARK UNBOUND:                -1.096
REMARK  Name = 
REMARK  11 active torsions:
REMARK  status: ('A' for Active; 'I' for Inactive)
REMARK    1  A    between atoms: C_1  and  C_2
REMARK    2  A    between atoms: C_4  and  O_5
REMARK    3  A    between atoms: O_5  and  C_6
REMARK    4  A    between atoms: C_6  and  C_7
REMARK    5  A    between atoms: C_7  and  C_8
REMARK    6  A    between atoms: C_7  and  C_9
REMARK    7  A    between atoms: C_7  and  C_10
REMARK    8  A    between atoms: C_12  and  N_13
REMARK    9  A    between atoms: C_16  and  C_17
REMARK   10  A    between atoms: C_17  and  O_19
REMARK   11  A    between atoms: C_26  and  C_27
REMARK                            x       y       z     vdW  Elec       q    Type
REMARK                         _______ _______ _______ _____ _____    ______ ____
ROOT
ATOM      1  C   UNL     1      48.063   5.122  16.200  0.00  0.00    +0.000 A 
ATOM      2  C   UNL     1      47.156   4.843  15.178  0.00  0.00    +0.000 A 
ATOM      3  C   UNL     1      47.238   5.491  13.943  0.00  0.00    +0.000 A 
ATOM      4  C   UNL     1      48.210   6.475  13.798  0.00  0.00    +0.000 A 
ATOM      5  C   UNL     1      49.080   6.709  14.848  0.00  0.00    +0.000 A 
ATOM      6  N   UNL     1      49.036   6.054  16.029  0.00  0.00    +0.000 NA
ENDROOT
BRANCH   3   7
ATOM      7  N   UNL     1      46.468   5.112  12.841  0.00  0.00    +0.000 N 
ATOM      8  C   UNL     1      45.588   3.958  13.017  0.00  0.00    +0.000 C 
ATOM      9  C   UNL     1      45.395   3.325  11.645  0.00  0.00    +0.000 C 
ATOM     10  C   UNL     1      44.789   4.328  10.654  0.00  0.00    +0.000 C 
ATOM     11  C   UNL     1      45.582   5.653  10.641  0.00  0.00    +0.000 C 
ATOM     12  C   UNL     1      45.875   6.197  12.047  0.00  0.00    +0.000 C 
BRANCH  10  13
ATOM     13  C   UNL     1      43.320   4.559  10.954  0.00  0.00    +0.000 C 
ATOM     14  O   UNL     1      42.746   5.634  10.852  0.00  0.00    +0.000 OA
BRANCH  13  15
ATOM     15  O   UNL     1      42.667   3.436  11.336  0.00  0.00    +0.000 OA
ATOM     16  H   UNL     1      41.786   3.590  11.723  0.00  0.00    +0.000 HD
ENDBRANCH  13  15
ENDBRANCH  10  13
ENDBRANCH   3   7
BRANCH   1  17
ATOM     17  C   UNL     1      48.066   4.364  17.537  0.00  0.00    +0.000 C 
ATOM     18  C   UNL     1      47.266   3.056  17.377  0.00  0.00    +0.000 C 
ATOM     19  C   UNL     1      47.371   5.251  18.594  0.00  0.00    +0.000 C 
BRANCH  17  20
ATOM     20  C   UNL     1      49.483   4.025  18.081  0.00  0.00    +0.000 C 
BRANCH  20  21
ATOM     21  O   UNL     1      50.115   3.044  17.250  0.00  0.00    +0.000 OA
BRANCH  21  25
ATOM     22  C   UNL     1      53.824  -0.228  17.671  0.00  0.00    +0.000 C 
ATOM     23  C   UNL     1      53.213   1.133  17.814  0.00  0.00    +0.000 A 
ATOM     24  C   UNL     1      51.891   1.362  17.449  0.00  0.00    +0.000 A 
ATOM     25  C   UNL     1      51.378   2.646  17.583  0.00  0.00    +0.000 A 
ATOM     26  C   UNL     1      52.195   3.655  18.083  0.00  0.00    +0.000 A 
ATOM     27  C   UNL     1      53.507   3.353  18.423  0.00  0.00    +0.000 A 
ATOM     28  C   UNL     1      54.435   4.409  18.941  0.00  0.00    +0.000 C 
ATOM     29  N   UNL     1      54.018   2.106  18.296  0.00  0.00    +0.000 NA
ENDBRANCH  21  25
ENDBRANCH  20  21
ENDBRANCH  17  20
ENDBRANCH   1  17
TORSDOF 7
ENDMDL
MODEL 7
REMARK VINA RESULT:    -6.735      3.161      8.062
REMARK INTER + INTRA:         -10.390
REMARK INTER:                  -9.119
REMARK INTRA:                  -1.271
REMARK UNBOUND:                -1.096
REMARK  Name = 
REMARK  11 active torsions:
REMARK  status: ('A' for Active; 'I' for Inactive)
REMARK    1  A    between atoms: C_1  and  C_2
REMARK    2  A    between atoms: C_4  and  O_5
REMARK    3  A    between atoms: O_5  and  C_6
REMARK    4  A    between atoms: C_6  and  C_7
REMARK    5  A    between atoms: C_7  and  C_8
REMARK    6  A    between atoms: C_7  and  C_9
REMARK    7  A    between atoms: C_7  and  C_10
REMARK    8  A    between atoms: C_12  and  N_13
REMARK    9  A    between atoms: C_16  and  C_17
REMARK   10  A    between atoms: C_17  and  O_19
REMARK   11  A    between atoms: C_26  and  C_27
REMARK                            x       y       z     vdW  Elec       q    Type
REMARK                         _______ _______ _______ _____ _____    ______ ____
ROOT
ATOM      1  C   UNL     1      47.665   8.538  12.438  0.00  0.00    +0.000 A 
ATOM      2  C   UNL     1      46.815   7.435  12.349  0.00  0.00    +0.000 A 
ATOM      3  C   UNL     1      45.465   7.589  12.024  0.00  0.00    +0.000 A 
ATOM      4  C   UNL     1      44.987   8.886  11.865  0.00  0.00    +0.000 A 
ATOM      5  C   UNL     1      45.878   9.939  11.968  0.00  0.00    +0.000 A 
ATOM      6  N   UNL     1      47.194   9.795  12.237  0.00  0.00    +0.000 NA
ENDROOT
BRANCH   3   7
ATOM      7  N   UNL     1      44.629   6.505  11.747  0.00  0.00    +0.000 N 
ATOM      8  C   UNL     1      45.115   5.529  10.774  0.00  0.00    +0.000 C 
ATOM      9  C   UNL     1      43.892   4.881  10.138  0.00  0.00    +0.000 C 
ATOM     10  C   UNL     1      43.010   4.204  11.196  0.00  0.00    +0.000 C 
ATOM     11  C   UNL     1      42.691   5.167  12.359  0.00  0.00    +0.000 C 
ATOM     12  C   UNL     1      43.929   5.906  12.892  0.00  0.00    +0.000 C 
BRANCH  10  13
ATOM     13  C   UNL     1      43.655   2.924  11.692  0.00  0.00    +0.000 C 
ATOM     14  O   UNL     1      43.704   2.573  12.863  0.00  0.00    +0.000 OA
BRANCH  13  15
ATOM     15  O   UNL     1      44.170   2.162  10.699  0.00  0.00    +0.000 OA
ATOM     16  H   UNL     1      45.129   2.000  10.766  0.00  0.00    +0.000 HD
ENDBRANCH  13  15
ENDBRANCH  10  13
ENDBRANCH   3   7
BRANCH   1  17
ATOM     17  C   UNL     1      49.173   8.403  12.700  0.00  0.00    +0.000 C 
ATOM     18  C   UNL     1      49.879   9.705  12.271  0.00  0.00    +0.000 C 
ATOM     19  C   UNL     1      49.708   7.236  11.841  0.00  0.00    +0.000 C 
BRANCH  17  20
ATOM     20  C   UNL     1      49.544   8.092  14.178  0.00  0.00    +0.000 C 
BRANCH  20  21
ATOM     21  O   UNL     1      49.273   6.720  14.483  0.00  0.00    +0.000 OA
BRANCH  21  25
ATOM     22  C   UNL     1      48.459   7.662  19.289  0.00  0.00    +0.000 C 
ATOM     23  C   UNL     1      48.413   6.800  18.065  0.00  0.00    +0.000 A 
ATOM     24  C   UNL     1      48.927   7.252  16.854  0.00  0.00    +0.000 A 
ATOM     25  C   UNL     1      48.842   6.421  15.745  0.00  0.00    +0.000 A 
ATOM     26  C   UNL     1      48.256   5.167  15.878  0.00  0.00    +0.000 A 
ATOM     27  C   UNL     1      47.760   4.784  17.119  0.00  0.00    +0.000 A 
ATOM     28  C   UNL     1      47.097   3.454  17.309  0.00  0.00    +0.000 C 
ATOM     29  N   UNL     1      47.837   5.585  18.207  0.00  0.00    +0.000 NA
ENDBRANCH  21  25
ENDBRANCH  20  21
ENDBRANCH  17  20
ENDBRANCH   1  17
TORSDOF 7
ENDMDL
MODEL 8
REMARK VINA RESULT:    -6.586      2.343      8.224
REMARK INTER + INTRA:         -10.185
REMARK INTER:                  -9.379
REMARK INTRA:                  -0.806
REMARK UNBOUND:                -1.096
REMARK  Name = 
REMARK  11 active torsions:
REMARK  status: ('A' for Active; 'I' for Inactive)
REMARK    1  A    between atoms: C_1  and  C_2
REMARK    2  A    between atoms: C_4  and  O_5
REMARK    3  A    between atoms: O_5  and  C_6
REMARK    4  A    between atoms: C_6  and  C_7
REMARK    5  A    between atoms: C_7  and  C_8
REMARK    6  A    between atoms: C_7  and  C_9
REMARK    7  A    between atoms: C_7  and  C_10
REMARK    8  A    between atoms: C_12  and  N_13
REMARK    9  A    between atoms: C_16  and  C_17
REMARK   10  A    between atoms: C_17  and  O_19
REMARK   11  A    between atoms: C_26  and  C_27
REMARK                            x       y       z     vdW  Elec       q    Type
REMARK                         _______ _______ _______ _____ _____    ______ ____
ROOT
ATOM      1  C   UNL     1      46.814   7.297  12.335  0.00  0.00    +0.000 A 
ATOM      2  C   UNL     1      46.631   6.150  11.563  0.00  0.00    +0.000 A 
ATOM      3  C   UNL     1      45.352   5.712  11.211  0.00  0.00    +0.000 A 
ATOM      4  C   UNL     1      44.269   6.421  11.721  0.00  0.00    +0.000 A 
ATOM      5  C   UNL     1      44.512   7.549  12.484  0.00  0.00    +0.000 A 
ATOM      6  N   UNL     1      45.748   8.005  12.790  0.00  0.00    +0.000 NA
ENDROOT
BRANCH   3   7
ATOM      7  N   UNL     1      45.134   4.682  10.294  0.00  0.00    +0.000 N 
ATOM      8  C   UNL     1      45.700   4.858   8.957  0.00  0.00    +0.000 C 
ATOM      9  C   UNL     1      44.838   4.054   7.994  0.00  0.00    +0.000 C 
ATOM     10  C   UNL     1      44.808   2.570   8.383  0.00  0.00    +0.000 C 
ATOM     11  C   UNL     1      44.443   2.388   9.872  0.00  0.00    +0.000 C 
ATOM     12  C   UNL     1      45.239   3.310  10.808  0.00  0.00    +0.000 C 
BRANCH  10  13
ATOM     13  C   UNL     1      46.128   1.900   8.047  0.00  0.00    +0.000 C 
ATOM     14  O   UNL     1      47.097   2.468   7.563  0.00  0.00    +0.000 OA
BRANCH  13  15
ATOM     15  O   UNL     1      46.155   0.583   8.357  0.00  0.00    +0.000 OA
ATOM     16  H   UNL     1      46.499   0.382   9.246  0.00  0.00    +0.000 HD
ENDBRANCH  13  15
ENDBRANCH  10  13
ENDBRANCH   3   7
BRANCH   1  17
ATOM     17  C   UNL     1      48.204   7.863  12.663  0.00  0.00    +0.000 C 
ATOM     18  C   UNL     1      48.056   9.324  13.135  0.00  0.00    +0.000 C 
ATOM     19  C   UNL     1      49.051   7.837  11.372  0.00  0.00    +0.000 C 
BRANCH  17  20
ATOM     20  C   UNL     1      48.986   7.062  13.742  0.00  0.00    +0.000 C 
BRANCH  20  21
ATOM     21  O   UNL     1      48.174   6.006  14.267  0.00  0.00    +0.000 OA
BRANCH  21  25
ATOM     22  C   UNL     1      49.518   6.897  18.962  0.00  0.00    +0.000 C 
ATOM     23  C   UNL     1      48.908   6.063  17.876  0.00  0.00    +0.000 A 
ATOM     24  C   UNL     1      48.891   6.509  16.559  0.00  0.00    +0.000 A 
ATOM     25  C   UNL     1      48.296   5.708  15.594  0.00  0.00    +0.000 A 
ATOM     26  C   UNL     1      47.744   4.487  15.970  0.00  0.00    +0.000 A 
ATOM     27  C   UNL     1      47.793   4.109  17.306  0.00  0.00    +0.000 A 
ATOM     28  C   UNL     1      47.192   2.817  17.767  0.00  0.00    +0.000 C 
ATOM     29  N   UNL     1      48.371   4.882  18.255  0.00  0.00    +0.000 NA
ENDBRANCH  21  25
ENDBRANCH  20  21
ENDBRANCH  17  20
ENDBRANCH   1  17
TORSDOF 7
ENDMDL
MODEL 9
REMARK VINA RESULT:    -6.491      3.022      8.137
REMARK INTER + INTRA:         -10.053
REMARK INTER:                  -8.747
REMARK INTRA:                  -1.307
REMARK UNBOUND:                -1.096
REMARK  Name = 
REMARK  11 active torsions:
REMARK  status: ('A' for Active; 'I' for Inactive)
REMARK    1  A    between atoms: C_1  and  C_2
REMARK    2  A    between atoms: C_4  and  O_5
REMARK    3  A    between atoms: O_5  and  C_6
REMARK    4  A    between atoms: C_6  and  C_7
REMARK    5  A    between atoms: C_7  and  C_8
REMARK    6  A    between atoms: C_7  and  C_9
REMARK    7  A    between atoms: C_7  and  C_10
REMARK    8  A    between atoms: C_12  and  N_13
REMARK    9  A    between atoms: C_16  and  C_17
REMARK   10  A    between atoms: C_17  and  O_19
REMARK   11  A    between atoms: C_26  and  C_27
REMARK                            x       y       z     vdW  Elec       q    Type
REMARK                         _______ _______ _______ _____ _____    ______ ____
ROOT
ATOM      1  C   UNL     1      48.904   8.162  14.277  0.00  0.00    +0.000 A 
ATOM      2  C   UNL     1      47.904   7.230  13.998  0.00  0.00    +0.000 A 
ATOM      3  C   UNL     1      47.598   6.870  12.682  0.00  0.00    +0.000 A 
ATOM      4  C   UNL     1      48.276   7.531  11.663  0.00  0.00    +0.000 A 
ATOM      5  C   UNL     1      49.255   8.448  12.001  0.00  0.00    +0.000 A 
ATOM      6  N   UNL     1      49.589   8.766  13.272  0.00  0.00    +0.000 NA
ENDROOT
BRANCH   3   7
ATOM      7  N   UNL     1      46.738   5.815  12.370  0.00  0.00    +0.000 N 
ATOM      8  C   UNL     1      46.325   4.952  13.476  0.00  0.00    +0.000 C 
ATOM      9  C   UNL     1      46.007   3.585  12.885  0.00  0.00    +0.000 C 
ATOM     10  C   UNL     1      44.901   3.684  11.826  0.00  0.00    +0.000 C 
ATOM     11  C   UNL     1      45.220   4.774  10.781  0.00  0.00    +0.000 C 
ATOM     12  C   UNL     1      45.666   6.103  11.408  0.00  0.00    +0.000 C 
BRANCH  10  13
ATOM     13  C   UNL     1      43.551   3.916  12.480  0.00  0.00    +0.000 C 
ATOM     14  O   UNL     1      43.308   3.736  13.665  0.00  0.00    +0.000 OA
BRANCH  13  15
ATOM     15  O   UNL     1      42.612   4.377  11.622  0.00  0.00    +0.000 OA
ATOM     16  H   UNL     1      42.162   5.193  11.911  0.00  0.00    +0.000 HD
ENDBRANCH  13  15
ENDBRANCH  10  13
ENDBRANCH   3   7
BRANCH   1  17
ATOM     17  C   UNL     1      49.334   8.512  15.709  0.00  0.00    +0.000 C 
ATOM     18  C   UNL     1      48.636   9.818  16.142  0.00  0.00    +0.000 C 
ATOM     19  C   UNL     1      50.863   8.735  15.712  0.00  0.00    +0.000 C 
BRANCH  17  20
ATOM     20  C   UNL     1      49.030   7.407  16.760  0.00  0.00    +0.000 C 
BRANCH  20  21
ATOM     21  O   UNL     1      50.233   6.723  17.128  0.00  0.00    +0.000 OA
BRANCH  21  25
ATOM     22  C   UNL     1      52.159   2.193  17.777  0.00  0.00    +0.000 C 
ATOM     23  C   UNL     1      51.025   3.154  17.584  0.00  0.00    +0.000 A 
ATOM     24  C   UNL     1      51.263   4.515  17.426  0.00  0.00    +0.000 A 
ATOM     25  C   UNL     1      50.176   5.365  17.271  0.00  0.00    +0.000 A 
ATOM     26  C   UNL     1      48.891   4.833  17.271  0.00  0.00    +0.000 A 
ATOM     27  C   UNL     1      48.729   3.463  17.439  0.00  0.00    +0.000 A 
ATOM     28  C   UNL     1      47.366   2.844  17.472  0.00  0.00    +0.000 C 
ATOM     29  N   UNL     1      49.781   2.625  17.591  0.00  0.00    +0.000 NA
ENDBRANCH  21  25
ENDBRANCH  20  21
ENDBRANCH  17  20
ENDBRANCH   1  17
TORSDOF 7
ENDMDL
