MODEL 1
REMARK VINA RESULT:    -7.232      0.000      0.000
REMARK INTER + INTRA:          -9.613
REMARK INTER:                  -9.134
REMARK INTRA:                  -0.478
REMARK UNBOUND:                -0.478
REMARK  Name = 
REMARK  5 active torsions:
REMARK  status: ('A' for Active; 'I' for Inactive)
REMARK    1  A    between atoms: N_1  and  C_2
REMARK    2  A    between atoms: C_2  and  C_3
REMARK    3  A    between atoms: C_6  and  O_7
REMARK    4  A    between atoms: O_7  and  C_8
REMARK    5  A    between atoms: C_8  and  C_9
REMARK                            x       y       z     vdW  Elec       q    Type
REMARK                         _______ _______ _______ _____ _____    ______ ____
ROOT
ATOM      1  C   UNL     1      47.019   2.375   7.277  0.00  0.00    +0.000 A 
ATOM      2  C   UNL     1      46.380   1.398   8.053  0.00  0.00    +0.000 A 
ATOM      3  C   UNL     1      45.295   1.736   8.867  0.00  0.00    +0.000 A 
ATOM      4  C   UNL     1      44.844   3.055   8.928  0.00  0.00    +0.000 A 
ATOM      5  C   UNL     1      45.446   4.022   8.124  0.00  0.00    +0.000 A 
ATOM      6  C   UNL     1      46.532   3.687   7.314  0.00  0.00    +0.000 A 
ENDROOT
BRANCH   1   7
ATOM      7  C   UNL     1      48.218   2.032   6.432  0.00  0.00    +0.000 C 
BRANCH   7   8
ATOM      8  N   UNL     1      48.133   2.631   5.107  0.00  0.00    +0.000 NA
ATOM      9  H   UNL     1      48.730   3.455   5.075  0.00  0.00    +0.000 HD
ATOM     10  H   UNL     1      47.179   2.960   4.958  0.00  0.00    +0.000 HD
ENDBRANCH   7   8
ENDBRANCH   1   7
BRANCH   4  11
ATOM     11  O   UNL     1      43.813   3.287   9.798  0.00  0.00    +0.000 OA
BRANCH  11  12
ATOM     12  C   UNL     1      43.757   4.610  10.335  0.00  0.00    +0.000 C 
BRANCH  12  13
ATOM     13  C   UNL     1      44.760   4.745  11.443  0.00  0.00    +0.000 A 
ATOM     14  C   UNL     1      45.704   5.779  11.447  0.00  0.00    +0.000 A 
ATOM     15  C   UNL     1      46.577   5.911  12.521  0.00  0.00    +0.000 A 
ATOM     16  C   UNL     1      46.474   5.004  13.564  0.00  0.00    +0.000 A 
ATOM     17  N   UNL     1      45.574   3.998  13.600  0.00  0.00    +0.000 NA
ATOM     18  C   UNL     1      44.739   3.891  12.539  0.00  0.00    +0.000 A 
ENDBRANCH  12  13
ENDBRANCH  11  12
ENDBRANCH   4  11
TORSDOF 5
ENDMDL
MODEL 2
REMARK VINA RESULT:    -6.795      1.453      5.802
REMARK INTER + INTRA:          -9.061
REMARK INTER:                  -8.620
REMARK INTRA:                  -0.441
REMARK UNBOUND:                -0.478
REMARK  Name = 
REMARK  5 active torsions:
REMARK  status: ('A' for Active; 'I' for Inactive)
REMARK    1  A    between atoms: N_1  and  C_2
REMARK    2  A    between atoms: C_2  and  C_3
REMARK    3  A    between atoms: C_6  and  O_7
REMARK    4  A    between atoms: O_7  and  C_8
REMARK    5  A    between atoms: C_8  and  C_9
REMARK                            x       y       z     vdW  Elec       q    Type
REMARK                         _______ _______ _______ _____ _____    ______ ____
ROOT
ATOM      1  C   UNL     1      46.466   5.637  12.848  0.00  0.00    +0.000 A 
ATOM      2  C   UNL     1      46.083   6.218  11.630  0.00  0.00    +0.000 A 
ATOM      3  C   UNL     1      45.303   5.504  10.716  0.00  0.00    +0.000 A 
ATOM      4  C   UNL     1      44.906   4.197  10.999  0.00  0.00    +0.000 A 
ATOM      5  C   UNL     1      45.243   3.629  12.228  0.00  0.00    +0.000 A 
ATOM      6  C   UNL     1      46.026   4.340  13.139  0.00  0.00    +0.000 A 
ENDROOT
BRANCH   1   7
ATOM      7  C   UNL     1      47.345   6.379  13.819  0.00  0.00    +0.000 C 
BRANCH   7   8
ATOM      8  N   UNL     1      47.774   5.525  14.918  0.00  0.00    +0.000 NA
ATOM      9  H   UNL     1      46.962   5.268  15.476  0.00  0.00    +0.000 HD
ATOM     10  H   UNL     1      48.387   6.063  15.531  0.00  0.00    +0.000 HD
ENDBRANCH   7   8
ENDBRANCH   1   7
BRANCH   4  11
ATOM     11  O   UNL     1      44.193   3.570  10.013  0.00  0.00    +0.000 OA
BRANCH  11  12
ATOM     12  C   UNL     1      44.519   3.969   8.680  0.00  0.00    +0.000 C 
BRANCH  12  13
ATOM     13  C   UNL     1      45.533   3.022   8.107  0.00  0.00    +0.000 A 
ATOM     14  C   UNL     1      46.523   3.465   7.223  0.00  0.00    +0.000 A 
ATOM     15  C   UNL     1      47.484   2.573   6.761  0.00  0.00    +0.000 A 
ATOM     16  C   UNL     1      47.428   1.262   7.207  0.00  0.00    +0.000 A 
ATOM     17  N   UNL     1      46.494   0.798   8.065  0.00  0.00    +0.000 NA
ATOM     18  C   UNL     1      45.568   1.688   8.494  0.00  0.00    +0.000 A 
ENDBRANCH  12  13
ENDBRANCH  11  12
ENDBRANCH   4  11
TORSDOF 5
ENDMDL
MODEL 3
REMARK VINA RESULT:    -6.456      1.407      6.009
REMARK INTER + INTRA:          -8.632
REMARK INTER:                  -8.436
REMARK INTRA:                  -0.196
REMARK UNBOUND:                -0.478
REMARK  Name = 
REMARK  5 active torsions:
REMARK  status: ('A' for Active; 'I' for Inactive)
REMARK    1  A    between atoms: N_1  and  C_2
REMARK    2  A    between atoms: C_2  and  C_3
REMARK    3  A    between atoms: C_6  and  O_7
REMARK    4  A    between atoms: O_7  and  C_8
REMARK    5  A    between atoms: C_8  and  C_9
REMARK                            x       y       z     vdW  Elec       q    Type
REMARK                         _______ _______ _______ _____ _____    ______ ____
ROOT
ATOM      1  C   UNL     1      45.069   5.885  11.863  0.00  0.00    +0.000 A 
ATOM      2  C   UNL     1      45.665   5.909  10.594  0.00  0.00    +0.000 A 
ATOM      3  C   UNL     1      45.373   4.917   9.654  0.00  0.00    +0.000 A 
ATOM      4  C   UNL     1      44.494   3.881   9.973  0.00  0.00    +0.000 A 
ATOM      5  C   UNL     1      43.862   3.877  11.216  0.00  0.00    +0.000 A 
ATOM      6  C   UNL     1      44.156   4.866  12.157  0.00  0.00    +0.000 A 
ENDROOT
BRANCH   1   7
ATOM      7  C   UNL     1      45.411   6.922  12.900  0.00  0.00    +0.000 C 
BRANCH   7   8
ATOM      8  N   UNL     1      46.581   6.539  13.679  0.00  0.00    +0.000 NA
ATOM      9  H   UNL     1      47.211   7.336  13.749  0.00  0.00    +0.000 HD
ATOM     10  H   UNL     1      47.088   5.814  13.172  0.00  0.00    +0.000 HD
ENDBRANCH   7   8
ENDBRANCH   1   7
BRANCH   4  11
ATOM     11  O   UNL     1      44.322   2.933   9.001  0.00  0.00    +0.000 OA
BRANCH  11  12
ATOM     12  C   UNL     1      45.312   1.902   8.976  0.00  0.00    +0.000 C 
BRANCH  12  13
ATOM     13  C   UNL     1      46.157   2.047   7.744  0.00  0.00    +0.000 A 
ATOM     14  C   UNL     1      45.981   3.120   6.864  0.00  0.00    +0.000 A 
ATOM     15  C   UNL     1      46.823   3.257   5.767  0.00  0.00    +0.000 A 
ATOM     16  C   UNL     1      47.823   2.315   5.588  0.00  0.00    +0.000 A 
ATOM     17  N   UNL     1      48.029   1.269   6.418  0.00  0.00    +0.000 NA
ATOM     18  C   UNL     1      47.192   1.159   7.475  0.00  0.00    +0.000 A 
ENDBRANCH  12  13
ENDBRANCH  11  12
ENDBRANCH   4  11
TORSDOF 5
ENDMDL
MODEL 4
REMARK VINA RESULT:    -5.574      2.308      6.128
REMARK INTER + INTRA:          -7.518
REMARK INTER:                  -7.076
REMARK INTRA:                  -0.443
REMARK UNBOUND:                -0.478
REMARK  Name = 
REMARK  5 active torsions:
REMARK  status: ('A' for Active; 'I' for Inactive)
REMARK    1  A    between atoms: N_1  and  C_2
REMARK    2  A    between atoms: C_2  and  C_3
REMARK    3  A    between atoms: C_6  and  O_7
REMARK    4  A    between atoms: O_7  and  C_8
REMARK    5  A    between atoms: C_8  and  C_9
REMARK                            x       y       z     vdW  Elec       q    Type
REMARK                         _______ _______ _______ _____ _____    ______ ____
ROOT
ATOM      1  C   UNL     1      47.809   6.446  13.871  0.00  0.00    +0.000 A 
ATOM      2  C   UNL     1      47.787   7.384  12.829  0.00  0.00    +0.000 A 
ATOM      3  C   UNL     1      46.953   7.197  11.722  0.00  0.00    +0.000 A 
ATOM      4  C   UNL     1      46.140   6.066  11.637  0.00  0.00    +0.000 A 
ATOM      5  C   UNL     1      46.122   5.154  12.692  0.00  0.00    +0.000 A 
ATOM      6  C   UNL     1      46.958   5.337  13.795  0.00  0.00    +0.000 A 
ENDROOT
BRANCH   1   7
ATOM      7  C   UNL     1      48.738   6.614  15.045  0.00  0.00    +0.000 C 
BRANCH   7   8
ATOM      8  N   UNL     1      50.094   6.927  14.617  0.00  0.00    +0.000 NA
ATOM      9  H   UNL     1      50.375   7.817  15.026  0.00  0.00    +0.000 HD
ATOM     10  H   UNL     1      50.096   7.062  13.606  0.00  0.00    +0.000 HD
ENDBRANCH   7   8
ENDBRANCH   1   7
BRANCH   4  11
ATOM     11  O   UNL     1      45.406   5.953  10.487  0.00  0.00    +0.000 OA
BRANCH  11  12
ATOM     12  C   UNL     1      44.593   4.780  10.399  0.00  0.00    +0.000 C 
BRANCH  12  13
ATOM     13  C   UNL     1      45.182   3.836   9.392  0.00  0.00    +0.000 A 
ATOM     14  C   UNL     1      45.876   4.308   8.272  0.00  0.00    +0.000 A 
ATOM     15  C   UNL     1      46.463   3.404   7.394  0.00  0.00    +0.000 A 
ATOM     16  C   UNL     1      46.341   2.052   7.668  0.00  0.00    +0.000 A 
ATOM     17  N   UNL     1      45.685   1.557   8.740  0.00  0.00    +0.000 NA
ATOM     18  C   UNL     1      45.121   2.460   9.576  0.00  0.00    +0.000 A 
ENDBRANCH  12  13
ENDBRANCH  11  12
ENDBRANCH   4  11
TORSDOF 5
ENDMDL
MODEL 5
REMARK VINA RESULT:    -5.425      4.370      8.256
REMARK INTER + INTRA:          -7.330
REMARK INTER:                  -6.967
REMARK INTRA:                  -0.363
REMARK UNBOUND:                -0.478
REMARK  Name = 
REMARK  5 active torsions:
REMARK  status: ('A' for Active; 'I' for Inactive)
REMARK    1  A    between atoms: N_1  and  C_2
REMARK    2  A    between atoms: C_2  and  C_3
REMARK    3  A    between atoms: C_6  and  O_7
REMARK    4  A    between atoms: O_7  and  C_8
REMARK    5  A    between atoms: C_8  and  C_9
REMARK                            x       y       z     vdW  Elec       q    Type
REMARK                         _______ _______ _______ _____ _____    ______ ____
ROOT
ATOM      1  C   UNL     1      48.561   4.160  18.343  0.00  0.00    +0.000 A 
ATOM      2  C   UNL     1      47.763   5.025  17.580  0.00  0.00    +0.000 A 
ATOM      3  C   UNL     1      47.344   4.659  16.297  0.00  0.00    +0.000 A 
ATOM      4  C   UNL     1      47.727   3.432  15.755  0.00  0.00    +0.000 A 
ATOM      5  C   UNL     1      48.482   2.547  16.526  0.00  0.00    +0.000 A 
ATOM      6  C   UNL     1      48.904   2.914  17.805  0.00  0.00    +0.000 A 
ENDROOT
BRANCH   1   7
ATOM      7  C   UNL     1      49.057   4.563  19.706  0.00  0.00    +0.000 C 
BRANCH   7   8
ATOM      8  N   UNL     1      48.387   3.820  20.765  0.00  0.00    +0.000 NA
ATOM      9  H   UNL     1      48.272   2.852  20.470  0.00  0.00    +0.000 HD
ATOM     10  H   UNL     1      47.448   4.198  20.886  0.00  0.00    +0.000 HD
ENDBRANCH   7   8
ENDBRANCH   1   7
BRANCH   4  11
ATOM     11  O   UNL     1      47.310   3.197  14.473  0.00  0.00    +0.000 OA
BRANCH  11  12
ATOM     12  C   UNL     1      47.106   4.367  13.677  0.00  0.00    +0.000 C 
BRANCH  12  13
ATOM     13  C   UNL     1      45.742   4.316  13.052  0.00  0.00    +0.000 A 
ATOM     14  C   UNL     1      45.300   3.183  12.361  0.00  0.00    +0.000 A 
ATOM     15  C   UNL     1      44.008   3.147  11.850  0.00  0.00    +0.000 A 
ATOM     16  C   UNL     1      43.194   4.249  12.052  0.00  0.00    +0.000 A 
ATOM     17  N   UNL     1      43.580   5.359  12.718  0.00  0.00    +0.000 NA
ATOM     18  C   UNL     1      44.845   5.367  13.201  0.00  0.00    +0.000 A 
ENDBRANCH  12  13
ENDBRANCH  11  12
ENDBRANCH   4  11
TORSDOF 5
ENDMDL
MODEL 6
REMARK VINA RESULT:    -5.141      2.582      6.628
REMARK INTER + INTRA:          -6.972
REMARK INTER:                  -6.643
REMARK INTRA:                  -0.328
REMARK UNBOUND:                -0.478
REMARK  Name = 
REMARK  5 active torsions:
REMARK  status: ('A' for Active; 'I' for Inactive)
REMARK    1  A    between atoms: N_1  and  C_2
REMARK    2  A    between atoms: C_2  and  C_3
REMARK    3  A    between atoms: C_6  and  O_7
REMARK    4  A    between atoms: O_7  and  C_8
REMARK    5  A    between atoms: C_8  and  C_9
REMARK                            x       y       z     vdW  Elec       q    Type
REMARK                         _______ _______ _______ _____ _____    ______ ____
ROOT
ATOM      1  C   UNL     1      47.583   4.859  15.640  0.00  0.00    +0.000 A 
ATOM      2  C   UNL     1      46.760   4.061  14.832  0.00  0.00    +0.000 A 
ATOM      3  C   UNL     1      46.439   4.461  13.532  0.00  0.00    +0.000 A 
ATOM      4  C   UNL     1      46.923   5.668  13.027  0.00  0.00    +0.000 A 
ATOM      5  C   UNL     1      47.779   6.444  13.809  0.00  0.00    +0.000 A 
ATOM      6  C   UNL     1      48.097   6.047  15.109  0.00  0.00    +0.000 A 
ENDROOT
BRANCH   1   7
ATOM      7  C   UNL     1      47.897   4.460  17.058  0.00  0.00    +0.000 C 
BRANCH   7   8
ATOM      8  N   UNL     1      46.778   4.726  17.953  0.00  0.00    +0.000 NA
ATOM      9  H   UNL     1      46.492   3.854  18.395  0.00  0.00    +0.000 HD
ATOM     10  H   UNL     1      45.983   5.041  17.398  0.00  0.00    +0.000 HD
ENDBRANCH   7   8
ENDBRANCH   1   7
BRANCH   4  11
ATOM     11  O   UNL     1      46.502   5.991  11.765  0.00  0.00    +0.000 OA
BRANCH  11  12
ATOM     12  C   UNL     1      45.132   5.694  11.486  0.00  0.00    +0.000 C 
BRANCH  12  13
ATOM     13  C   UNL     1      45.052   4.712  10.354  0.00  0.00    +0.000 A 
ATOM     14  C   UNL     1      45.697   4.952   9.136  0.00  0.00    +0.000 A 
ATOM     15  C   UNL     1      45.654   3.991   8.132  0.00  0.00    +0.000 A 
ATOM     16  C   UNL     1      44.969   2.813   8.383  0.00  0.00    +0.000 A 
ATOM     17  N   UNL     1      44.339   2.542   9.546  0.00  0.00    +0.000 NA
ATOM     18  C   UNL     1      44.394   3.497  10.504  0.00  0.00    +0.000 A 
ENDBRANCH  12  13
ENDBRANCH  11  12
ENDBRANCH   4  11
TORSDOF 5
ENDMDL
MODEL 7
REMARK VINA RESULT:    -5.084      3.207      4.869
REMARK INTER + INTRA:          -6.900
REMARK INTER:                  -6.634
REMARK INTRA:                  -0.265
REMARK UNBOUND:                -0.478
REMARK  Name = 
REMARK  5 active torsions:
REMARK  status: ('A' for Active; 'I' for Inactive)
REMARK    1  A    between atoms: N_1  and  C_2
REMARK    2  A    between atoms: C_2  and  C_3
REMARK    3  A    between atoms: C_6  and  O_7
REMARK    4  A    between atoms: O_7  and  C_8
REMARK    5  A    between atoms: C_8  and  C_9
REMARK                            x       y       z     vdW  Elec       q    Type
REMARK                         _______ _______ _______ _____ _____    ______ ____
ROOT
ATOM      1  C   UNL     1      44.953   4.314  10.126  0.00  0.00    +0.000 A 
ATOM      2  C   UNL     1      44.696   3.239  10.990  0.00  0.00    +0.000 A 
ATOM      3  C   UNL     1      45.028   3.323  12.346  0.00  0.00    +0.000 A 
ATOM      4  C   UNL     1      45.630   4.474  12.853  0.00  0.00    +0.000 A 
ATOM      5  C   UNL     1      45.845   5.563  12.010  0.00  0.00    +0.000 A 
ATOM      6  C   UNL     1      45.519   5.479  10.655  0.00  0.00    +0.000 A 
ENDROOT
BRANCH   1   7
ATOM      7  C   UNL     1      44.643   4.217   8.656  0.00  0.00    +0.000 C 
BRANCH   7   8
ATOM      8  N   UNL     1      45.840   4.381   7.842  0.00  0.00    +0.000 NA
ATOM      9  H   UNL     1      46.380   3.518   7.867  0.00  0.00    +0.000 HD
ATOM     10  H   UNL     1      46.427   5.100   8.264  0.00  0.00    +0.000 HD
ENDBRANCH   7   8
ENDBRANCH   1   7
BRANCH   4  11
ATOM     11  O   UNL     1      45.964   4.429  14.180  0.00  0.00    +0.000 OA
BRANCH  11  12
ATOM     12  C   UNL     1      47.226   3.823  14.469  0.00  0.00    +0.000 C 
BRANCH  12  13
ATOM     13  C   UNL     1      47.632   4.156  15.875  0.00  0.00    +0.000 A 
ATOM     14  C   UNL     1      47.551   3.208  16.900  0.00  0.00    +0.000 A 
ATOM     15  C   UNL     1      47.995   3.532  18.177  0.00  0.00    +0.000 A 
ATOM     16  C   UNL     1      48.515   4.799  18.386  0.00  0.00    +0.000 A 
ATOM     17  N   UNL     1      48.616   5.740  17.423  0.00  0.00    +0.000 NA
ATOM     18  C   UNL     1      48.172   5.397  16.191  0.00  0.00    +0.000 A 
ENDBRANCH  12  13
ENDBRANCH  11  12
ENDBRANCH   4  11
TORSDOF 5
ENDMDL
MODEL 8
REMARK VINA RESULT:    -4.947      4.847      6.342
REMARK INTER + INTRA:          -6.726
REMARK INTER:                  -6.409
REMARK INTRA:                  -0.317
REMARK UNBOUND:                -0.478
REMARK  Name = 
REMARK  5 active torsions:
REMARK  status: ('A' for Active; 'I' for Inactive)
REMARK    1  A    between atoms: N_1  and  C_2
REMARK    2  A    between atoms: C_2  and  C_3
REMARK    3  A    between atoms: C_6  and  O_7
REMARK    4  A    between atoms: O_7  and  C_8
REMARK    5  A    between atoms: C_8  and  C_9
REMARK                            x       y       z     vdW  Elec       q    Type
REMARK                         _______ _______ _______ _____ _____    ______ ____
ROOT
ATOM      1  C   UNL     1      44.333   5.790  11.912  0.00  0.00    +0.000 A 
ATOM      2  C   UNL     1      44.398   4.920  13.010  0.00  0.00    +0.000 A 
ATOM      3  C   UNL     1      45.601   4.735  13.699  0.00  0.00    +0.000 A 
ATOM      4  C   UNL     1      46.755   5.405  13.293  0.00  0.00    +0.000 A 
ATOM      5  C   UNL     1      46.686   6.307  12.231  0.00  0.00    +0.000 A 
ATOM      6  C   UNL     1      45.487   6.489  11.540  0.00  0.00    +0.000 A 
ENDROOT
BRANCH   1   7
ATOM      7  C   UNL     1      43.055   5.961  11.134  0.00  0.00    +0.000 C 
BRANCH   7   8
ATOM      8  N   UNL     1      42.644   7.357  11.074  0.00  0.00    +0.000 NA
ATOM      9  H   UNL     1      41.704   7.410  10.686  0.00  0.00    +0.000 HD
ATOM     10  H   UNL     1      43.253   7.850  10.422  0.00  0.00    +0.000 HD
ENDBRANCH   7   8
ENDBRANCH   1   7
BRANCH   4  11
ATOM     11  O   UNL     1      47.889   5.110  14.000  0.00  0.00    +0.000 OA
BRANCH  11  12
ATOM     12  C   UNL     1      48.109   5.915  15.161  0.00  0.00    +0.000 C 
BRANCH  12  13
ATOM     13  C   UNL     1      48.197   5.035  16.373  0.00  0.00    +0.000 A 
ATOM     14  C   UNL     1      47.589   3.776  16.403  0.00  0.00    +0.000 A 
ATOM     15  C   UNL     1      47.744   2.961  17.519  0.00  0.00    +0.000 A 
ATOM     16  C   UNL     1      48.512   3.432  18.571  0.00  0.00    +0.000 A 
ATOM     17  N   UNL     1      49.120   4.638  18.578  0.00  0.00    +0.000 NA
ATOM     18  C   UNL     1      48.948   5.411  17.480  0.00  0.00    +0.000 A 
ENDBRANCH  12  13
ENDBRANCH  11  12
ENDBRANCH   4  11
TORSDOF 5
ENDMDL
MODEL 9
REMARK VINA RESULT:    -4.847      3.806      5.791
REMARK INTER + INTRA:          -6.601
REMARK INTER:                  -6.204
REMARK INTRA:                  -0.397
REMARK UNBOUND:                -0.478
REMARK  Name = 
REMARK  5 active torsions:
REMARK  status: ('A' for Active; 'I' for Inactive)
REMARK    1  A    between atoms: N_1  and  C_2
REMARK    2  A    between atoms: C_2  and  C_3
REMARK    3  A    between atoms: C_6  and  O_7
REMARK    4  A    between atoms: O_7  and  C_8
REMARK    5  A    between atoms: C_8  and  C_9
REMARK                            x       y       z     vdW  Elec       q    Type
REMARK                         _______ _______ _______ _____ _____    ______ ____
ROOT
ATOM      1  C   UNL     1      44.787   3.913  11.240  0.00  0.00    +0.000 A 
ATOM      2  C   UNL     1      45.266   3.831  12.556  0.00  0.00    +0.000 A 
ATOM      3  C   UNL     1      46.091   4.835  13.074  0.00  0.00    +0.000 A 
ATOM      4  C   UNL     1      46.458   5.923  12.283  0.00  0.00    +0.000 A 
ATOM      5  C   UNL     1      45.947   6.033  10.990  0.00  0.00    +0.000 A 
ATOM      6  C   UNL     1      45.128   5.030  10.470  0.00  0.00    +0.000 A 
ENDROOT
BRANCH   1   7
ATOM      7  C   UNL     1      43.937   2.815  10.656  0.00  0.00    +0.000 C 
BRANCH   7   8
ATOM      8  N   UNL     1      43.079   2.204  11.662  0.00  0.00    +0.000 NA
ATOM      9  H   UNL     1      42.431   2.905  12.016  0.00  0.00    +0.000 HD
ATOM     10  H   UNL     1      43.655   1.919  12.454  0.00  0.00    +0.000 HD
ENDBRANCH   7   8
ENDBRANCH   1   7
BRANCH   4  11
ATOM     11  O   UNL     1      47.312   6.817  12.869  0.00  0.00    +0.000 OA
BRANCH  11  12
ATOM     12  C   UNL     1      47.302   8.130  12.302  0.00  0.00    +0.000 C 
BRANCH  12  13
ATOM     13  C   UNL     1      48.693   8.507  11.886  0.00  0.00    +0.000 A 
ATOM     14  C   UNL     1      49.707   7.549  11.785  0.00  0.00    +0.000 A 
ATOM     15  C   UNL     1      50.968   7.923  11.335  0.00  0.00    +0.000 A 
ATOM     16  C   UNL     1      51.173   9.250  10.993  0.00  0.00    +0.000 A 
ATOM     17  N   UNL     1      50.219  10.203  11.070  0.00  0.00    +0.000 NA
ATOM     18  C   UNL     1      49.003   9.810  11.515  0.00  0.00    +0.000 A 
ENDBRANCH  12  13
ENDBRANCH  11  12
ENDBRANCH   4  11
TORSDOF 5
ENDMDL
