MODEL 1
REMARK VINA RESULT:    -7.636      0.000      0.000
REMARK INTER + INTRA:         -10.498
REMARK INTER:                 -10.091
REMARK INTRA:                  -0.407
REMARK UNBOUND:                -0.407
REMARK  Name = 
REMARK  6 active torsions:
REMARK  status: ('A' for Active; 'I' for Inactive)
REMARK    1  A    between atoms: N_1  and  C_2
REMARK    2  A    between atoms: C_2  and  C_3
REMARK    3  A    between atoms: C_6  and  C_7
REMARK    4  A    between atoms: C_7  and  C_8
REMARK    5  A    between atoms: C_8  and  N_9
REMARK    6  A    between atoms: C_13  and  C_14
REMARK                            x       y       z     vdW  Elec       q    Type
REMARK                         _______ _______ _______ _____ _____    ______ ____
ROOT
ATOM      1  N   UNL     1      43.965   4.953   9.992  0.00  0.00    +0.000 N 
ATOM      2  C   UNL     1      44.741   3.976   9.330  0.00  0.00    +0.000 A 
ATOM      3  C   UNL     1      45.636   4.335   8.309  0.00  0.00    +0.000 A 
ATOM      4  N   UNL     1      46.418   3.449   7.623  0.00  0.00    +0.000 NA
ATOM      5  C   UNL     1      46.256   2.152   8.003  0.00  0.00    +0.000 A 
ATOM      6  C   UNL     1      45.370   1.779   8.998  0.00  0.00    +0.000 A 
ATOM      7  N   UNL     1      44.603   2.677   9.667  0.00  0.00    +0.000 NA
ATOM      8  H   UNL     1      44.588   5.657  10.381  0.00  0.00    +0.000 HD
ENDROOT
BRANCH   5   9
ATOM      9  C   UNL     1      47.061   1.099   7.325  0.00  0.00    +0.000 C 
ATOM     10  N   UNL     1      46.779  -0.200   7.646  0.00  0.00    +0.000 N 
ATOM     11  O   UNL     1      47.936   1.375   6.515  0.00  0.00    +0.000 OA
ATOM     12  H   UNL     1      46.050  -0.415   8.320  0.00  0.00    +0.000 HD
ATOM     13  H   UNL     1      47.303  -0.944   7.205  0.00  0.00    +0.000 HD
ENDBRANCH   5   9
BRANCH   1  14
ATOM     14  C   UNL     1      43.084   4.367  11.021  0.00  0.00    +0.000 C 
BRANCH  14  15
ATOM     15  C   UNL     1      43.084   5.205  12.305  0.00  0.00    +0.000 C 
BRANCH  15  19
ATOM     16  C   UNL     1      47.101   6.370  13.483  0.00  0.00    +0.000 A 
ATOM     17  C   UNL     1      46.233   7.298  12.892  0.00  0.00    +0.000 A 
ATOM     18  C   UNL     1      44.936   6.929  12.515  0.00  0.00    +0.000 A 
ATOM     19  C   UNL     1      44.480   5.621  12.720  0.00  0.00    +0.000 A 
ATOM     20  C   UNL     1      45.351   4.690  13.304  0.00  0.00    +0.000 A 
ATOM     21  C   UNL     1      46.646   5.062  13.684  0.00  0.00    +0.000 A 
BRANCH  16  22
ATOM     22  C   UNL     1      48.508   6.766  13.869  0.00  0.00    +0.000 C 
BRANCH  22  23
ATOM     23  N   UNL     1      49.437   6.626  12.753  0.00  0.00    +0.000 NA
ATOM     24  H   UNL     1      48.978   6.118  11.999  0.00  0.00    +0.000 HD
ATOM     25  H   UNL     1      50.221   6.049  13.054  0.00  0.00    +0.000 HD
ENDBRANCH  22  23
ENDBRANCH  16  22
ENDBRANCH  15  19
ENDBRANCH  14  15
ENDBRANCH   1  14
TORSDOF 6
ENDMDL
MODEL 2
REMARK VINA RESULT:    -7.498      3.010      7.069
REMARK INTER + INTRA:         -10.316
REMARK INTER:                  -9.990
REMARK INTRA:                  -0.325
REMARK UNBOUND:                -0.407
REMARK  Name = 
REMARK  6 active torsions:
REMARK  status: ('A' for Active; 'I' for Inactive)
REMARK    1  A    between atoms: N_1  and  C_2
REMARK    2  A    between atoms: C_2  and  C_3
REMARK    3  A    between atoms: C_6  and  C_7
REMARK    4  A    between atoms: C_7  and  C_8
REMARK    5  A    between atoms: C_8  and  N_9
REMARK    6  A    between atoms: C_13  and  C_14
REMARK                            x       y       z     vdW  Elec       q    Type
REMARK                         _______ _______ _______ _____ _____    ______ ____
ROOT
ATOM      1  N   UNL     1      45.249   3.412  12.616  0.00  0.00    +0.000 N 
ATOM      2  C   UNL     1      46.154   4.333  13.188  0.00  0.00    +0.000 A 
ATOM      3  C   UNL     1      46.868   4.013  14.355  0.00  0.00    +0.000 A 
ATOM      4  N   UNL     1      47.758   4.850  14.967  0.00  0.00    +0.000 NA
ATOM      5  C   UNL     1      47.900   6.058  14.355  0.00  0.00    +0.000 A 
ATOM      6  C   UNL     1      47.195   6.393  13.213  0.00  0.00    +0.000 A 
ATOM      7  N   UNL     1      46.316   5.546  12.621  0.00  0.00    +0.000 NA
ATOM      8  H   UNL     1      45.742   2.541  12.431  0.00  0.00    +0.000 HD
ENDROOT
BRANCH   5   9
ATOM      9  C   UNL     1      48.848   7.050  14.933  0.00  0.00    +0.000 C 
ATOM     10  N   UNL     1      48.334   7.952  15.823  0.00  0.00    +0.000 N 
ATOM     11  O   UNL     1      50.034   7.063  14.632  0.00  0.00    +0.000 OA
ATOM     12  H   UNL     1      47.348   7.930  16.065  0.00  0.00    +0.000 HD
ATOM     13  H   UNL     1      48.947   8.641  16.239  0.00  0.00    +0.000 HD
ENDBRANCH   5   9
BRANCH   1  14
ATOM     14  C   UNL     1      44.596   3.946  11.406  0.00  0.00    +0.000 C 
BRANCH  14  15
ATOM     15  C   UNL     1      44.172   2.821  10.453  0.00  0.00    +0.000 C 
BRANCH  15  19
ATOM     16  C   UNL     1      46.593   2.753   6.847  0.00  0.00    +0.000 A 
ATOM     17  C   UNL     1      46.383   1.582   7.587  0.00  0.00    +0.000 A 
ATOM     18  C   UNL     1      45.600   1.598   8.747  0.00  0.00    +0.000 A 
ATOM     19  C   UNL     1      45.011   2.788   9.192  0.00  0.00    +0.000 A 
ATOM     20  C   UNL     1      45.228   3.961   8.457  0.00  0.00    +0.000 A 
ATOM     21  C   UNL     1      46.009   3.942   7.295  0.00  0.00    +0.000 A 
BRANCH  16  22
ATOM     22  C   UNL     1      47.458   2.738   5.606  0.00  0.00    +0.000 C 
BRANCH  22  23
ATOM     23  N   UNL     1      48.578   1.813   5.737  0.00  0.00    +0.000 NA
ATOM     24  H   UNL     1      48.458   1.049   5.075  0.00  0.00    +0.000 HD
ATOM     25  H   UNL     1      48.550   1.397   6.666  0.00  0.00    +0.000 HD
ENDBRANCH  22  23
ENDBRANCH  16  22
ENDBRANCH  15  19
ENDBRANCH  14  15
ENDBRANCH   1  14
TORSDOF 6
ENDMDL
MODEL 3
REMARK VINA RESULT:    -7.497      3.235      6.918
REMARK INTER + INTRA:         -10.315
REMARK INTER:                  -9.987
REMARK INTRA:                  -0.328
REMARK UNBOUND:                -0.407
REMARK  Name = 
REMARK  6 active torsions:
REMARK  status: ('A' for Active; 'I' for Inactive)
REMARK    1  A    between atoms: N_1  and  C_2
REMARK    2  A    between atoms: C_2  and  C_3
REMARK    3  A    between atoms: C_6  and  C_7
REMARK    4  A    between atoms: C_7  and  C_8
REMARK    5  A    between atoms: C_8  and  N_9
REMARK    6  A    between atoms: C_13  and  C_14
REMARK                            x       y       z     vdW  Elec       q    Type
REMARK                         _______ _______ _______ _____ _____    ______ ____
ROOT
ATOM      1  N   UNL     1      45.637   5.295  11.811  0.00  0.00    +0.000 N 
ATOM      2  C   UNL     1      46.356   5.273  13.026  0.00  0.00    +0.000 A 
ATOM      3  C   UNL     1      47.417   6.165  13.253  0.00  0.00    +0.000 A 
ATOM      4  N   UNL     1      48.158   6.204  14.400  0.00  0.00    +0.000 NA
ATOM      5  C   UNL     1      47.793   5.282  15.333  0.00  0.00    +0.000 A 
ATOM      6  C   UNL     1      46.758   4.388  15.120  0.00  0.00    +0.000 A 
ATOM      7  N   UNL     1      46.034   4.368  13.973  0.00  0.00    +0.000 NA
ATOM      8  H   UNL     1      45.271   6.233  11.663  0.00  0.00    +0.000 HD
ENDROOT
BRANCH   5   9
ATOM      9  C   UNL     1      48.530   5.235  16.625  0.00  0.00    +0.000 C 
ATOM     10  N   UNL     1      47.886   5.734  17.724  0.00  0.00    +0.000 N 
ATOM     11  O   UNL     1      49.660   4.773  16.710  0.00  0.00    +0.000 OA
ATOM     12  H   UNL     1      46.948   6.114  17.641  0.00  0.00    +0.000 HD
ATOM     13  H   UNL     1      48.354   5.717  18.621  0.00  0.00    +0.000 HD
ENDBRANCH   5   9
BRANCH   1  14
ATOM     14  C   UNL     1      44.573   4.273  11.769  0.00  0.00    +0.000 C 
BRANCH  14  15
ATOM     15  C   UNL     1      43.938   4.179  10.377  0.00  0.00    +0.000 C 
BRANCH  15  19
ATOM     16  C   UNL     1      46.590   2.367   7.452  0.00  0.00    +0.000 A 
ATOM     17  C   UNL     1      46.380   3.752   7.463  0.00  0.00    +0.000 A 
ATOM     18  C   UNL     1      45.529   4.342   8.406  0.00  0.00    +0.000 A 
ATOM     19  C   UNL     1      44.870   3.556   9.360  0.00  0.00    +0.000 A 
ATOM     20  C   UNL     1      45.074   2.169   9.344  0.00  0.00    +0.000 A 
ATOM     21  C   UNL     1      45.927   1.582   8.402  0.00  0.00    +0.000 A 
BRANCH  16  22
ATOM     22  C   UNL     1      47.491   1.730   6.418  0.00  0.00    +0.000 C 
BRANCH  22  23
ATOM     23  N   UNL     1      48.703   2.512   6.199  0.00  0.00    +0.000 NA
ATOM     24  H   UNL     1      48.671   3.346   6.782  0.00  0.00    +0.000 HD
ATOM     25  H   UNL     1      48.711   2.835   5.233  0.00  0.00    +0.000 HD
ENDBRANCH  22  23
ENDBRANCH  16  22
ENDBRANCH  15  19
ENDBRANCH  14  15
ENDBRANCH   1  14
TORSDOF 6
ENDMDL
MODEL 4
REMARK VINA RESULT:    -6.689      1.763      2.411
REMARK INTER + INTRA:          -9.246
REMARK INTER:                  -8.737
REMARK INTRA:                  -0.509
REMARK UNBOUND:                -0.407
REMARK  Name = 
REMARK  6 active torsions:
REMARK  status: ('A' for Active; 'I' for Inactive)
REMARK    1  A    between atoms: N_1  and  C_2
REMARK    2  A    between atoms: C_2  and  C_3
REMARK    3  A    between atoms: C_6  and  C_7
REMARK    4  A    between atoms: C_7  and  C_8
REMARK    5  A    between atoms: C_8  and  N_9
REMARK    6  A    between atoms: C_13  and  C_14
REMARK                            x       y       z     vdW  Elec       q    Type
REMARK                         _______ _______ _______ _____ _____    ______ ____
ROOT
ATOM      1  N   UNL     1      43.771   3.746  10.661  0.00  0.00    +0.000 N 
ATOM      2  C   UNL     1      44.672   3.387   9.635  0.00  0.00    +0.000 A 
ATOM      3  C   UNL     1      44.941   2.038   9.349  0.00  0.00    +0.000 A 
ATOM      4  N   UNL     1      45.799   1.614   8.374  0.00  0.00    +0.000 NA
ATOM      5  C   UNL     1      46.403   2.620   7.685  0.00  0.00    +0.000 A 
ATOM      6  C   UNL     1      46.158   3.954   7.961  0.00  0.00    +0.000 A 
ATOM      7  N   UNL     1      45.301   4.353   8.934  0.00  0.00    +0.000 NA
ATOM      8  H   UNL     1      42.875   3.299  10.482  0.00  0.00    +0.000 HD
ENDROOT
BRANCH   5   9
ATOM      9  C   UNL     1      47.356   2.274   6.595  0.00  0.00    +0.000 C 
ATOM     10  N   UNL     1      47.444   3.149   5.547  0.00  0.00    +0.000 N 
ATOM     11  O   UNL     1      48.035   1.256   6.628  0.00  0.00    +0.000 OA
ATOM     12  H   UNL     1      46.876   3.990   5.532  0.00  0.00    +0.000 HD
ATOM     13  H   UNL     1      48.082   2.949   4.788  0.00  0.00    +0.000 HD
ENDBRANCH   5   9
BRANCH   1  14
ATOM     14  C   UNL     1      43.639   5.209  10.806  0.00  0.00    +0.000 C 
BRANCH  14  15
ATOM     15  C   UNL     1      44.083   5.679  12.196  0.00  0.00    +0.000 C 
BRANCH  15  19
ATOM     16  C   UNL     1      47.488   8.373  12.051  0.00  0.00    +0.000 A 
ATOM     17  C   UNL     1      47.652   7.003  11.810  0.00  0.00    +0.000 A 
ATOM     18  C   UNL     1      46.557   6.131  11.851  0.00  0.00    +0.000 A 
ATOM     19  C   UNL     1      45.273   6.613  12.136  0.00  0.00    +0.000 A 
ATOM     20  C   UNL     1      45.110   7.982  12.385  0.00  0.00    +0.000 A 
ATOM     21  C   UNL     1      46.206   8.853  12.340  0.00  0.00    +0.000 A 
BRANCH  16  22
ATOM     22  C   UNL     1      48.675   9.308  12.028  0.00  0.00    +0.000 C 
BRANCH  22  23
ATOM     23  N   UNL     1      48.263  10.707  11.982  0.00  0.00    +0.000 NA
ATOM     24  H   UNL     1      47.728  10.924  12.821  0.00  0.00    +0.000 HD
ATOM     25  H   UNL     1      47.630  10.834  11.195  0.00  0.00    +0.000 HD
ENDBRANCH  22  23
ENDBRANCH  16  22
ENDBRANCH  15  19
ENDBRANCH  14  15
ENDBRANCH   1  14
TORSDOF 6
ENDMDL
MODEL 5
REMARK VINA RESULT:    -6.567      4.622      6.250
REMARK INTER + INTRA:          -9.086
REMARK INTER:                  -8.808
REMARK INTRA:                  -0.278
REMARK UNBOUND:                -0.407
REMARK  Name = 
REMARK  6 active torsions:
REMARK  status: ('A' for Active; 'I' for Inactive)
REMARK    1  A    between atoms: N_1  and  C_2
REMARK    2  A    between atoms: C_2  and  C_3
REMARK    3  A    between atoms: C_6  and  C_7
REMARK    4  A    between atoms: C_7  and  C_8
REMARK    5  A    between atoms: C_8  and  N_9
REMARK    6  A    between atoms: C_13  and  C_14
REMARK                            x       y       z     vdW  Elec       q    Type
REMARK                         _______ _______ _______ _____ _____    ______ ____
ROOT
ATOM      1  N   UNL     1      47.051   5.383  14.820  0.00  0.00    +0.000 N 
ATOM      2  C   UNL     1      46.333   4.955  13.683  0.00  0.00    +0.000 A 
ATOM      3  C   UNL     1      45.881   5.877  12.724  0.00  0.00    +0.000 A 
ATOM      4  N   UNL     1      45.181   5.539  11.600  0.00  0.00    +0.000 NA
ATOM      5  C   UNL     1      44.934   4.207  11.476  0.00  0.00    +0.000 A 
ATOM      6  C   UNL     1      45.361   3.286  12.416  0.00  0.00    +0.000 A 
ATOM      7  N   UNL     1      46.056   3.644  13.526  0.00  0.00    +0.000 NA
ATOM      8  H   UNL     1      47.865   5.912  14.514  0.00  0.00    +0.000 HD
ENDROOT
BRANCH   5   9
ATOM      9  C   UNL     1      44.181   3.723  10.286  0.00  0.00    +0.000 C 
ATOM     10  N   UNL     1      43.925   4.637   9.301  0.00  0.00    +0.000 N 
ATOM     11  O   UNL     1      43.806   2.563  10.186  0.00  0.00    +0.000 OA
ATOM     12  H   UNL     1      44.243   5.597   9.397  0.00  0.00    +0.000 HD
ATOM     13  H   UNL     1      43.418   4.346   8.476  0.00  0.00    +0.000 HD
ENDBRANCH   5   9
BRANCH   1  14
ATOM     14  C   UNL     1      47.422   4.262  15.705  0.00  0.00    +0.000 C 
BRANCH  14  15
ATOM     15  C   UNL     1      48.191   4.750  16.938  0.00  0.00    +0.000 C 
BRANCH  15  19
ATOM     16  C   UNL     1      51.745   2.364  17.682  0.00  0.00    +0.000 A 
ATOM     17  C   UNL     1      51.778   3.757  17.827  0.00  0.00    +0.000 A 
ATOM     18  C   UNL     1      50.634   4.530  17.593  0.00  0.00    +0.000 A 
ATOM     19  C   UNL     1      49.432   3.924  17.207  0.00  0.00    +0.000 A 
ATOM     20  C   UNL     1      49.401   2.532  17.054  0.00  0.00    +0.000 A 
ATOM     21  C   UNL     1      50.545   1.760  17.292  0.00  0.00    +0.000 A 
BRANCH  16  22
ATOM     22  C   UNL     1      52.987   1.534  17.914  0.00  0.00    +0.000 C 
BRANCH  22  23
ATOM     23  N   UNL     1      52.672   0.118  18.074  0.00  0.00    +0.000 NA
ATOM     24  H   UNL     1      52.008  -0.159  17.354  0.00  0.00    +0.000 HD
ATOM     25  H   UNL     1      52.198  -0.010  18.967  0.00  0.00    +0.000 HD
ENDBRANCH  22  23
ENDBRANCH  16  22
ENDBRANCH  15  19
ENDBRANCH  14  15
ENDBRANCH   1  14
TORSDOF 6
ENDMDL
MODEL 6
REMARK VINA RESULT:    -6.262      4.672      8.157
REMARK INTER + INTRA:          -8.682
REMARK INTER:                  -8.400
REMARK INTRA:                  -0.283
REMARK UNBOUND:                -0.407
REMARK  Name = 
REMARK  6 active torsions:
REMARK  status: ('A' for Active; 'I' for Inactive)
REMARK    1  A    between atoms: N_1  and  C_2
REMARK    2  A    between atoms: C_2  and  C_3
REMARK    3  A    between atoms: C_6  and  C_7
REMARK    4  A    between atoms: C_7  and  C_8
REMARK    5  A    between atoms: C_8  and  N_9
REMARK    6  A    between atoms: C_13  and  C_14
REMARK                            x       y       z     vdW  Elec       q    Type
REMARK                         _______ _______ _______ _____ _____    ______ ____
ROOT
ATOM      1  N   UNL     1      46.675   3.808  14.908  0.00  0.00    +0.000 N 
ATOM      2  C   UNL     1      47.540   4.089  15.988  0.00  0.00    +0.000 A 
ATOM      3  C   UNL     1      47.643   3.210  17.079  0.00  0.00    +0.000 A 
ATOM      4  N   UNL     1      48.456   3.414  18.159  0.00  0.00    +0.000 NA
ATOM      5  C   UNL     1      49.171   4.570  18.108  0.00  0.00    +0.000 A 
ATOM      6  C   UNL     1      49.073   5.453  17.048  0.00  0.00    +0.000 A 
ATOM      7  N   UNL     1      48.259   5.231  15.985  0.00  0.00    +0.000 NA
ATOM      8  H   UNL     1      46.912   2.894  14.528  0.00  0.00    +0.000 HD
ENDROOT
BRANCH   5   9
ATOM      9  C   UNL     1      50.094   4.894  19.231  0.00  0.00    +0.000 C 
ATOM     10  N   UNL     1      49.825   4.314  20.441  0.00  0.00    +0.000 N 
ATOM     11  O   UNL     1      51.051   5.643  19.087  0.00  0.00    +0.000 OA
ATOM     12  H   UNL     1      49.028   3.695  20.547  0.00  0.00    +0.000 HD
ATOM     13  H   UNL     1      50.431   4.509  21.227  0.00  0.00    +0.000 HD
ENDBRANCH   5   9
BRANCH   1  14
ATOM     14  C   UNL     1      46.707   4.861  13.875  0.00  0.00    +0.000 C 
BRANCH  14  15
ATOM     15  C   UNL     1      45.330   5.057  13.230  0.00  0.00    +0.000 C 
BRANCH  15  19
ATOM     16  C   UNL     1      45.338   3.991   9.018  0.00  0.00    +0.000 A 
ATOM     17  C   UNL     1      44.944   3.061   9.988  0.00  0.00    +0.000 A 
ATOM     18  C   UNL     1      44.935   3.400  11.347  0.00  0.00    +0.000 A 
ATOM     19  C   UNL     1      45.322   4.680  11.763  0.00  0.00    +0.000 A 
ATOM     20  C   UNL     1      45.725   5.609  10.793  0.00  0.00    +0.000 A 
ATOM     21  C   UNL     1      45.730   5.268   9.435  0.00  0.00    +0.000 A 
BRANCH  16  22
ATOM     22  C   UNL     1      45.369   3.614   7.554  0.00  0.00    +0.000 C 
BRANCH  22  23
ATOM     23  N   UNL     1      46.558   4.130   6.885  0.00  0.00    +0.000 NA
ATOM     24  H   UNL     1      46.730   3.584   6.043  0.00  0.00    +0.000 HD
ATOM     25  H   UNL     1      47.362   3.982   7.493  0.00  0.00    +0.000 HD
ENDBRANCH  22  23
ENDBRANCH  16  22
ENDBRANCH  15  19
ENDBRANCH  14  15
ENDBRANCH   1  14
TORSDOF 6
ENDMDL
MODEL 7
REMARK VINA RESULT:    -6.062      3.914      7.252
REMARK INTER + INTRA:          -8.419
REMARK INTER:                  -8.101
REMARK INTRA:                  -0.317
REMARK UNBOUND:                -0.407
REMARK  Name = 
REMARK  6 active torsions:
REMARK  status: ('A' for Active; 'I' for Inactive)
REMARK    1  A    between atoms: N_1  and  C_2
REMARK    2  A    between atoms: C_2  and  C_3
REMARK    3  A    between atoms: C_6  and  C_7
REMARK    4  A    between atoms: C_7  and  C_8
REMARK    5  A    between atoms: C_8  and  N_9
REMARK    6  A    between atoms: C_13  and  C_14
REMARK                            x       y       z     vdW  Elec       q    Type
REMARK                         _______ _______ _______ _____ _____    ______ ____
ROOT
ATOM      1  N   UNL     1      46.465   5.506  13.983  0.00  0.00    +0.000 N 
ATOM      2  C   UNL     1      47.338   4.998  14.969  0.00  0.00    +0.000 A 
ATOM      3  C   UNL     1      48.483   5.714  15.359  0.00  0.00    +0.000 A 
ATOM      4  N   UNL     1      49.374   5.288  16.303  0.00  0.00    +0.000 NA
ATOM      5  C   UNL     1      49.072   4.078  16.850  0.00  0.00    +0.000 A 
ATOM      6  C   UNL     1      47.956   3.355  16.469  0.00  0.00    +0.000 A 
ATOM      7  N   UNL     1      47.084   3.797  15.529  0.00  0.00    +0.000 NA
ATOM      8  H   UNL     1      46.151   6.431  14.269  0.00  0.00    +0.000 HD
ENDROOT
BRANCH   5   9
ATOM      9  C   UNL     1      49.972   3.517  17.894  0.00  0.00    +0.000 C 
ATOM     10  N   UNL     1      50.136   4.255  19.034  0.00  0.00    +0.000 N 
ATOM     11  O   UNL     1      50.543   2.444  17.747  0.00  0.00    +0.000 OA
ATOM     12  H   UNL     1      49.656   5.143  19.143  0.00  0.00    +0.000 HD
ATOM     13  H   UNL     1      50.738   3.905  19.767  0.00  0.00    +0.000 HD
ENDBRANCH   5   9
BRANCH   1  14
ATOM     14  C   UNL     1      45.334   4.598  13.713  0.00  0.00    +0.000 C 
BRANCH  14  15
ATOM     15  C   UNL     1      44.402   5.166  12.636  0.00  0.00    +0.000 C 
BRANCH  15  19
ATOM     16  C   UNL     1      45.406   3.755   8.651  0.00  0.00    +0.000 A 
ATOM     17  C   UNL     1      45.643   5.086   9.018  0.00  0.00    +0.000 A 
ATOM     18  C   UNL     1      45.326   5.545  10.302  0.00  0.00    +0.000 A 
ATOM     19  C   UNL     1      44.762   4.679  11.248  0.00  0.00    +0.000 A 
ATOM     20  C   UNL     1      44.517   3.349  10.879  0.00  0.00    +0.000 A 
ATOM     21  C   UNL     1      44.838   2.892   9.595  0.00  0.00    +0.000 A 
BRANCH  16  22
ATOM     22  C   UNL     1      45.729   3.269   7.257  0.00  0.00    +0.000 C 
BRANCH  22  23
ATOM     23  N   UNL     1      46.846   4.002   6.671  0.00  0.00    +0.000 NA
ATOM     24  H   UNL     1      47.187   3.494   5.857  0.00  0.00    +0.000 HD
ATOM     25  H   UNL     1      47.611   4.019   7.343  0.00  0.00    +0.000 HD
ENDBRANCH  22  23
ENDBRANCH  16  22
ENDBRANCH  15  19
ENDBRANCH  14  15
ENDBRANCH   1  14
TORSDOF 6
ENDMDL
MODEL 8
REMARK VINA RESULT:    -5.986      3.725      7.261
REMARK INTER + INTRA:          -8.318
REMARK INTER:                  -7.930
REMARK INTRA:                  -0.389
REMARK UNBOUND:                -0.407
REMARK  Name = 
REMARK  6 active torsions:
REMARK  status: ('A' for Active; 'I' for Inactive)
REMARK    1  A    between atoms: N_1  and  C_2
REMARK    2  A    between atoms: C_2  and  C_3
REMARK    3  A    between atoms: C_6  and  C_7
REMARK    4  A    between atoms: C_7  and  C_8
REMARK    5  A    between atoms: C_8  and  N_9
REMARK    6  A    between atoms: C_13  and  C_14
REMARK                            x       y       z     vdW  Elec       q    Type
REMARK                         _______ _______ _______ _____ _____    ______ ____
ROOT
ATOM      1  N   UNL     1      48.973   7.574  13.990  0.00  0.00    +0.000 N 
ATOM      2  C   UNL     1      48.573   6.581  14.911  0.00  0.00    +0.000 A 
ATOM      3  C   UNL     1      48.808   6.736  16.287  0.00  0.00    +0.000 A 
ATOM      4  N   UNL     1      48.451   5.821  17.237  0.00  0.00    +0.000 NA
ATOM      5  C   UNL     1      47.844   4.708  16.740  0.00  0.00    +0.000 A 
ATOM      6  C   UNL     1      47.616   4.534  15.387  0.00  0.00    +0.000 A 
ATOM      7  N   UNL     1      47.978   5.457  14.461  0.00  0.00    +0.000 NA
ATOM      8  H   UNL     1      48.555   8.461  14.263  0.00  0.00    +0.000 HD
ENDROOT
BRANCH   5   9
ATOM      9  C   UNL     1      47.409   3.644  17.686  0.00  0.00    +0.000 C 
ATOM     10  N   UNL     1      48.115   3.523  18.851  0.00  0.00    +0.000 N 
ATOM     11  O   UNL     1      46.462   2.908  17.440  0.00  0.00    +0.000 OA
ATOM     12  H   UNL     1      48.898   4.140  19.042  0.00  0.00    +0.000 HD
ATOM     13  H   UNL     1      47.848   2.812  19.519  0.00  0.00    +0.000 HD
ENDBRANCH   5   9
BRANCH   1  14
ATOM     14  C   UNL     1      48.645   7.213  12.598  0.00  0.00    +0.000 C 
BRANCH  14  15
ATOM     15  C   UNL     1      47.333   7.863  12.143  0.00  0.00    +0.000 C 
BRANCH  15  19
ATOM     16  C   UNL     1      44.129   4.978  11.610  0.00  0.00    +0.000 A 
ATOM     17  C   UNL     1      45.156   5.086  10.664  0.00  0.00    +0.000 A 
ATOM     18  C   UNL     1      46.193   6.011  10.833  0.00  0.00    +0.000 A 
ATOM     19  C   UNL     1      46.223   6.849  11.954  0.00  0.00    +0.000 A 
ATOM     20  C   UNL     1      45.192   6.747  12.897  0.00  0.00    +0.000 A 
ATOM     21  C   UNL     1      44.157   5.819  12.728  0.00  0.00    +0.000 A 
BRANCH  16  22
ATOM     22  C   UNL     1      42.998   3.994  11.414  0.00  0.00    +0.000 C 
BRANCH  22  23
ATOM     23  N   UNL     1      43.488   2.630  11.246  0.00  0.00    +0.000 NA
ATOM     24  H   UNL     1      44.039   2.576  10.392  0.00  0.00    +0.000 HD
ATOM     25  H   UNL     1      42.689   2.012  11.113  0.00  0.00    +0.000 HD
ENDBRANCH  22  23
ENDBRANCH  16  22
ENDBRANCH  15  19
ENDBRANCH  14  15
ENDBRANCH   1  14
TORSDOF 6
ENDMDL
MODEL 9
REMARK VINA RESULT:    -5.553      3.318      5.022
REMARK INTER + INTRA:          -7.746
REMARK INTER:                  -7.301
REMARK INTRA:                  -0.445
REMARK UNBOUND:                -0.407
REMARK  Name = 
REMARK  6 active torsions:
REMARK  status: ('A' for Active; 'I' for Inactive)
REMARK    1  A    between atoms: N_1  and  C_2
REMARK    2  A    between atoms: C_2  and  C_3
REMARK    3  A    between atoms: C_6  and  C_7
REMARK    4  A    between atoms: C_7  and  C_8
REMARK    5  A    between atoms: C_8  and  N_9
REMARK    6  A    between atoms: C_13  and  C_14
REMARK                            x       y       z     vdW  Elec       q    Type
REMARK                         _______ _______ _______ _____ _____    ______ ____
ROOT
ATOM      1  N   UNL     1      44.607   8.359  12.121  0.00  0.00    +0.000 N 
ATOM      2  C   UNL     1      44.405   6.966  12.009  0.00  0.00    +0.000 A 
ATOM      3  C   UNL     1      43.281   6.450  11.344  0.00  0.00    +0.000 A 
ATOM      4  N   UNL     1      43.018   5.118  11.195  0.00  0.00    +0.000 NA
ATOM      5  C   UNL     1      43.944   4.299  11.765  0.00  0.00    +0.000 A 
ATOM      6  C   UNL     1      45.051   4.790  12.434  0.00  0.00    +0.000 A 
ATOM      7  N   UNL     1      45.293   6.118  12.569  0.00  0.00    +0.000 NA
ATOM      8  H   UNL     1      44.603   8.767  11.189  0.00  0.00    +0.000 HD
ENDROOT
BRANCH   5   9
ATOM      9  C   UNL     1      43.761   2.825  11.662  0.00  0.00    +0.000 C 
ATOM     10  N   UNL     1      44.143   2.234  10.489  0.00  0.00    +0.000 N 
ATOM     11  O   UNL     1      43.292   2.165  12.580  0.00  0.00    +0.000 OA
ATOM     12  H   UNL     1      44.531   2.792   9.735  0.00  0.00    +0.000 HD
ATOM     13  H   UNL     1      44.036   1.234  10.382  0.00  0.00    +0.000 HD
ENDBRANCH   5   9
BRANCH   1  14
ATOM     14  C   UNL     1      45.837   8.690  12.865  0.00  0.00    +0.000 C 
BRANCH  14  15
ATOM     15  C   UNL     1      46.650   9.776  12.151  0.00  0.00    +0.000 C 
BRANCH  15  19
ATOM     16  C   UNL     1      50.750   8.537  11.419  0.00  0.00    +0.000 A 
ATOM     17  C   UNL     1      50.378   9.881  11.292  0.00  0.00    +0.000 A 
ATOM     18  C   UNL     1      49.059  10.287  11.531  0.00  0.00    +0.000 A 
ATOM     19  C   UNL     1      48.083   9.353  11.902  0.00  0.00    +0.000 A 
ATOM     20  C   UNL     1      48.453   8.007  12.022  0.00  0.00    +0.000 A 
ATOM     21  C   UNL     1      49.773   7.604  11.785  0.00  0.00    +0.000 A 
BRANCH  16  22
ATOM     22  C   UNL     1      52.169   8.099  11.139  0.00  0.00    +0.000 C 
BRANCH  22  23
ATOM     23  N   UNL     1      52.213   6.851  10.384  0.00  0.00    +0.000 NA
ATOM     24  H   UNL     1      53.184   6.608  10.199  0.00  0.00    +0.000 HD
ATOM     25  H   UNL     1      51.776   7.005   9.477  0.00  0.00    +0.000 HD
ENDBRANCH  22  23
ENDBRANCH  16  22
ENDBRANCH  15  19
ENDBRANCH  14  15
ENDBRANCH   1  14
TORSDOF 6
ENDMDL
