MODEL 1
REMARK VINA RESULT:    -8.941      0.000      0.000
REMARK INTER + INTRA:         -11.549
REMARK INTER:                 -11.032
REMARK INTRA:                  -0.517
REMARK UNBOUND:                -0.517
REMARK  Name = 
REMARK  8 active torsions:
REMARK  status: ('A' for Active; 'I' for Inactive)
REMARK    1  A    between atoms: C_1  and  C_2
REMARK    2  A    between atoms: C_7  and  C_8
REMARK    3  A    between atoms: C_8  and  C_9
REMARK    4  A    between atoms: C_8  and  C_10
REMARK    5  A    between atoms: C_8  and  C_11
REMARK    6  A    between atoms: C_11  and  N_12
REMARK    7  A    between atoms: C_16  and  C_17
REMARK    8  A    between atoms: C_26  and  C_27
REMARK                            x       y       z     vdW  Elec       q    Type
REMARK                         _______ _______ _______ _____ _____    ______ ____
ROOT
ATOM      1  C   UNL     1      44.068   4.621  12.243  0.00  0.00    +0.000 C 
ATOM      2  C   UNL     1      45.053   3.475  12.566  0.00  0.00    +0.000 C 
ATOM      3  C   UNL     1      43.086   4.802  13.419  0.00  0.00    +0.000 C 
ENDROOT
BRANCH   1  10
ATOM      4  C   UNL     1      48.745  10.291  12.907  0.00  0.00    +0.000 C 
ATOM      5  C   UNL     1      49.741   9.212  12.493  0.00  0.00    +0.000 C 
ATOM      6  C   UNL     1      49.149   8.157  11.543  0.00  0.00    +0.000 C 
ATOM      7  N   UNL     1      48.333   7.157  12.233  0.00  0.00    +0.000 N 
ATOM      8  C   UNL     1      46.959   7.189  12.075  0.00  0.00    +0.000 A 
ATOM      9  C   UNL     1      46.244   5.986  12.180  0.00  0.00    +0.000 A 
ATOM     10  C   UNL     1      44.848   5.944  12.051  0.00  0.00    +0.000 A 
ATOM     11  C   UNL     1      44.224   7.165  11.776  0.00  0.00    +0.000 A 
ATOM     12  C   UNL     1      44.991   8.313  11.662  0.00  0.00    +0.000 A 
ATOM     13  N   UNL     1      46.333   8.346  11.795  0.00  0.00    +0.000 NA
ATOM     14  C   UNL     1      48.870   6.649  13.503  0.00  0.00    +0.000 C 
ATOM     15  C   UNL     1      49.468   7.770  14.382  0.00  0.00    +0.000 C 
ATOM     16  C   UNL     1      50.264   7.165  15.535  0.00  0.00    +0.000 C 
ATOM     17  O   UNL     1      50.369   8.608  13.640  0.00  0.00    +0.000 OA
ENDBRANCH   1  10
BRANCH   1  18
ATOM     18  C   UNL     1      43.265   4.245  10.959  0.00  0.00    +0.000 C 
BRANCH  18  19
ATOM     19  N   UNL     1      43.805   4.785   9.720  0.00  0.00    +0.000 N 
ATOM     20  C   UNL     1      44.727   4.009   9.026  0.00  0.00    +0.000 A 
ATOM     21  C   UNL     1      44.745   2.608   9.038  0.00  0.00    +0.000 A 
ATOM     22  N   UNL     1      45.632   1.839   8.358  0.00  0.00    +0.000 NA
ATOM     23  C   UNL     1      46.504   2.547   7.602  0.00  0.00    +0.000 A 
ATOM     24  C   UNL     1      46.497   3.938   7.558  0.00  0.00    +0.000 A 
ATOM     25  N   UNL     1      45.618   4.690   8.279  0.00  0.00    +0.000 NA
ATOM     26  H   UNL     1      44.196   5.726   9.758  0.00  0.00    +0.000 HD
BRANCH  23  27
ATOM     27  C   UNL     1      47.480   1.770   6.788  0.00  0.00    +0.000 C 
ATOM     28  N   UNL     1      48.615   2.415   6.345  0.00  0.00    +0.000 N 
ATOM     29  O   UNL     1      47.279   0.601   6.498  0.00  0.00    +0.000 OA
ATOM     30  H   UNL     1      48.810   3.381   6.565  0.00  0.00    +0.000 HD
ATOM     31  H   UNL     1      49.276   1.885   5.791  0.00  0.00    +0.000 HD
ENDBRANCH  23  27
ENDBRANCH  18  19
ENDBRANCH   1  18
TORSDOF 4
ENDMDL
MODEL 2
REMARK VINA RESULT:    -7.522      2.558      3.405
REMARK INTER + INTRA:          -9.798
REMARK INTER:                  -9.290
REMARK INTRA:                  -0.509
REMARK UNBOUND:                -0.517
REMARK  Name = 
REMARK  8 active torsions:
REMARK  status: ('A' for Active; 'I' for Inactive)
REMARK    1  A    between atoms: C_1  and  C_2
REMARK    2  A    between atoms: C_7  and  C_8
REMARK    3  A    between atoms: C_8  and  C_9
REMARK    4  A    between atoms: C_8  and  C_10
REMARK    5  A    between atoms: C_8  and  C_11
REMARK    6  A    between atoms: C_11  and  N_12
REMARK    7  A    between atoms: C_16  and  C_17
REMARK    8  A    between atoms: C_26  and  C_27
REMARK                            x       y       z     vdW  Elec       q    Type
REMARK                         _______ _______ _______ _____ _____    ______ ____
ROOT
ATOM      1  C   UNL     1      44.051   4.978  12.516  0.00  0.00    +0.000 C 
ATOM      2  C   UNL     1      43.174   4.374  13.636  0.00  0.00    +0.000 C 
ATOM      3  C   UNL     1      43.503   6.368  12.128  0.00  0.00    +0.000 C 
ENDROOT
BRANCH   1  10
ATOM      4  C   UNL     1      50.067   6.152  16.626  0.00  0.00    +0.000 C 
ATOM      5  C   UNL     1      49.615   4.832  17.243  0.00  0.00    +0.000 C 
ATOM      6  C   UNL     1      48.921   3.889  16.245  0.00  0.00    +0.000 C 
ATOM      7  N   UNL     1      47.530   4.257  15.980  0.00  0.00    +0.000 N 
ATOM      8  C   UNL     1      47.204   4.809  14.754  0.00  0.00    +0.000 A 
ATOM      9  C   UNL     1      45.910   4.605  14.250  0.00  0.00    +0.000 A 
ATOM     10  C   UNL     1      45.503   5.150  13.023  0.00  0.00    +0.000 A 
ATOM     11  C   UNL     1      46.474   5.873  12.324  0.00  0.00    +0.000 A 
ATOM     12  C   UNL     1      47.740   6.018  12.868  0.00  0.00    +0.000 A 
ATOM     13  N   UNL     1      48.122   5.496  14.051  0.00  0.00    +0.000 NA
ATOM     14  C   UNL     1      46.732   4.654  17.149  0.00  0.00    +0.000 C 
ATOM     15  C   UNL     1      47.513   5.577  18.111  0.00  0.00    +0.000 C 
ATOM     16  C   UNL     1      46.760   5.718  19.430  0.00  0.00    +0.000 C 
ATOM     17  O   UNL     1      48.814   5.049  18.420  0.00  0.00    +0.000 OA
ENDBRANCH   1  10
BRANCH   1  18
ATOM     18  C   UNL     1      43.992   4.040  11.272  0.00  0.00    +0.000 C 
BRANCH  18  19
ATOM     19  N   UNL     1      44.275   4.690  10.001  0.00  0.00    +0.000 N 
ATOM     20  C   UNL     1      45.134   4.040   9.121  0.00  0.00    +0.000 A 
ATOM     21  C   UNL     1      45.273   2.649   9.039  0.00  0.00    +0.000 A 
ATOM     22  N   UNL     1      46.099   2.003   8.179  0.00  0.00    +0.000 NA
ATOM     23  C   UNL     1      46.773   2.827   7.342  0.00  0.00    +0.000 A 
ATOM     24  C   UNL     1      46.640   4.211   7.391  0.00  0.00    +0.000 A 
ATOM     25  N   UNL     1      45.829   4.839   8.288  0.00  0.00    +0.000 NA
ATOM     26  H   UNL     1      44.584   5.661  10.037  0.00  0.00    +0.000 HD
BRANCH  23  27
ATOM     27  C   UNL     1      47.666   2.188   6.335  0.00  0.00    +0.000 C 
ATOM     28  N   UNL     1      47.853   2.833   5.132  0.00  0.00    +0.000 N 
ATOM     29  O   UNL     1      48.203   1.113   6.552  0.00  0.00    +0.000 OA
ATOM     30  H   UNL     1      47.422   3.721   4.920  0.00  0.00    +0.000 HD
ATOM     31  H   UNL     1      48.460   2.396   4.448  0.00  0.00    +0.000 HD
ENDBRANCH  23  27
ENDBRANCH  18  19
ENDBRANCH   1  18
TORSDOF 4
ENDMDL
MODEL 3
REMARK VINA RESULT:    -7.120      3.033      8.066
REMARK INTER + INTRA:          -9.302
REMARK INTER:                  -8.512
REMARK INTRA:                  -0.790
REMARK UNBOUND:                -0.517
REMARK  Name = 
REMARK  8 active torsions:
REMARK  status: ('A' for Active; 'I' for Inactive)
REMARK    1  A    between atoms: C_1  and  C_2
REMARK    2  A    between atoms: C_7  and  C_8
REMARK    3  A    between atoms: C_8  and  C_9
REMARK    4  A    between atoms: C_8  and  C_10
REMARK    5  A    between atoms: C_8  and  C_11
REMARK    6  A    between atoms: C_11  and  N_12
REMARK    7  A    between atoms: C_16  and  C_17
REMARK    8  A    between atoms: C_26  and  C_27
REMARK                            x       y       z     vdW  Elec       q    Type
REMARK                         _______ _______ _______ _____ _____    ______ ____
ROOT
ATOM      1  C   UNL     1      49.064   8.534  12.185  0.00  0.00    +0.000 C 
ATOM      2  C   UNL     1      49.795   7.394  11.440  0.00  0.00    +0.000 C 
ATOM      3  C   UNL     1      49.085   9.810  11.319  0.00  0.00    +0.000 C 
ENDROOT
BRANCH   1  10
ATOM      4  C   UNL     1      42.292   5.639  11.702  0.00  0.00    +0.000 C 
ATOM      5  C   UNL     1      43.072   4.363  12.001  0.00  0.00    +0.000 C 
ATOM      6  C   UNL     1      44.298   4.585  12.903  0.00  0.00    +0.000 C 
ATOM      7  N   UNL     1      45.448   5.135  12.183  0.00  0.00    +0.000 N 
ATOM      8  C   UNL     1      45.807   6.454  12.401  0.00  0.00    +0.000 A 
ATOM      9  C   UNL     1      47.154   6.815  12.246  0.00  0.00    +0.000 A 
ATOM     10  C   UNL     1      47.588   8.136  12.432  0.00  0.00    +0.000 A 
ATOM     11  C   UNL     1      46.605   9.054  12.813  0.00  0.00    +0.000 A 
ATOM     12  C   UNL     1      45.296   8.626  12.970  0.00  0.00    +0.000 A 
ATOM     13  N   UNL     1      44.885   7.355  12.784  0.00  0.00    +0.000 NA
ATOM     14  C   UNL     1      45.720   4.555  10.860  0.00  0.00    +0.000 C 
ATOM     15  C   UNL     1      44.433   4.341  10.033  0.00  0.00    +0.000 C 
ATOM     16  C   UNL     1      44.733   3.479   8.810  0.00  0.00    +0.000 C 
ATOM     17  O   UNL     1      43.418   3.662  10.790  0.00  0.00    +0.000 OA
ENDBRANCH   1  10
BRANCH   1  18
ATOM     18  C   UNL     1      49.807   8.812  13.528  0.00  0.00    +0.000 C 
BRANCH  18  19
ATOM     19  N   UNL     1      50.619   7.708  14.018  0.00  0.00    +0.000 N 
ATOM     20  C   UNL     1      50.190   7.053  15.167  0.00  0.00    +0.000 A 
ATOM     21  C   UNL     1      48.847   6.923  15.546  0.00  0.00    +0.000 A 
ATOM     22  N   UNL     1      48.415   6.278  16.657  0.00  0.00    +0.000 NA
ATOM     23  C   UNL     1      49.407   5.708  17.381  0.00  0.00    +0.000 A 
ATOM     24  C   UNL     1      50.747   5.807  17.019  0.00  0.00    +0.000 A 
ATOM     25  N   UNL     1      51.160   6.491  15.915  0.00  0.00    +0.000 NA
ATOM     26  H   UNL     1      51.614   7.889  14.147  0.00  0.00    +0.000 HD
BRANCH  23  27
ATOM     27  C   UNL     1      49.007   4.940  18.593  0.00  0.00    +0.000 C 
ATOM     28  N   UNL     1      47.740   4.397  18.629  0.00  0.00    +0.000 N 
ATOM     29  O   UNL     1      49.764   4.808  19.542  0.00  0.00    +0.000 OA
ATOM     30  H   UNL     1      47.089   4.490  17.862  0.00  0.00    +0.000 HD
ATOM     31  H   UNL     1      47.469   3.876  19.454  0.00  0.00    +0.000 HD
ENDBRANCH  23  27
ENDBRANCH  18  19
ENDBRANCH   1  18
TORSDOF 4
ENDMDL
MODEL 4
REMARK VINA RESULT:    -7.099      3.344      5.768
REMARK INTER + INTRA:          -9.277
REMARK INTER:                  -8.630
REMARK INTRA:                  -0.647
REMARK UNBOUND:                -0.517
REMARK  Name = 
REMARK  8 active torsions:
REMARK  status: ('A' for Active; 'I' for Inactive)
REMARK    1  A    between atoms: C_1  and  C_2
REMARK    2  A    between atoms: C_7  and  C_8
REMARK    3  A    between atoms: C_8  and  C_9
REMARK    4  A    between atoms: C_8  and  C_10
REMARK    5  A    between atoms: C_8  and  C_11
REMARK    6  A    between atoms: C_11  and  N_12
REMARK    7  A    between atoms: C_16  and  C_17
REMARK    8  A    between atoms: C_26  and  C_27
REMARK                            x       y       z     vdW  Elec       q    Type
REMARK                         _______ _______ _______ _____ _____    ______ ____
ROOT
ATOM      1  C   UNL     1      48.285   8.540  12.816  0.00  0.00    +0.000 C 
ATOM      2  C   UNL     1      48.825   9.892  12.295  0.00  0.00    +0.000 C 
ATOM      3  C   UNL     1      49.074   7.386  12.163  0.00  0.00    +0.000 C 
ENDROOT
BRANCH   1  10
ATOM      4  C   UNL     1      48.292   6.420  19.885  0.00  0.00    +0.000 C 
ATOM      5  C   UNL     1      49.282   5.400  19.333  0.00  0.00    +0.000 C 
ATOM      6  C   UNL     1      50.130   5.932  18.165  0.00  0.00    +0.000 C 
ATOM      7  N   UNL     1      49.409   5.941  16.891  0.00  0.00    +0.000 N 
ATOM      8  C   UNL     1      49.009   7.152  16.356  0.00  0.00    +0.000 A 
ATOM      9  C   UNL     1      48.895   7.264  14.962  0.00  0.00    +0.000 A 
ATOM     10  C   UNL     1      48.477   8.455  14.349  0.00  0.00    +0.000 A 
ATOM     11  C   UNL     1      48.217   9.526  15.211  0.00  0.00    +0.000 A 
ATOM     12  C   UNL     1      48.370   9.354  16.577  0.00  0.00    +0.000 A 
ATOM     13  N   UNL     1      48.767   8.204  17.158  0.00  0.00    +0.000 NA
ATOM     14  C   UNL     1      48.590   4.754  16.603  0.00  0.00    +0.000 C 
ATOM     15  C   UNL     1      47.794   4.273  17.836  0.00  0.00    +0.000 C 
ATOM     16  C   UNL     1      47.202   2.892  17.572  0.00  0.00    +0.000 C 
ATOM     17  O   UNL     1      48.629   4.160  19.000  0.00  0.00    +0.000 OA
ENDBRANCH   1  10
BRANCH   1  18
ATOM     18  C   UNL     1      46.780   8.418  12.426  0.00  0.00    +0.000 C 
BRANCH  18  19
ATOM     19  N   UNL     1      45.998   7.531  13.274  0.00  0.00    +0.000 N 
ATOM     20  C   UNL     1      45.470   6.383  12.694  0.00  0.00    +0.000 A 
ATOM     21  C   UNL     1      46.062   5.696  11.625  0.00  0.00    +0.000 A 
ATOM     22  N   UNL     1      45.563   4.570  11.058  0.00  0.00    +0.000 NA
ATOM     23  C   UNL     1      44.434   4.113  11.647  0.00  0.00    +0.000 A 
ATOM     24  C   UNL     1      43.835   4.765  12.721  0.00  0.00    +0.000 A 
ATOM     25  N   UNL     1      44.336   5.915  13.252  0.00  0.00    +0.000 NA
ATOM     26  H   UNL     1      45.240   7.954  13.810  0.00  0.00    +0.000 HD
BRANCH  23  27
ATOM     27  C   UNL     1      43.852   2.852  11.109  0.00  0.00    +0.000 C 
ATOM     28  N   UNL     1      44.359   2.355   9.928  0.00  0.00    +0.000 N 
ATOM     29  O   UNL     1      42.936   2.279  11.679  0.00  0.00    +0.000 OA
ATOM     30  H   UNL     1      45.114   2.805   9.430  0.00  0.00    +0.000 HD
ATOM     31  H   UNL     1      43.961   1.498   9.563  0.00  0.00    +0.000 HD
ENDBRANCH  23  27
ENDBRANCH  18  19
ENDBRANCH   1  18
TORSDOF 4
ENDMDL
MODEL 5
REMARK VINA RESULT:    -6.887      4.738      7.119
REMARK INTER + INTRA:          -9.015
REMARK INTER:                  -8.516
REMARK INTRA:                  -0.499
REMARK UNBOUND:                -0.517
REMARK  Name = 
REMARK  8 active torsions:
REMARK  status: ('A' for Active; 'I' for Inactive)
REMARK    1  A    between atoms: C_1  and  C_2
REMARK    2  A    between atoms: C_7  and  C_8
REMARK    3  A    between atoms: C_8  and  C_9
REMARK    4  A    between atoms: C_8  and  C_10
REMARK    5  A    between atoms: C_8  and  C_11
REMARK    6  A    between atoms: C_11  and  N_12
REMARK    7  A    between atoms: C_16  and  C_17
REMARK    8  A    between atoms: C_26  and  C_27
REMARK                            x       y       z     vdW  Elec       q    Type
REMARK                         _______ _______ _______ _____ _____    ______ ____
ROOT
ATOM      1  C   UNL     1      48.021   4.045  17.275  0.00  0.00    +0.000 C 
ATOM      2  C   UNL     1      47.026   2.888  17.525  0.00  0.00    +0.000 C 
ATOM      3  C   UNL     1      47.799   5.150  18.328  0.00  0.00    +0.000 C 
ENDROOT
BRANCH   1  10
ATOM      4  C   UNL     1      55.337   3.165  16.869  0.00  0.00    +0.000 C 
ATOM      5  C   UNL     1      55.298   4.392  17.774  0.00  0.00    +0.000 C 
ATOM      6  C   UNL     1      54.073   4.435  18.703  0.00  0.00    +0.000 C 
ATOM      7  N   UNL     1      52.855   4.881  18.025  0.00  0.00    +0.000 N 
ATOM      8  C   UNL     1      51.860   3.956  17.757  0.00  0.00    +0.000 A 
ATOM      9  C   UNL     1      50.531   4.401  17.697  0.00  0.00    +0.000 A 
ATOM     10  C   UNL     1      49.472   3.525  17.411  0.00  0.00    +0.000 A 
ATOM     11  C   UNL     1      49.823   2.184  17.229  0.00  0.00    +0.000 A 
ATOM     12  C   UNL     1      51.153   1.808  17.324  0.00  0.00    +0.000 A 
ATOM     13  N   UNL     1      52.165   2.657  17.593  0.00  0.00    +0.000 NA
ATOM     14  C   UNL     1      53.005   6.018  17.106  0.00  0.00    +0.000 C 
ATOM     15  C   UNL     1      54.274   5.907  16.232  0.00  0.00    +0.000 C 
ATOM     16  C   UNL     1      54.538   7.230  15.520  0.00  0.00    +0.000 C 
ATOM     17  O   UNL     1      55.440   5.609  17.017  0.00  0.00    +0.000 OA
ENDBRANCH   1  10
BRANCH   1  18
ATOM     18  C   UNL     1      47.761   4.631  15.853  0.00  0.00    +0.000 C 
BRANCH  18  19
ATOM     19  N   UNL     1      47.497   3.639  14.821  0.00  0.00    +0.000 N 
ATOM     20  C   UNL     1      46.662   4.007  13.772  0.00  0.00    +0.000 A 
ATOM     21  C   UNL     1      46.538   5.315  13.284  0.00  0.00    +0.000 A 
ATOM     22  N   UNL     1      45.735   5.685  12.255  0.00  0.00    +0.000 NA
ATOM     23  C   UNL     1      45.071   4.655  11.681  0.00  0.00    +0.000 A 
ATOM     24  C   UNL     1      45.189   3.344  12.134  0.00  0.00    +0.000 A 
ATOM     25  N   UNL     1      45.976   3.002  13.193  0.00  0.00    +0.000 NA
ATOM     26  H   UNL     1      47.178   2.722  15.132  0.00  0.00    +0.000 HD
BRANCH  23  27
ATOM     27  C   UNL     1      44.204   4.975  10.512  0.00  0.00    +0.000 C 
ATOM     28  N   UNL     1      44.775   4.962   9.258  0.00  0.00    +0.000 N 
ATOM     29  O   UNL     1      43.026   5.264  10.654  0.00  0.00    +0.000 OA
ATOM     30  H   UNL     1      45.746   4.729   9.106  0.00  0.00    +0.000 HD
ATOM     31  H   UNL     1      44.184   5.181   8.465  0.00  0.00    +0.000 HD
ENDBRANCH  23  27
ENDBRANCH  18  19
ENDBRANCH   1  18
TORSDOF 4
ENDMDL
MODEL 6
REMARK VINA RESULT:    -6.864      3.265      5.975
REMARK INTER + INTRA:          -8.986
REMARK INTER:                  -8.130
REMARK INTRA:                  -0.857
REMARK UNBOUND:                -0.517
REMARK  Name = 
REMARK  8 active torsions:
REMARK  status: ('A' for Active; 'I' for Inactive)
REMARK    1  A    between atoms: C_1  and  C_2
REMARK    2  A    between atoms: C_7  and  C_8
REMARK    3  A    between atoms: C_8  and  C_9
REMARK    4  A    between atoms: C_8  and  C_10
REMARK    5  A    between atoms: C_8  and  C_11
REMARK    6  A    between atoms: C_11  and  N_12
REMARK    7  A    between atoms: C_16  and  C_17
REMARK    8  A    between atoms: C_26  and  C_27
REMARK                            x       y       z     vdW  Elec       q    Type
REMARK                         _______ _______ _______ _____ _____    ______ ____
ROOT
ATOM      1  C   UNL     1      48.793   3.884  17.423  0.00  0.00    +0.000 C 
ATOM      2  C   UNL     1      49.275   2.452  17.096  0.00  0.00    +0.000 C 
ATOM      3  C   UNL     1      48.459   3.983  18.927  0.00  0.00    +0.000 C 
ENDROOT
BRANCH   1  10
ATOM      4  C   UNL     1      53.267   8.764  14.162  0.00  0.00    +0.000 C 
ATOM      5  C   UNL     1      52.008   9.621  14.250  0.00  0.00    +0.000 C 
ATOM      6  C   UNL     1      51.140   9.319  15.483  0.00  0.00    +0.000 C 
ATOM      7  N   UNL     1      50.324   8.114  15.329  0.00  0.00    +0.000 N 
ATOM      8  C   UNL     1      50.663   6.979  16.044  0.00  0.00    +0.000 A 
ATOM      9  C   UNL     1      49.645   6.081  16.398  0.00  0.00    +0.000 A 
ATOM     10  C   UNL     1      49.916   4.900  17.105  0.00  0.00    +0.000 A 
ATOM     11  C   UNL     1      51.252   4.697  17.463  0.00  0.00    +0.000 A 
ATOM     12  C   UNL     1      52.206   5.635  17.101  0.00  0.00    +0.000 A 
ATOM     13  N   UNL     1      51.938   6.764  16.415  0.00  0.00    +0.000 NA
ATOM     14  C   UNL     1      49.670   7.939  14.024  0.00  0.00    +0.000 C 
ATOM     15  C   UNL     1      50.603   8.289  12.844  0.00  0.00    +0.000 C 
ATOM     16  C   UNL     1      49.802   8.375  11.549  0.00  0.00    +0.000 C 
ATOM     17  O   UNL     1      51.245   9.562  13.030  0.00  0.00    +0.000 OA
ENDBRANCH   1  10
BRANCH   1  18
ATOM     18  C   UNL     1      47.507   4.183  16.592  0.00  0.00    +0.000 C 
BRANCH  18  19
ATOM     19  N   UNL     1      47.358   3.382  15.386  0.00  0.00    +0.000 N 
ATOM     20  C   UNL     1      46.815   3.999  14.265  0.00  0.00    +0.000 A 
ATOM     21  C   UNL     1      46.949   5.363  13.974  0.00  0.00    +0.000 A 
ATOM     22  N   UNL     1      46.433   5.975  12.879  0.00  0.00    +0.000 NA
ATOM     23  C   UNL     1      45.793   5.135  12.032  0.00  0.00    +0.000 A 
ATOM     24  C   UNL     1      45.660   3.774  12.288  0.00  0.00    +0.000 A 
ATOM     25  N   UNL     1      46.158   3.188  13.413  0.00  0.00    +0.000 NA
ATOM     26  H   UNL     1      46.876   2.488  15.482  0.00  0.00    +0.000 HD
BRANCH  23  27
ATOM     27  C   UNL     1      45.239   5.726  10.782  0.00  0.00    +0.000 C 
ATOM     28  N   UNL     1      44.053   6.424  10.863  0.00  0.00    +0.000 N 
ATOM     29  O   UNL     1      45.801   5.583   9.707  0.00  0.00    +0.000 OA
ATOM     30  H   UNL     1      43.562   6.559  11.735  0.00  0.00    +0.000 HD
ATOM     31  H   UNL     1      43.678   6.824  10.012  0.00  0.00    +0.000 HD
ENDBRANCH  23  27
ENDBRANCH  18  19
ENDBRANCH   1  18
TORSDOF 4
ENDMDL
MODEL 7
REMARK VINA RESULT:    -6.729      4.682      6.876
REMARK INTER + INTRA:          -8.820
REMARK INTER:                  -8.372
REMARK INTRA:                  -0.448
REMARK UNBOUND:                -0.517
REMARK  Name = 
REMARK  8 active torsions:
REMARK  status: ('A' for Active; 'I' for Inactive)
REMARK    1  A    between atoms: C_1  and  C_2
REMARK    2  A    between atoms: C_7  and  C_8
REMARK    3  A    between atoms: C_8  and  C_9
REMARK    4  A    between atoms: C_8  and  C_10
REMARK    5  A    between atoms: C_8  and  C_11
REMARK    6  A    between atoms: C_11  and  N_12
REMARK    7  A    between atoms: C_16  and  C_17
REMARK    8  A    between atoms: C_26  and  C_27
REMARK                            x       y       z     vdW  Elec       q    Type
REMARK                         _______ _______ _______ _____ _____    ______ ____
ROOT
ATOM      1  C   UNL     1      48.146   3.325  16.976  0.00  0.00    +0.000 C 
ATOM      2  C   UNL     1      49.062   2.231  16.380  0.00  0.00    +0.000 C 
ATOM      3  C   UNL     1      47.046   2.664  17.832  0.00  0.00    +0.000 C 
ENDROOT
BRANCH   1  10
ATOM      4  C   UNL     1      51.154   9.185  20.304  0.00  0.00    +0.000 C 
ATOM      5  C   UNL     1      49.732   9.316  20.838  0.00  0.00    +0.000 C 
ATOM      6  C   UNL     1      49.020   7.967  21.038  0.00  0.00    +0.000 C 
ATOM      7  N   UNL     1      48.513   7.396  19.789  0.00  0.00    +0.000 N 
ATOM      8  C   UNL     1      49.148   6.291  19.251  0.00  0.00    +0.000 A 
ATOM      9  C   UNL     1      48.394   5.394  18.479  0.00  0.00    +0.000 A 
ATOM     10  C   UNL     1      48.975   4.263  17.885  0.00  0.00    +0.000 A 
ATOM     11  C   UNL     1      50.336   4.071  18.142  0.00  0.00    +0.000 A 
ATOM     12  C   UNL     1      51.017   4.983  18.931  0.00  0.00    +0.000 A 
ATOM     13  N   UNL     1      50.453   6.071  19.493  0.00  0.00    +0.000 NA
ATOM     14  C   UNL     1      47.861   8.335  18.866  0.00  0.00    +0.000 C 
ATOM     15  C   UNL     1      48.626   9.672  18.746  0.00  0.00    +0.000 C 
ATOM     16  C   UNL     1      47.769  10.704  18.021  0.00  0.00    +0.000 C 
ATOM     17  O   UNL     1      48.950  10.220  20.035  0.00  0.00    +0.000 OA
ENDBRANCH   1  10
BRANCH   1  18
ATOM     18  C   UNL     1      47.480   4.112  15.806  0.00  0.00    +0.000 C 
BRANCH  18  19
ATOM     19  N   UNL     1      47.324   3.358  14.571  0.00  0.00    +0.000 N 
ATOM     20  C   UNL     1      46.400   3.825  13.643  0.00  0.00    +0.000 A 
ATOM     21  C   UNL     1      46.061   5.174  13.477  0.00  0.00    +0.000 A 
ATOM     22  N   UNL     1      45.170   5.643  12.569  0.00  0.00    +0.000 NA
ATOM     23  C   UNL     1      44.642   4.684  11.773  0.00  0.00    +0.000 A 
ATOM     24  C   UNL     1      44.973   3.339  11.904  0.00  0.00    +0.000 A 
ATOM     25  N   UNL     1      45.846   2.887  12.848  0.00  0.00    +0.000 NA
ATOM     26  H   UNL     1      47.158   2.356  14.660  0.00  0.00    +0.000 HD
BRANCH  23  27
ATOM     27  C   UNL     1      43.689   5.128  10.718  0.00  0.00    +0.000 C 
ATOM     28  N   UNL     1      43.923   4.726   9.420  0.00  0.00    +0.000 N 
ATOM     29  O   UNL     1      42.738   5.847  10.981  0.00  0.00    +0.000 OA
ATOM     30  H   UNL     1      44.701   4.133   9.168  0.00  0.00    +0.000 HD
ATOM     31  H   UNL     1      43.274   5.029   8.704  0.00  0.00    +0.000 HD
ENDBRANCH  23  27
ENDBRANCH  18  19
ENDBRANCH   1  18
TORSDOF 4
ENDMDL
MODEL 8
REMARK VINA RESULT:    -6.167      5.373      7.760
REMARK INTER + INTRA:          -8.127
REMARK INTER:                  -7.650
REMARK INTRA:                  -0.477
REMARK UNBOUND:                -0.517
REMARK  Name = 
REMARK  8 active torsions:
REMARK  status: ('A' for Active; 'I' for Inactive)
REMARK    1  A    between atoms: C_1  and  C_2
REMARK    2  A    between atoms: C_7  and  C_8
REMARK    3  A    between atoms: C_8  and  C_9
REMARK    4  A    between atoms: C_8  and  C_10
REMARK    5  A    between atoms: C_8  and  C_11
REMARK    6  A    between atoms: C_11  and  N_12
REMARK    7  A    between atoms: C_16  and  C_17
REMARK    8  A    between atoms: C_26  and  C_27
REMARK                            x       y       z     vdW  Elec       q    Type
REMARK                         _______ _______ _______ _____ _____    ______ ____
ROOT
ATOM      1  C   UNL     1      47.854   4.359  17.690  0.00  0.00    +0.000 C 
ATOM      2  C   UNL     1      47.429   2.873  17.732  0.00  0.00    +0.000 C 
ATOM      3  C   UNL     1      46.838   5.206  18.484  0.00  0.00    +0.000 C 
ENDROOT
BRANCH   1  10
ATOM      4  C   UNL     1      54.634   3.246  20.383  0.00  0.00    +0.000 C 
ATOM      5  C   UNL     1      54.943   3.091  18.898  0.00  0.00    +0.000 C 
ATOM      6  C   UNL     1      54.064   3.967  17.989  0.00  0.00    +0.000 C 
ATOM      7  N   UNL     1      52.725   3.415  17.782  0.00  0.00    +0.000 N 
ATOM      8  C   UNL     1      51.645   4.028  18.393  0.00  0.00    +0.000 A 
ATOM      9  C   UNL     1      50.388   3.944  17.775  0.00  0.00    +0.000 A 
ATOM     10  C   UNL     1      49.245   4.524  18.346  0.00  0.00    +0.000 A 
ATOM     11  C   UNL     1      49.447   5.217  19.544  0.00  0.00    +0.000 A 
ATOM     12  C   UNL     1      50.719   5.281  20.090  0.00  0.00    +0.000 A 
ATOM     13  N   UNL     1      51.811   4.715  19.537  0.00  0.00    +0.000 NA
ATOM     14  C   UNL     1      52.652   1.967  17.542  0.00  0.00    +0.000 C 
ATOM     15  C   UNL     1      53.585   1.167  18.478  0.00  0.00    +0.000 C 
ATOM     16  C   UNL     1      53.693  -0.278  18.000  0.00  0.00    +0.000 C 
ATOM     17  O   UNL     1      54.916   1.708  18.496  0.00  0.00    +0.000 OA
ENDBRANCH   1  10
BRANCH   1  18
ATOM     18  C   UNL     1      47.868   4.835  16.205  0.00  0.00    +0.000 C 
BRANCH  18  19
ATOM     19  N   UNL     1      47.501   3.815  15.232  0.00  0.00    +0.000 N 
ATOM     20  C   UNL     1      46.845   4.231  14.079  0.00  0.00    +0.000 A 
ATOM     21  C   UNL     1      47.021   5.486  13.480  0.00  0.00    +0.000 A 
ATOM     22  N   UNL     1      46.396   5.899  12.350  0.00  0.00    +0.000 NA
ATOM     23  C   UNL     1      45.592   4.963  11.795  0.00  0.00    +0.000 A 
ATOM     24  C   UNL     1      45.412   3.703  12.358  0.00  0.00    +0.000 A 
ATOM     25  N   UNL     1      46.025   3.323  13.514  0.00  0.00    +0.000 NA
ATOM     26  H   UNL     1      46.983   3.010  15.581  0.00  0.00    +0.000 HD
BRANCH  23  27
ATOM     27  C   UNL     1      44.906   5.327  10.523  0.00  0.00    +0.000 C 
ATOM     28  N   UNL     1      43.694   5.978  10.603  0.00  0.00    +0.000 N 
ATOM     29  O   UNL     1      45.385   5.040   9.437  0.00  0.00    +0.000 OA
ATOM     30  H   UNL     1      43.269   6.228  11.485  0.00  0.00    +0.000 HD
ATOM     31  H   UNL     1      43.229   6.224   9.738  0.00  0.00    +0.000 HD
ENDBRANCH  23  27
ENDBRANCH  18  19
ENDBRANCH   1  18
TORSDOF 4
ENDMDL
