MODEL 1
REMARK VINA RESULT:    -8.925      0.000      0.000
REMARK INTER + INTRA:         -12.120
REMARK INTER:                 -11.012
REMARK INTRA:                  -1.108
REMARK UNBOUND:                -1.108
REMARK  Name = 
REMARK  4 active torsions:
REMARK  status: ('A' for Active; 'I' for Inactive)
REMARK    1  A    between atoms: C_2  and  C_4
REMARK    2  A    between atoms: N_8  and  C_9
REMARK    3  A    between atoms: C_9  and  C_10
REMARK    4  A    between atoms: C_14  and  C_15
REMARK                            x       y       z     vdW  Elec       q    Type
REMARK                         _______ _______ _______ _____ _____    ______ ____
ROOT
ATOM      1  C   UNL     1      43.847   4.932  11.326  0.00  0.00    +0.000 C 
ATOM      2  C   UNL     1      42.520   5.189  12.027  0.00  0.00    +0.000 C 
ATOM      3  C   UNL     1      43.010   6.156  11.002  0.00  0.00    +0.000 C 
ENDROOT
BRANCH   1   8
ATOM      4  C   UNL     1      46.609   2.741   7.512  0.00  0.00    +0.000 A 
ATOM      5  C   UNL     1      46.273   4.084   7.676  0.00  0.00    +0.000 A 
ATOM      6  C   UNL     1      45.391   4.448   8.695  0.00  0.00    +0.000 A 
ATOM      7  C   UNL     1      44.859   3.471   9.523  0.00  0.00    +0.000 A 
ATOM      8  N   UNL     1      43.861   3.735  10.466  0.00  0.00    +0.000 N 
ATOM      9  N   UNL     1      45.182   2.169   9.382  0.00  0.00    +0.000 NA
ATOM     10  C   UNL     1      46.047   1.829   8.388  0.00  0.00    +0.000 A 
ATOM     11  H   UNL     1      43.716   2.847  10.946  0.00  0.00    +0.000 HD
BRANCH   4  13
ATOM     12  N   UNL     1      47.728   3.097   5.377  0.00  0.00    +0.000 N 
ATOM     13  C   UNL     1      47.482   2.254   6.424  0.00  0.00    +0.000 C 
ATOM     14  O   UNL     1      47.979   1.136   6.462  0.00  0.00    +0.000 OA
ATOM     15  H   UNL     1      48.381   2.768   4.678  0.00  0.00    +0.000 HD
ATOM     16  H   UNL     1      47.534   4.087   5.410  0.00  0.00    +0.000 HD
ENDBRANCH   4  13
ENDBRANCH   1   8
BRANCH   1  17
ATOM     17  C   UNL     1      45.136   5.108  12.129  0.00  0.00    +0.000 A 
ATOM     18  C   UNL     1      45.577   4.109  13.011  0.00  0.00    +0.000 A 
ATOM     19  C   UNL     1      46.812   4.202  13.652  0.00  0.00    +0.000 A 
ATOM     20  C   UNL     1      47.633   5.306  13.425  0.00  0.00    +0.000 A 
ATOM     21  C   UNL     1      47.242   6.337  12.557  0.00  0.00    +0.000 A 
ATOM     22  C   UNL     1      45.981   6.219  11.937  0.00  0.00    +0.000 A 
BRANCH  21  23
ATOM     23  C   UNL     1      48.147   7.462  12.237  0.00  0.00    +0.000 A 
ATOM     24  C   UNL     1      49.524   7.253  12.071  0.00  0.00    +0.000 A 
ATOM     25  C   UNL     1      50.338   8.316  11.715  0.00  0.00    +0.000 A 
ATOM     26  N   UNL     1      49.889   9.569  11.512  0.00  0.00    +0.000 NA
ATOM     27  C   UNL     1      48.566   9.765  11.679  0.00  0.00    +0.000 A 
ATOM     28  C   UNL     1      47.672   8.765  12.037  0.00  0.00    +0.000 A 
ENDBRANCH  21  23
ENDBRANCH   1  17
TORSDOF 4
ENDMDL
MODEL 2
REMARK VINA RESULT:    -8.595      2.158      3.385
REMARK INTER + INTRA:         -11.713
REMARK INTER:                 -11.047
REMARK INTRA:                  -0.666
REMARK UNBOUND:                -1.108
REMARK  Name = 
REMARK  4 active torsions:
REMARK  status: ('A' for Active; 'I' for Inactive)
REMARK    1  A    between atoms: C_2  and  C_4
REMARK    2  A    between atoms: N_8  and  C_9
REMARK    3  A    between atoms: C_9  and  C_10
REMARK    4  A    between atoms: C_14  and  C_15
REMARK                            x       y       z     vdW  Elec       q    Type
REMARK                         _______ _______ _______ _____ _____    ______ ____
ROOT
ATOM      1  C   UNL     1      43.938   4.942  11.494  0.00  0.00    +0.000 C 
ATOM      2  C   UNL     1      42.752   5.080  12.439  0.00  0.00    +0.000 C 
ATOM      3  C   UNL     1      42.901   6.033  11.302  0.00  0.00    +0.000 C 
ENDROOT
BRANCH   1   8
ATOM      4  C   UNL     1      46.438   2.711   7.526  0.00  0.00    +0.000 A 
ATOM      5  C   UNL     1      46.040   4.040   7.661  0.00  0.00    +0.000 A 
ATOM      6  C   UNL     1      45.242   4.407   8.745  0.00  0.00    +0.000 A 
ATOM      7  C   UNL     1      44.853   3.447   9.668  0.00  0.00    +0.000 A 
ATOM      8  N   UNL     1      43.938   3.704  10.693  0.00  0.00    +0.000 N 
ATOM      9  N   UNL     1      45.238   2.159   9.555  0.00  0.00    +0.000 NA
ATOM     10  C   UNL     1      46.020   1.815   8.496  0.00  0.00    +0.000 A 
ATOM     11  H   UNL     1      43.894   2.836  11.226  0.00  0.00    +0.000 HD
BRANCH   4  13
ATOM     12  N   UNL     1      47.241   2.972   5.241  0.00  0.00    +0.000 N 
ATOM     13  C   UNL     1      47.228   2.216   6.380  0.00  0.00    +0.000 C 
ATOM     14  O   UNL     1      47.859   1.170   6.448  0.00  0.00    +0.000 OA
ATOM     15  H   UNL     1      47.841   2.649   4.493  0.00  0.00    +0.000 HD
ATOM     16  H   UNL     1      46.933   3.932   5.213  0.00  0.00    +0.000 HD
ENDBRANCH   4  13
ENDBRANCH   1   8
BRANCH   1  17
ATOM     17  C   UNL     1      45.324   5.321  12.013  0.00  0.00    +0.000 A 
ATOM     18  C   UNL     1      46.083   6.318  11.380  0.00  0.00    +0.000 A 
ATOM     19  C   UNL     1      47.291   6.760  11.915  0.00  0.00    +0.000 A 
ATOM     20  C   UNL     1      47.771   6.205  13.102  0.00  0.00    +0.000 A 
ATOM     21  C   UNL     1      47.058   5.202  13.776  0.00  0.00    +0.000 A 
ATOM     22  C   UNL     1      45.848   4.768  13.199  0.00  0.00    +0.000 A 
BRANCH  21  23
ATOM     23  C   UNL     1      47.511   4.678  15.083  0.00  0.00    +0.000 A 
ATOM     24  C   UNL     1      47.522   3.300  15.340  0.00  0.00    +0.000 A 
ATOM     25  C   UNL     1      48.005   2.835  16.554  0.00  0.00    +0.000 A 
ATOM     26  N   UNL     1      48.477   3.636  17.528  0.00  0.00    +0.000 NA
ATOM     27  C   UNL     1      48.458   4.960  17.277  0.00  0.00    +0.000 A 
ATOM     28  C   UNL     1      47.990   5.520  16.096  0.00  0.00    +0.000 A 
ENDBRANCH  21  23
ENDBRANCH   1  17
TORSDOF 4
ENDMDL
MODEL 3
REMARK VINA RESULT:    -6.603      4.405      8.257
REMARK INTER + INTRA:          -9.255
REMARK INTER:                  -8.259
REMARK INTRA:                  -0.996
REMARK UNBOUND:                -1.108
REMARK  Name = 
REMARK  4 active torsions:
REMARK  status: ('A' for Active; 'I' for Inactive)
REMARK    1  A    between atoms: C_2  and  C_4
REMARK    2  A    between atoms: N_8  and  C_9
REMARK    3  A    between atoms: C_9  and  C_10
REMARK    4  A    between atoms: C_14  and  C_15
REMARK                            x       y       z     vdW  Elec       q    Type
REMARK                         _______ _______ _______ _____ _____    ______ ____
ROOT
ATOM      1  C   UNL     1      49.022   7.963  12.709  0.00  0.00    +0.000 C 
ATOM      2  C   UNL     1      49.984   8.210  11.555  0.00  0.00    +0.000 C 
ATOM      3  C   UNL     1      49.665   9.321  12.497  0.00  0.00    +0.000 C 
ENDROOT
BRANCH   1   8
ATOM      4  C   UNL     1      48.449   6.752  17.727  0.00  0.00    +0.000 A 
ATOM      5  C   UNL     1      48.534   8.016  17.146  0.00  0.00    +0.000 A 
ATOM      6  C   UNL     1      48.840   8.125  15.789  0.00  0.00    +0.000 A 
ATOM      7  C   UNL     1      49.060   6.977  15.041  0.00  0.00    +0.000 A 
ATOM      8  N   UNL     1      49.513   7.007  13.719  0.00  0.00    +0.000 N 
ATOM      9  N   UNL     1      48.971   5.747  15.587  0.00  0.00    +0.000 NA
ATOM     10  C   UNL     1      48.668   5.656  16.910  0.00  0.00    +0.000 A 
ATOM     11  H   UNL     1      49.529   6.030  13.427  0.00  0.00    +0.000 HD
BRANCH   4  13
ATOM     12  N   UNL     1      47.176   5.698  19.517  0.00  0.00    +0.000 N 
ATOM     13  C   UNL     1      48.194   6.539  19.167  0.00  0.00    +0.000 C 
ATOM     14  O   UNL     1      48.878   7.089  20.020  0.00  0.00    +0.000 OA
ATOM     15  H   UNL     1      47.062   5.515  20.506  0.00  0.00    +0.000 HD
ATOM     16  H   UNL     1      46.743   5.058  18.869  0.00  0.00    +0.000 HD
ENDBRANCH   4  13
ENDBRANCH   1   8
BRANCH   1  17
ATOM     17  C   UNL     1      47.538   7.789  12.390  0.00  0.00    +0.000 A 
ATOM     18  C   UNL     1      46.624   8.828  12.623  0.00  0.00    +0.000 A 
ATOM     19  C   UNL     1      45.293   8.727  12.220  0.00  0.00    +0.000 A 
ATOM     20  C   UNL     1      44.846   7.573  11.576  0.00  0.00    +0.000 A 
ATOM     21  C   UNL     1      45.714   6.501  11.321  0.00  0.00    +0.000 A 
ATOM     22  C   UNL     1      47.049   6.629  11.755  0.00  0.00    +0.000 A 
BRANCH  21  23
ATOM     23  C   UNL     1      45.273   5.315  10.554  0.00  0.00    +0.000 A 
ATOM     24  C   UNL     1      45.657   5.140   9.217  0.00  0.00    +0.000 A 
ATOM     25  C   UNL     1      45.275   3.992   8.542  0.00  0.00    +0.000 A 
ATOM     26  N   UNL     1      44.542   3.006   9.094  0.00  0.00    +0.000 NA
ATOM     27  C   UNL     1      44.170   3.183  10.377  0.00  0.00    +0.000 A 
ATOM     28  C   UNL     1      44.500   4.300  11.134  0.00  0.00    +0.000 A 
ENDBRANCH  21  23
ENDBRANCH   1  17
TORSDOF 4
ENDMDL
MODEL 4
REMARK VINA RESULT:    -6.505      3.671      7.484
REMARK INTER + INTRA:          -9.135
REMARK INTER:                  -9.108
REMARK INTRA:                  -0.026
REMARK UNBOUND:                -1.108
REMARK  Name = 
REMARK  4 active torsions:
REMARK  status: ('A' for Active; 'I' for Inactive)
REMARK    1  A    between atoms: C_2  and  C_4
REMARK    2  A    between atoms: N_8  and  C_9
REMARK    3  A    between atoms: C_9  and  C_10
REMARK    4  A    between atoms: C_14  and  C_15
REMARK                            x       y       z     vdW  Elec       q    Type
REMARK                         _______ _______ _______ _____ _____    ______ ____
ROOT
ATOM      1  C   UNL     1      48.456   7.796  12.794  0.00  0.00    +0.000 C 
ATOM      2  C   UNL     1      49.616   7.204  12.005  0.00  0.00    +0.000 C 
ATOM      3  C   UNL     1      49.373   8.675  11.965  0.00  0.00    +0.000 C 
ENDROOT
BRANCH   1   8
ATOM      4  C   UNL     1      48.002   4.300  16.608  0.00  0.00    +0.000 A 
ATOM      5  C   UNL     1      47.176   4.485  15.501  0.00  0.00    +0.000 A 
ATOM      6  C   UNL     1      47.387   5.584  14.667  0.00  0.00    +0.000 A 
ATOM      7  C   UNL     1      48.409   6.477  14.955  0.00  0.00    +0.000 A 
ATOM      8  N   UNL     1      48.590   7.675  14.258  0.00  0.00    +0.000 N 
ATOM      9  N   UNL     1      49.222   6.306  16.018  0.00  0.00    +0.000 NA
ATOM     10  C   UNL     1      49.008   5.227  16.819  0.00  0.00    +0.000 A 
ATOM     11  H   UNL     1      49.435   8.083  14.657  0.00  0.00    +0.000 HD
BRANCH   4  13
ATOM     12  N   UNL     1      48.871   2.882  18.389  0.00  0.00    +0.000 N 
ATOM     13  C   UNL     1      47.816   3.204  17.582  0.00  0.00    +0.000 C 
ATOM     14  O   UNL     1      46.750   2.609  17.672  0.00  0.00    +0.000 OA
ATOM     15  H   UNL     1      48.700   2.175  19.093  0.00  0.00    +0.000 HD
ATOM     16  H   UNL     1      49.674   3.480  18.511  0.00  0.00    +0.000 HD
ENDBRANCH   4  13
ENDBRANCH   1   8
BRANCH   1  17
ATOM     17  C   UNL     1      47.034   7.533  12.300  0.00  0.00    +0.000 A 
ATOM     18  C   UNL     1      46.038   8.515  12.413  0.00  0.00    +0.000 A 
ATOM     19  C   UNL     1      44.775   8.336  11.853  0.00  0.00    +0.000 A 
ATOM     20  C   UNL     1      44.478   7.158  11.167  0.00  0.00    +0.000 A 
ATOM     21  C   UNL     1      45.433   6.139  11.027  0.00  0.00    +0.000 A 
ATOM     22  C   UNL     1      46.695   6.347  11.618  0.00  0.00    +0.000 A 
BRANCH  21  23
ATOM     23  C   UNL     1      45.159   4.929  10.219  0.00  0.00    +0.000 A 
ATOM     24  C   UNL     1      45.603   4.835   8.893  0.00  0.00    +0.000 A 
ATOM     25  C   UNL     1      45.380   3.667   8.180  0.00  0.00    +0.000 A 
ATOM     26  N   UNL     1      44.752   2.589   8.685  0.00  0.00    +0.000 NA
ATOM     27  C   UNL     1      44.322   2.688   9.959  0.00  0.00    +0.000 A 
ATOM     28  C   UNL     1      44.494   3.816  10.751  0.00  0.00    +0.000 A 
ENDBRANCH  21  23
ENDBRANCH   1  17
TORSDOF 4
ENDMDL
MODEL 5
REMARK VINA RESULT:    -6.256      1.261      2.334
REMARK INTER + INTRA:          -8.827
REMARK INTER:                  -8.814
REMARK INTRA:                  -0.013
REMARK UNBOUND:                -1.108
REMARK  Name = 
REMARK  4 active torsions:
REMARK  status: ('A' for Active; 'I' for Inactive)
REMARK    1  A    between atoms: C_2  and  C_4
REMARK    2  A    between atoms: N_8  and  C_9
REMARK    3  A    between atoms: C_9  and  C_10
REMARK    4  A    between atoms: C_14  and  C_15
REMARK                            x       y       z     vdW  Elec       q    Type
REMARK                         _______ _______ _______ _____ _____    ______ ____
ROOT
ATOM      1  C   UNL     1      44.040   4.213  11.799  0.00  0.00    +0.000 C 
ATOM      2  C   UNL     1      44.879   3.520  12.864  0.00  0.00    +0.000 C 
ATOM      3  C   UNL     1      43.437   3.793  13.127  0.00  0.00    +0.000 C 
ENDROOT
BRANCH   1   8
ATOM      4  C   UNL     1      46.465   3.051   7.356  0.00  0.00    +0.000 A 
ATOM      5  C   UNL     1      46.393   4.282   8.007  0.00  0.00    +0.000 A 
ATOM      6  C   UNL     1      45.560   4.419   9.118  0.00  0.00    +0.000 A 
ATOM      7  C   UNL     1      44.814   3.334   9.555  0.00  0.00    +0.000 A 
ATOM      8  N   UNL     1      43.852   3.430  10.564  0.00  0.00    +0.000 N 
ATOM      9  N   UNL     1      44.882   2.134   8.942  0.00  0.00    +0.000 NA
ATOM     10  C   UNL     1      45.701   2.013   7.862  0.00  0.00    +0.000 A 
ATOM     11  H   UNL     1      43.517   2.476  10.696  0.00  0.00    +0.000 HD
BRANCH   4  13
ATOM     12  N   UNL     1      48.592   2.528   6.290  0.00  0.00    +0.000 N 
ATOM     13  C   UNL     1      47.268   2.827   6.136  0.00  0.00    +0.000 C 
ATOM     14  O   UNL     1      46.763   2.897   5.023  0.00  0.00    +0.000 OA
ATOM     15  H   UNL     1      49.107   2.313   5.445  0.00  0.00    +0.000 HD
ATOM     16  H   UNL     1      48.993   2.239   7.169  0.00  0.00    +0.000 HD
ENDBRANCH   4  13
ENDBRANCH   1   8
BRANCH   1  17
ATOM     17  C   UNL     1      44.288   5.698  11.535  0.00  0.00    +0.000 A 
ATOM     18  C   UNL     1      43.238   6.548  11.155  0.00  0.00    +0.000 A 
ATOM     19  C   UNL     1      43.425   7.924  11.034  0.00  0.00    +0.000 A 
ATOM     20  C   UNL     1      44.678   8.480  11.288  0.00  0.00    +0.000 A 
ATOM     21  C   UNL     1      45.766   7.679  11.667  0.00  0.00    +0.000 A 
ATOM     22  C   UNL     1      45.546   6.290  11.765  0.00  0.00    +0.000 A 
BRANCH  21  23
ATOM     23  C   UNL     1      47.072   8.271  12.032  0.00  0.00    +0.000 A 
ATOM     24  C   UNL     1      47.144   9.527  12.653  0.00  0.00    +0.000 A 
ATOM     25  C   UNL     1      48.377  10.030  13.034  0.00  0.00    +0.000 A 
ATOM     26  N   UNL     1      49.542   9.382  12.846  0.00  0.00    +0.000 NA
ATOM     27  C   UNL     1      49.468   8.179  12.243  0.00  0.00    +0.000 A 
ATOM     28  C   UNL     1      48.280   7.593  11.823  0.00  0.00    +0.000 A 
ENDBRANCH  21  23
ENDBRANCH   1  17
TORSDOF 4
ENDMDL
MODEL 6
REMARK VINA RESULT:    -6.100      3.856      5.964
REMARK INTER + INTRA:          -8.635
REMARK INTER:                  -8.315
REMARK INTRA:                  -0.320
REMARK UNBOUND:                -1.108
REMARK  Name = 
REMARK  4 active torsions:
REMARK  status: ('A' for Active; 'I' for Inactive)
REMARK    1  A    between atoms: C_2  and  C_4
REMARK    2  A    between atoms: N_8  and  C_9
REMARK    3  A    between atoms: C_9  and  C_10
REMARK    4  A    between atoms: C_14  and  C_15
REMARK                            x       y       z     vdW  Elec       q    Type
REMARK                         _______ _______ _______ _____ _____    ______ ____
ROOT
ATOM      1  C   UNL     1      47.551   8.375  13.343  0.00  0.00    +0.000 C 
ATOM      2  C   UNL     1      47.883   9.676  12.624  0.00  0.00    +0.000 C 
ATOM      3  C   UNL     1      48.477   8.396  12.141  0.00  0.00    +0.000 C 
ENDROOT
BRANCH   1   8
ATOM      4  C   UNL     1      44.572   4.634  11.319  0.00  0.00    +0.000 A 
ATOM      5  C   UNL     1      45.668   5.274  10.743  0.00  0.00    +0.000 A 
ATOM      6  C   UNL     1      46.243   6.364  11.397  0.00  0.00    +0.000 A 
ATOM      7  C   UNL     1      45.714   6.798  12.604  0.00  0.00    +0.000 A 
ATOM      8  N   UNL     1      46.138   7.966  13.244  0.00  0.00    +0.000 N 
ATOM      9  N   UNL     1      44.660   6.182  13.177  0.00  0.00    +0.000 NA
ATOM     10  C   UNL     1      44.112   5.117  12.531  0.00  0.00    +0.000 A 
ATOM     11  H   UNL     1      45.612   7.990  14.116  0.00  0.00    +0.000 HD
BRANCH   4  13
ATOM     12  N   UNL     1      44.102   3.284   9.346  0.00  0.00    +0.000 N 
ATOM     13  C   UNL     1      43.858   3.514  10.671  0.00  0.00    +0.000 C 
ATOM     14  O   UNL     1      43.082   2.807  11.300  0.00  0.00    +0.000 OA
ATOM     15  H   UNL     1      43.654   2.472   8.940  0.00  0.00    +0.000 HD
ATOM     16  H   UNL     1      44.886   3.682   8.852  0.00  0.00    +0.000 HD
ENDBRANCH   4  13
ENDBRANCH   1   8
BRANCH   1  17
ATOM     17  C   UNL     1      48.145   8.144  14.731  0.00  0.00    +0.000 A 
ATOM     18  C   UNL     1      48.195   9.181  15.676  0.00  0.00    +0.000 A 
ATOM     19  C   UNL     1      48.617   8.950  16.985  0.00  0.00    +0.000 A 
ATOM     20  C   UNL     1      49.007   7.670  17.375  0.00  0.00    +0.000 A 
ATOM     21  C   UNL     1      48.982   6.596  16.472  0.00  0.00    +0.000 A 
ATOM     22  C   UNL     1      48.565   6.866  15.154  0.00  0.00    +0.000 A 
BRANCH  21  23
ATOM     23  C   UNL     1      49.301   5.216  16.904  0.00  0.00    +0.000 A 
ATOM     24  C   UNL     1      48.337   4.200  16.832  0.00  0.00    +0.000 A 
ATOM     25  C   UNL     1      48.682   2.906  17.190  0.00  0.00    +0.000 A 
ATOM     26  N   UNL     1      49.909   2.547  17.612  0.00  0.00    +0.000 NA
ATOM     27  C   UNL     1      50.829   3.529  17.685  0.00  0.00    +0.000 A 
ATOM     28  C   UNL     1      50.578   4.854  17.352  0.00  0.00    +0.000 A 
ENDBRANCH  21  23
ENDBRANCH   1  17
TORSDOF 4
ENDMDL
MODEL 7
REMARK VINA RESULT:    -6.097      3.672      6.597
REMARK INTER + INTRA:          -8.630
REMARK INTER:                  -7.560
REMARK INTRA:                  -1.070
REMARK UNBOUND:                -1.108
REMARK  Name = 
REMARK  4 active torsions:
REMARK  status: ('A' for Active; 'I' for Inactive)
REMARK    1  A    between atoms: C_2  and  C_4
REMARK    2  A    between atoms: N_8  and  C_9
REMARK    3  A    between atoms: C_9  and  C_10
REMARK    4  A    between atoms: C_14  and  C_15
REMARK                            x       y       z     vdW  Elec       q    Type
REMARK                         _______ _______ _______ _____ _____    ______ ____
ROOT
ATOM      1  C   UNL     1      49.184   8.578  12.647  0.00  0.00    +0.000 C 
ATOM      2  C   UNL     1      50.377   9.362  12.117  0.00  0.00    +0.000 C 
ATOM      3  C   UNL     1      50.315   7.886  11.909  0.00  0.00    +0.000 C 
ENDROOT
BRANCH   1   8
ATOM      4  C   UNL     1      44.586   6.450  11.503  0.00  0.00    +0.000 A 
ATOM      5  C   UNL     1      45.853   5.875  11.413  0.00  0.00    +0.000 A 
ATOM      6  C   UNL     1      46.980   6.669  11.625  0.00  0.00    +0.000 A 
ATOM      7  C   UNL     1      46.825   8.017  11.917  0.00  0.00    +0.000 A 
ATOM      8  N   UNL     1      47.901   8.905  11.997  0.00  0.00    +0.000 N 
ATOM      9  N   UNL     1      45.606   8.585  12.017  0.00  0.00    +0.000 NA
ATOM     10  C   UNL     1      44.515   7.798  11.812  0.00  0.00    +0.000 A 
ATOM     11  H   UNL     1      47.485   9.794  12.271  0.00  0.00    +0.000 HD
BRANCH   4  13
ATOM     12  N   UNL     1      42.172   6.215  11.728  0.00  0.00    +0.000 N 
ATOM     13  C   UNL     1      43.339   5.706  11.232  0.00  0.00    +0.000 C 
ATOM     14  O   UNL     1      43.346   4.672  10.576  0.00  0.00    +0.000 OA
ATOM     15  H   UNL     1      41.323   5.726  11.474  0.00  0.00    +0.000 HD
ATOM     16  H   UNL     1      42.084   7.161  12.069  0.00  0.00    +0.000 HD
ENDBRANCH   4  13
ENDBRANCH   1   8
BRANCH   1  17
ATOM     17  C   UNL     1      49.057   8.384  14.157  0.00  0.00    +0.000 A 
ATOM     18  C   UNL     1      48.709   9.455  14.995  0.00  0.00    +0.000 A 
ATOM     19  C   UNL     1      48.467   9.265  16.354  0.00  0.00    +0.000 A 
ATOM     20  C   UNL     1      48.576   7.990  16.908  0.00  0.00    +0.000 A 
ATOM     21  C   UNL     1      48.926   6.883  16.121  0.00  0.00    +0.000 A 
ATOM     22  C   UNL     1      49.178   7.113  14.753  0.00  0.00    +0.000 A 
BRANCH  21  23
ATOM     23  C   UNL     1      48.949   5.513  16.680  0.00  0.00    +0.000 A 
ATOM     24  C   UNL     1      47.860   4.646  16.505  0.00  0.00    +0.000 A 
ATOM     25  C   UNL     1      47.934   3.351  16.991  0.00  0.00    +0.000 A 
ATOM     26  N   UNL     1      49.005   2.852  17.637  0.00  0.00    +0.000 NA
ATOM     27  C   UNL     1      50.045   3.692  17.808  0.00  0.00    +0.000 A 
ATOM     28  C   UNL     1      50.064   5.006  17.360  0.00  0.00    +0.000 A 
ENDBRANCH  21  23
ENDBRANCH   1  17
TORSDOF 4
ENDMDL
