MODEL 1
REMARK VINA RESULT:    -7.920      0.000      0.000
REMARK INTER + INTRA:         -12.239
REMARK INTER:                 -11.624
REMARK INTRA:                  -0.615
REMARK UNBOUND:                -0.615
REMARK  Name = 
REMARK  10 active torsions:
REMARK  status: ('A' for Active; 'I' for Inactive)
REMARK    1  A    between atoms: C_1  and  C_2
REMARK    2  A    between atoms: C_2  and  N_3
REMARK    3  A    between atoms: C_2  and  C_20
REMARK    4  A    between atoms: N_3  and  C_4
REMARK    5  A    between atoms: C_4  and  C_5
REMARK    6  A    between atoms: C_8  and  C_9
REMARK    7  A    between atoms: C_9  and  N_10
REMARK    8  A    between atoms: N_10  and  C_11
REMARK    9  A    between atoms: C_11  and  C_12
REMARK   10  A    between atoms: N_15  and  C_16
REMARK                            x       y       z     vdW  Elec       q    Type
REMARK                         _______ _______ _______ _____ _____    ______ ____
ROOT
ATOM      1  C   UNL     1      47.366   5.125  14.991  0.00  0.00    +0.000 C 
ENDROOT
BRANCH   1   2
ATOM      2  C   UNL     1      46.421   4.861  13.827  0.00  0.00    +0.000 A 
ATOM      3  N   UNL     1      46.226   3.582  13.456  0.00  0.00    +0.000 NA
ATOM      4  C   UNL     1      45.329   3.371  12.475  0.00  0.00    +0.000 A 
ATOM      5  C   UNL     1      44.588   4.360  11.872  0.00  0.00    +0.000 A 
ATOM      6  C   UNL     1      44.880   5.639  12.314  0.00  0.00    +0.000 A 
ATOM      7  N   UNL     1      45.778   5.917  13.280  0.00  0.00    +0.000 NA
BRANCH   5   8
ATOM      8  C   UNL     1      43.603   4.108  10.772  0.00  0.00    +0.000 C 
BRANCH   8   9
ATOM      9  N   UNL     1      43.963   4.838   9.553  0.00  0.00    +0.000 NA
ATOM     10  H   UNL     1      43.955   5.838   9.744  0.00  0.00    +0.000 HD
BRANCH   9  11
ATOM     11  C   UNL     1      45.275   4.451   9.030  0.00  0.00    +0.000 C 
BRANCH  11  12
ATOM     12  C   UNL     1      45.123   3.248   8.082  0.00  0.00    +0.000 C 
ATOM     13  C   UNL     1      45.508   1.915   8.752  0.00  0.00    +0.000 C 
ATOM     14  C   UNL     1      46.574   1.314   7.845  0.00  0.00    +0.000 C 
ATOM     15  N   UNL     1      47.192   2.505   7.265  0.00  0.00    +0.000 NA
ATOM     16  C   UNL     1      48.083   2.197   6.159  0.00  0.00    +0.000 C 
ATOM     17  C   UNL     1      46.062   3.347   6.874  0.00  0.00    +0.000 C 
ENDBRANCH  11  12
ENDBRANCH   9  11
ENDBRANCH   8   9
ENDBRANCH   5   8
ENDBRANCH   1   2
BRANCH   1  18
ATOM     18  N   UNL     1      47.774   3.921  15.752  0.00  0.00    +0.000 NA
ATOM     19  H   UNL     1      48.789   3.948  15.850  0.00  0.00    +0.000 HD
BRANCH  18  21
ATOM     20  C   UNL     1      47.362   2.541  17.808  0.00  0.00    +0.000 C 
ATOM     21  C   UNL     1      47.165   3.890  17.085  0.00  0.00    +0.000 C 
BRANCH  21  22
ATOM     22  C   UNL     1      47.795   4.952  17.964  0.00  0.00    +0.000 A 
ATOM     23  C   UNL     1      47.088   5.803  18.802  0.00  0.00    +0.000 A 
ATOM     24  S   UNL     1      47.950   7.242  19.143  0.00  0.00    +0.000 S 
ATOM     25  C   UNL     1      49.326   6.682  18.307  0.00  0.00    +0.000 A 
ATOM     26  N   UNL     1      50.412   7.474  18.099  0.00  0.00    +0.000 NA
ATOM     27  C   UNL     1      51.401   6.872  17.524  0.00  0.00    +0.000 A 
ATOM     28  N   UNL     1      51.417   5.545  17.173  0.00  0.00    +0.000 N 
ATOM     29  C   UNL     1      50.333   4.713  17.341  0.00  0.00    +0.000 A 
ATOM     30  O   UNL     1      50.389   3.517  17.072  0.00  0.00    +0.000 OA
ATOM     31  C   UNL     1      49.169   5.373  17.896  0.00  0.00    +0.000 A 
ATOM     32  H   UNL     1      52.256   5.116  16.812  0.00  0.00    +0.000 HD
ENDBRANCH  21  22
ENDBRANCH  18  21
ENDBRANCH   1  18
TORSDOF 8
ENDMDL
MODEL 2
REMARK VINA RESULT:    -7.758      1.631      2.309
REMARK INTER + INTRA:         -12.002
REMARK INTER:                 -11.111
REMARK INTRA:                  -0.890
REMARK UNBOUND:                -0.615
REMARK  Name = 
REMARK  10 active torsions:
REMARK  status: ('A' for Active; 'I' for Inactive)
REMARK    1  A    between atoms: C_1  and  C_2
REMARK    2  A    between atoms: C_2  and  N_3
REMARK    3  A    between atoms: C_2  and  C_20
REMARK    4  A    between atoms: N_3  and  C_4
REMARK    5  A    between atoms: C_4  and  C_5
REMARK    6  A    between atoms: C_8  and  C_9
REMARK    7  A    between atoms: C_9  and  N_10
REMARK    8  A    between atoms: N_10  and  C_11
REMARK    9  A    between atoms: C_11  and  C_12
REMARK   10  A    between atoms: N_15  and  C_16
REMARK                            x       y       z     vdW  Elec       q    Type
REMARK                         _______ _______ _______ _____ _____    ______ ____
ROOT
ATOM      1  C   UNL     1      47.565   4.554  14.712  0.00  0.00    +0.000 C 
ENDROOT
BRANCH   1   2
ATOM      2  C   UNL     1      46.413   4.486  13.719  0.00  0.00    +0.000 A 
ATOM      3  N   UNL     1      45.858   5.646  13.322  0.00  0.00    +0.000 NA
ATOM      4  C   UNL     1      44.893   5.562  12.387  0.00  0.00    +0.000 A 
ATOM      5  C   UNL     1      44.480   4.390  11.798  0.00  0.00    +0.000 A 
ATOM      6  C   UNL     1      45.102   3.257  12.291  0.00  0.00    +0.000 A 
ATOM      7  N   UNL     1      46.062   3.273  13.238  0.00  0.00    +0.000 NA
BRANCH   5   8
ATOM      8  C   UNL     1      43.396   4.315  10.767  0.00  0.00    +0.000 C 
BRANCH   8   9
ATOM      9  N   UNL     1      43.824   4.907   9.496  0.00  0.00    +0.000 NA
ATOM     10  H   UNL     1      43.820   5.921   9.578  0.00  0.00    +0.000 HD
BRANCH   9  11
ATOM     11  C   UNL     1      45.155   4.456   9.084  0.00  0.00    +0.000 C 
BRANCH  11  12
ATOM     12  C   UNL     1      45.025   3.246   8.142  0.00  0.00    +0.000 C 
ATOM     13  C   UNL     1      45.392   1.918   8.831  0.00  0.00    +0.000 C 
ATOM     14  C   UNL     1      46.479   1.308   7.957  0.00  0.00    +0.000 C 
ATOM     15  N   UNL     1      47.113   2.494   7.382  0.00  0.00    +0.000 NA
ATOM     16  C   UNL     1      48.031   2.177   6.301  0.00  0.00    +0.000 C 
ATOM     17  C   UNL     1      45.994   3.334   6.957  0.00  0.00    +0.000 C 
ENDBRANCH  11  12
ENDBRANCH   9  11
ENDBRANCH   8   9
ENDBRANCH   5   8
ENDBRANCH   1   2
BRANCH   1  18
ATOM     18  N   UNL     1      47.469   5.648  15.707  0.00  0.00    +0.000 NA
ATOM     19  H   UNL     1      46.985   5.279  16.526  0.00  0.00    +0.000 HD
BRANCH  18  21
ATOM     20  C   UNL     1      49.327   7.259  15.208  0.00  0.00    +0.000 C 
ATOM     21  C   UNL     1      48.793   6.129  16.113  0.00  0.00    +0.000 C 
BRANCH  21  22
ATOM     22  C   UNL     1      48.731   6.688  17.520  0.00  0.00    +0.000 A 
ATOM     23  C   UNL     1      48.929   8.022  17.848  0.00  0.00    +0.000 A 
ATOM     24  S   UNL     1      49.424   8.224  19.474  0.00  0.00    +0.000 S 
ATOM     25  C   UNL     1      49.235   6.561  19.797  0.00  0.00    +0.000 A 
ATOM     26  N   UNL     1      49.608   6.013  20.984  0.00  0.00    +0.000 NA
ATOM     27  C   UNL     1      49.319   4.758  21.100  0.00  0.00    +0.000 A 
ATOM     28  N   UNL     1      48.660   4.013  20.153  0.00  0.00    +0.000 N 
ATOM     29  C   UNL     1      48.288   4.518  18.928  0.00  0.00    +0.000 A 
ATOM     30  O   UNL     1      47.650   3.850  18.121  0.00  0.00    +0.000 OA
ATOM     31  C   UNL     1      48.678   5.898  18.721  0.00  0.00    +0.000 A 
ATOM     32  H   UNL     1      48.383   3.061  20.345  0.00  0.00    +0.000 HD
ENDBRANCH  21  22
ENDBRANCH  18  21
ENDBRANCH   1  18
TORSDOF 8
ENDMDL
MODEL 3
REMARK VINA RESULT:    -7.626      2.154      3.024
REMARK INTER + INTRA:         -11.808
REMARK INTER:                 -11.355
REMARK INTRA:                  -0.454
REMARK UNBOUND:                -0.615
REMARK  Name = 
REMARK  10 active torsions:
REMARK  status: ('A' for Active; 'I' for Inactive)
REMARK    1  A    between atoms: C_1  and  C_2
REMARK    2  A    between atoms: C_2  and  N_3
REMARK    3  A    between atoms: C_2  and  C_20
REMARK    4  A    between atoms: N_3  and  C_4
REMARK    5  A    between atoms: C_4  and  C_5
REMARK    6  A    between atoms: C_8  and  C_9
REMARK    7  A    between atoms: C_9  and  N_10
REMARK    8  A    between atoms: N_10  and  C_11
REMARK    9  A    between atoms: C_11  and  C_12
REMARK   10  A    between atoms: N_15  and  C_16
REMARK                            x       y       z     vdW  Elec       q    Type
REMARK                         _______ _______ _______ _____ _____    ______ ____
ROOT
ATOM      1  C   UNL     1      47.370   3.989  15.898  0.00  0.00    +0.000 C 
ENDROOT
BRANCH   1   2
ATOM      2  C   UNL     1      46.863   4.661  14.630  0.00  0.00    +0.000 A 
ATOM      3  N   UNL     1      47.324   5.894  14.347  0.00  0.00    +0.000 NA
ATOM      4  C   UNL     1      46.918   6.434  13.182  0.00  0.00    +0.000 A 
ATOM      5  C   UNL     1      46.112   5.798  12.268  0.00  0.00    +0.000 A 
ATOM      6  C   UNL     1      45.680   4.545  12.666  0.00  0.00    +0.000 A 
ATOM      7  N   UNL     1      46.037   3.956  13.826  0.00  0.00    +0.000 NA
BRANCH   5   8
ATOM      8  C   UNL     1      45.661   6.420  10.982  0.00  0.00    +0.000 C 
BRANCH   8   9
ATOM      9  N   UNL     1      44.939   5.456  10.146  0.00  0.00    +0.000 NA
ATOM     10  H   UNL     1      44.060   5.868   9.839  0.00  0.00    +0.000 HD
BRANCH   9  11
ATOM     11  C   UNL     1      45.713   5.032   8.978  0.00  0.00    +0.000 C 
BRANCH  11  12
ATOM     12  C   UNL     1      45.005   3.854   8.285  0.00  0.00    +0.000 C 
ATOM     13  C   UNL     1      44.576   2.756   9.277  0.00  0.00    +0.000 C 
ATOM     14  C   UNL     1      45.213   1.477   8.747  0.00  0.00    +0.000 C 
ATOM     15  N   UNL     1      46.407   1.985   8.073  0.00  0.00    +0.000 NA
ATOM     16  C   UNL     1      47.066   0.979   7.257  0.00  0.00    +0.000 C 
ATOM     17  C   UNL     1      45.927   3.129   7.298  0.00  0.00    +0.000 C 
ENDBRANCH  11  12
ENDBRANCH   9  11
ENDBRANCH   8   9
ENDBRANCH   5   8
ENDBRANCH   1   2
BRANCH   1  18
ATOM     18  N   UNL     1      48.032   4.896  16.865  0.00  0.00    +0.000 NA
ATOM     19  H   UNL     1      47.915   4.493  17.795  0.00  0.00    +0.000 HD
BRANCH  18  21
ATOM     20  C   UNL     1      49.907   6.506  16.429  0.00  0.00    +0.000 C 
ATOM     21  C   UNL     1      49.464   5.036  16.582  0.00  0.00    +0.000 C 
BRANCH  21  22
ATOM     22  C   UNL     1      50.275   4.453  17.721  0.00  0.00    +0.000 A 
ATOM     23  C   UNL     1      50.734   5.174  18.814  0.00  0.00    +0.000 A 
ATOM     24  S   UNL     1      52.095   4.443  19.551  0.00  0.00    +0.000 S 
ATOM     25  C   UNL     1      51.995   3.089  18.521  0.00  0.00    +0.000 A 
ATOM     26  N   UNL     1      52.941   2.113  18.524  0.00  0.00    +0.000 NA
ATOM     27  C   UNL     1      52.673   1.115  17.746  0.00  0.00    +0.000 A 
ATOM     28  N   UNL     1      51.529   0.989  16.996  0.00  0.00    +0.000 N 
ATOM     29  C   UNL     1      50.558   1.962  16.942  0.00  0.00    +0.000 A 
ATOM     30  O   UNL     1      49.519   1.803  16.310  0.00  0.00    +0.000 OA
ATOM     31  C   UNL     1      50.865   3.141  17.727  0.00  0.00    +0.000 A 
ATOM     32  H   UNL     1      51.340   0.141  16.482  0.00  0.00    +0.000 HD
ENDBRANCH  21  22
ENDBRANCH  18  21
ENDBRANCH   1  18
TORSDOF 8
ENDMDL
MODEL 4
REMARK VINA RESULT:    -7.338      1.879      2.910
REMARK INTER + INTRA:         -11.384
REMARK INTER:                 -10.891
REMARK INTRA:                  -0.493
REMARK UNBOUND:                -0.615
REMARK  Name = 
REMARK  10 active torsions:
REMARK  status: ('A' for Active; 'I' for Inactive)
REMARK    1  A    between atoms: C_1  and  C_2
REMARK    2  A    between atoms: C_2  and  N_3
REMARK    3  A    between atoms: C_2  and  C_20
REMARK    4  A    between atoms: N_3  and  C_4
REMARK    5  A    between atoms: C_4  and  C_5
REMARK    6  A    between atoms: C_8  and  C_9
REMARK    7  A    between atoms: C_9  and  N_10
REMARK    8  A    between atoms: N_10  and  C_11
REMARK    9  A    between atoms: C_11  and  C_12
REMARK   10  A    between atoms: N_15  and  C_16
REMARK                            x       y       z     vdW  Elec       q    Type
REMARK                         _______ _______ _______ _____ _____    ______ ____
ROOT
ATOM      1  C   UNL     1      48.115   7.125  13.735  0.00  0.00    +0.000 C 
ENDROOT
BRANCH   1   2
ATOM      2  C   UNL     1      46.883   6.512  13.084  0.00  0.00    +0.000 A 
ATOM      3  N   UNL     1      46.149   7.295  12.271  0.00  0.00    +0.000 NA
ATOM      4  C   UNL     1      45.110   6.708  11.649  0.00  0.00    +0.000 A 
ATOM      5  C   UNL     1      44.786   5.376  11.763  0.00  0.00    +0.000 A 
ATOM      6  C   UNL     1      45.592   4.668  12.637  0.00  0.00    +0.000 A 
ATOM      7  N   UNL     1      46.637   5.201  13.301  0.00  0.00    +0.000 NA
BRANCH   5   8
ATOM      8  C   UNL     1      43.617   4.742  11.072  0.00  0.00    +0.000 C 
BRANCH   8   9
ATOM      9  N   UNL     1      43.758   4.805   9.614  0.00  0.00    +0.000 NA
ATOM     10  H   UNL     1      43.558   5.751   9.297  0.00  0.00    +0.000 HD
BRANCH   9  11
ATOM     11  C   UNL     1      45.093   4.410   9.160  0.00  0.00    +0.000 C 
BRANCH  11  12
ATOM     12  C   UNL     1      44.980   3.227   8.181  0.00  0.00    +0.000 C 
ATOM     13  C   UNL     1      45.326   1.879   8.841  0.00  0.00    +0.000 C 
ATOM     14  C   UNL     1      46.431   1.289   7.973  0.00  0.00    +0.000 C 
ATOM     15  N   UNL     1      47.082   2.488   7.447  0.00  0.00    +0.000 NA
ATOM     16  C   UNL     1      48.022   2.197   6.378  0.00  0.00    +0.000 C 
ATOM     17  C   UNL     1      45.975   3.345   7.021  0.00  0.00    +0.000 C 
ENDBRANCH  11  12
ENDBRANCH   9  11
ENDBRANCH   8   9
ENDBRANCH   5   8
ENDBRANCH   1   2
BRANCH   1  18
ATOM     18  N   UNL     1      48.717   6.316  14.821  0.00  0.00    +0.000 NA
ATOM     19  H   UNL     1      49.327   5.623  14.386  0.00  0.00    +0.000 HD
BRANCH  18  21
ATOM     20  C   UNL     1      48.644   8.073  16.611  0.00  0.00    +0.000 C 
ATOM     21  C   UNL     1      49.510   7.143  15.736  0.00  0.00    +0.000 C 
BRANCH  21  22
ATOM     22  C   UNL     1      50.294   6.258  16.683  0.00  0.00    +0.000 A 
ATOM     23  C   UNL     1      51.582   6.524  17.127  0.00  0.00    +0.000 A 
ATOM     24  S   UNL     1      52.404   5.108  17.625  0.00  0.00    +0.000 S 
ATOM     25  C   UNL     1      51.011   4.153  17.397  0.00  0.00    +0.000 A 
ATOM     26  N   UNL     1      51.040   2.799  17.525  0.00  0.00    +0.000 NA
ATOM     27  C   UNL     1      49.883   2.233  17.404  0.00  0.00    +0.000 A 
ATOM     28  N   UNL     1      48.699   2.899  17.205  0.00  0.00    +0.000 N 
ATOM     29  C   UNL     1      48.626   4.264  17.044  0.00  0.00    +0.000 A 
ATOM     30  O   UNL     1      47.551   4.844  16.924  0.00  0.00    +0.000 OA
ATOM     31  C   UNL     1      49.913   4.928  17.078  0.00  0.00    +0.000 A 
ATOM     32  H   UNL     1      47.820   2.404  17.213  0.00  0.00    +0.000 HD
ENDBRANCH  21  22
ENDBRANCH  18  21
ENDBRANCH   1  18
TORSDOF 8
ENDMDL
MODEL 5
REMARK VINA RESULT:    -7.333      1.772      2.490
REMARK INTER + INTRA:         -11.377
REMARK INTER:                 -10.446
REMARK INTRA:                  -0.931
REMARK UNBOUND:                -0.615
REMARK  Name = 
REMARK  10 active torsions:
REMARK  status: ('A' for Active; 'I' for Inactive)
REMARK    1  A    between atoms: C_1  and  C_2
REMARK    2  A    between atoms: C_2  and  N_3
REMARK    3  A    between atoms: C_2  and  C_20
REMARK    4  A    between atoms: N_3  and  C_4
REMARK    5  A    between atoms: C_4  and  C_5
REMARK    6  A    between atoms: C_8  and  C_9
REMARK    7  A    between atoms: C_9  and  N_10
REMARK    8  A    between atoms: N_10  and  C_11
REMARK    9  A    between atoms: C_11  and  C_12
REMARK   10  A    between atoms: N_15  and  C_16
REMARK                            x       y       z     vdW  Elec       q    Type
REMARK                         _______ _______ _______ _____ _____    ______ ____
ROOT
ATOM      1  C   UNL     1      47.225   4.691  14.802  0.00  0.00    +0.000 C 
ENDROOT
BRANCH   1   2
ATOM      2  C   UNL     1      46.164   4.636  13.712  0.00  0.00    +0.000 A 
ATOM      3  N   UNL     1      45.604   5.797  13.324  0.00  0.00    +0.000 NA
ATOM      4  C   UNL     1      44.724   5.730  12.307  0.00  0.00    +0.000 A 
ATOM      5  C   UNL     1      44.402   4.576  11.632  0.00  0.00    +0.000 A 
ATOM      6  C   UNL     1      45.019   3.439  12.123  0.00  0.00    +0.000 A 
ATOM      7  N   UNL     1      45.896   3.438  13.148  0.00  0.00    +0.000 NA
BRANCH   5   8
ATOM      8  C   UNL     1      43.411   4.518  10.510  0.00  0.00    +0.000 C 
BRANCH   8   9
ATOM      9  N   UNL     1      43.761   3.476   9.541  0.00  0.00    +0.000 NA
ATOM     10  H   UNL     1      42.917   2.983   9.256  0.00  0.00    +0.000 HD
BRANCH   9  11
ATOM     11  C   UNL     1      44.437   4.010   8.357  0.00  0.00    +0.000 C 
BRANCH  11  12
ATOM     12  C   UNL     1      45.923   3.609   8.381  0.00  0.00    +0.000 C 
ATOM     13  C   UNL     1      46.583   3.702   6.993  0.00  0.00    +0.000 C 
ATOM     14  C   UNL     1      47.170   2.320   6.743  0.00  0.00    +0.000 C 
ATOM     15  N   UNL     1      46.268   1.460   7.508  0.00  0.00    +0.000 NA
ATOM     16  C   UNL     1      46.763   0.100   7.642  0.00  0.00    +0.000 C 
ATOM     17  C   UNL     1      46.116   2.144   8.791  0.00  0.00    +0.000 C 
ENDBRANCH  11  12
ENDBRANCH   9  11
ENDBRANCH   8   9
ENDBRANCH   5   8
ENDBRANCH   1   2
BRANCH   1  18
ATOM     18  N   UNL     1      47.542   3.388  15.433  0.00  0.00    +0.000 NA
ATOM     19  H   UNL     1      48.307   2.967  14.905  0.00  0.00    +0.000 HD
BRANCH  18  21
ATOM     20  C   UNL     1      47.237   2.582  17.790  0.00  0.00    +0.000 C 
ATOM     21  C   UNL     1      47.958   3.550  16.830  0.00  0.00    +0.000 C 
BRANCH  21  22
ATOM     22  C   UNL     1      49.442   3.271  16.962  0.00  0.00    +0.000 A 
ATOM     23  C   UNL     1      50.021   2.014  16.857  0.00  0.00    +0.000 A 
ATOM     24  S   UNL     1      51.530   1.926  17.659  0.00  0.00    +0.000 S 
ATOM     25  C   UNL     1      51.498   3.591  18.022  0.00  0.00    +0.000 A 
ATOM     26  N   UNL     1      52.442   4.172  18.810  0.00  0.00    +0.000 NA
ATOM     27  C   UNL     1      52.321   5.456  18.917  0.00  0.00    +0.000 A 
ATOM     28  N   UNL     1      51.369   6.212  18.279  0.00  0.00    +0.000 N 
ATOM     29  C   UNL     1      50.380   5.664  17.494  0.00  0.00    +0.000 A 
ATOM     30  O   UNL     1      49.575   6.363  16.888  0.00  0.00    +0.000 OA
ATOM     31  C   UNL     1      50.422   4.217  17.425  0.00  0.00    +0.000 A 
ATOM     32  H   UNL     1      51.389   7.219  18.332  0.00  0.00    +0.000 HD
ENDBRANCH  21  22
ENDBRANCH  18  21
ENDBRANCH   1  18
TORSDOF 8
ENDMDL
MODEL 6
REMARK VINA RESULT:    -7.036      2.391      4.015
REMARK INTER + INTRA:         -10.942
REMARK INTER:                  -9.526
REMARK INTRA:                  -1.415
REMARK UNBOUND:                -0.615
REMARK  Name = 
REMARK  10 active torsions:
REMARK  status: ('A' for Active; 'I' for Inactive)
REMARK    1  A    between atoms: C_1  and  C_2
REMARK    2  A    between atoms: C_2  and  N_3
REMARK    3  A    between atoms: C_2  and  C_20
REMARK    4  A    between atoms: N_3  and  C_4
REMARK    5  A    between atoms: C_4  and  C_5
REMARK    6  A    between atoms: C_8  and  C_9
REMARK    7  A    between atoms: C_9  and  N_10
REMARK    8  A    between atoms: N_10  and  C_11
REMARK    9  A    between atoms: C_11  and  C_12
REMARK   10  A    between atoms: N_15  and  C_16
REMARK                            x       y       z     vdW  Elec       q    Type
REMARK                         _______ _______ _______ _____ _____    ______ ____
ROOT
ATOM      1  C   UNL     1      49.305   7.557  16.650  0.00  0.00    +0.000 C 
ENDROOT
BRANCH   1   2
ATOM      2  C   UNL     1      48.704   7.301  15.275  0.00  0.00    +0.000 A 
ATOM      3  N   UNL     1      48.448   6.025  14.931  0.00  0.00    +0.000 NA
ATOM      4  C   UNL     1      47.848   5.832  13.742  0.00  0.00    +0.000 A 
ATOM      5  C   UNL     1      47.453   6.842  12.897  0.00  0.00    +0.000 A 
ATOM      6  C   UNL     1      47.779   8.113  13.338  0.00  0.00    +0.000 A 
ATOM      7  N   UNL     1      48.394   8.370  14.509  0.00  0.00    +0.000 NA
BRANCH   5   8
ATOM      8  C   UNL     1      46.796   6.608  11.570  0.00  0.00    +0.000 C 
BRANCH   8   9
ATOM      9  N   UNL     1      45.720   5.617  11.674  0.00  0.00    +0.000 NA
ATOM     10  H   UNL     1      45.763   5.167  12.586  0.00  0.00    +0.000 HD
BRANCH   9  11
ATOM     11  C   UNL     1      44.393   6.204  11.480  0.00  0.00    +0.000 C 
BRANCH  11  12
ATOM     12  C   UNL     1      43.417   5.126  10.975  0.00  0.00    +0.000 C 
ATOM     13  C   UNL     1      43.184   4.008  12.010  0.00  0.00    +0.000 C 
ATOM     14  C   UNL     1      43.531   2.718  11.279  0.00  0.00    +0.000 C 
ATOM     15  N   UNL     1      44.531   3.170  10.313  0.00  0.00    +0.000 NA
ATOM     16  C   UNL     1      44.843   2.165   9.311  0.00  0.00    +0.000 C 
ATOM     17  C   UNL     1      43.959   4.391   9.744  0.00  0.00    +0.000 C 
ENDBRANCH  11  12
ENDBRANCH   9  11
ENDBRANCH   8   9
ENDBRANCH   5   8
ENDBRANCH   1   2
BRANCH   1  18
ATOM     18  N   UNL     1      48.444   7.168  17.792  0.00  0.00    +0.000 NA
ATOM     19  H   UNL     1      47.836   6.412  17.476  0.00  0.00    +0.000 HD
BRANCH  18  21
ATOM     20  C   UNL     1      48.445   6.694  20.257  0.00  0.00    +0.000 C 
ATOM     21  C   UNL     1      49.236   6.698  18.932  0.00  0.00    +0.000 C 
BRANCH  21  22
ATOM     22  C   UNL     1      49.692   5.273  18.692  0.00  0.00    +0.000 A 
ATOM     23  C   UNL     1      50.969   4.798  18.955  0.00  0.00    +0.000 A 
ATOM     24  S   UNL     1      51.353   3.415  18.022  0.00  0.00    +0.000 S 
ATOM     25  C   UNL     1      49.777   3.345  17.376  0.00  0.00    +0.000 A 
ATOM     26  N   UNL     1      49.440   2.460  16.400  0.00  0.00    +0.000 NA
ATOM     27  C   UNL     1      48.186   2.479  16.081  0.00  0.00    +0.000 A 
ATOM     28  N   UNL     1      47.237   3.274  16.674  0.00  0.00    +0.000 N 
ATOM     29  C   UNL     1      47.536   4.201  17.646  0.00  0.00    +0.000 A 
ATOM     30  O   UNL     1      46.663   4.860  18.201  0.00  0.00    +0.000 OA
ATOM     31  C   UNL     1      48.947   4.279  17.966  0.00  0.00    +0.000 A 
ATOM     32  H   UNL     1      46.260   3.172  16.441  0.00  0.00    +0.000 HD
ENDBRANCH  21  22
ENDBRANCH  18  21
ENDBRANCH   1  18
TORSDOF 8
ENDMDL
MODEL 7
REMARK VINA RESULT:    -6.842      2.368      4.086
REMARK INTER + INTRA:         -10.656
REMARK INTER:                  -8.873
REMARK INTRA:                  -1.783
REMARK UNBOUND:                -0.615
REMARK  Name = 
REMARK  10 active torsions:
REMARK  status: ('A' for Active; 'I' for Inactive)
REMARK    1  A    between atoms: C_1  and  C_2
REMARK    2  A    between atoms: C_2  and  N_3
REMARK    3  A    between atoms: C_2  and  C_20
REMARK    4  A    between atoms: N_3  and  C_4
REMARK    5  A    between atoms: C_4  and  C_5
REMARK    6  A    between atoms: C_8  and  C_9
REMARK    7  A    between atoms: C_9  and  N_10
REMARK    8  A    between atoms: N_10  and  C_11
REMARK    9  A    between atoms: C_11  and  C_12
REMARK   10  A    between atoms: N_15  and  C_16
REMARK                            x       y       z     vdW  Elec       q    Type
REMARK                         _______ _______ _______ _____ _____    ______ ____
ROOT
ATOM      1  C   UNL     1      49.151   7.743  13.666  0.00  0.00    +0.000 C 
ENDROOT
BRANCH   1   2
ATOM      2  C   UNL     1      47.755   7.688  13.063  0.00  0.00    +0.000 A 
ATOM      3  N   UNL     1      46.834   8.549  13.534  0.00  0.00    +0.000 NA
ATOM      4  C   UNL     1      45.630   8.531  12.931  0.00  0.00    +0.000 A 
ATOM      5  C   UNL     1      45.307   7.730  11.861  0.00  0.00    +0.000 A 
ATOM      6  C   UNL     1      46.319   6.871  11.469  0.00  0.00    +0.000 A 
ATOM      7  N   UNL     1      47.539   6.829  12.042  0.00  0.00    +0.000 NA
BRANCH   5   8
ATOM      8  C   UNL     1      43.958   7.714  11.210  0.00  0.00    +0.000 C 
BRANCH   8   9
ATOM      9  N   UNL     1      43.470   6.344  11.024  0.00  0.00    +0.000 NA
ATOM     10  H   UNL     1      44.255   5.732  10.815  0.00  0.00    +0.000 HD
BRANCH   9  11
ATOM     11  C   UNL     1      42.754   5.836  12.196  0.00  0.00    +0.000 C 
BRANCH  11  12
ATOM     12  C   UNL     1      43.177   4.383  12.474  0.00  0.00    +0.000 C 
ATOM     13  C   UNL     1      44.588   4.284  13.084  0.00  0.00    +0.000 C 
ATOM     14  C   UNL     1      45.354   3.352  12.155  0.00  0.00    +0.000 C 
ATOM     15  N   UNL     1      44.694   3.586  10.871  0.00  0.00    +0.000 NA
ATOM     16  C   UNL     1      45.075   2.619   9.855  0.00  0.00    +0.000 C 
ATOM     17  C   UNL     1      43.266   3.554  11.187  0.00  0.00    +0.000 C 
ENDBRANCH  11  12
ENDBRANCH   9  11
ENDBRANCH   8   9
ENDBRANCH   5   8
ENDBRANCH   1   2
BRANCH   1  18
ATOM     18  N   UNL     1      49.192   7.773  15.148  0.00  0.00    +0.000 NA
ATOM     19  H   UNL     1      48.248   7.587  15.486  0.00  0.00    +0.000 HD
BRANCH  18  21
ATOM     20  C   UNL     1      51.514   7.302  15.975  0.00  0.00    +0.000 C 
ATOM     21  C   UNL     1      50.101   6.756  15.684  0.00  0.00    +0.000 C 
BRANCH  21  22
ATOM     22  C   UNL     1      49.561   6.221  16.995  0.00  0.00    +0.000 A 
ATOM     23  C   UNL     1      50.039   6.578  18.249  0.00  0.00    +0.000 A 
ATOM     24  S   UNL     1      49.703   5.389  19.434  0.00  0.00    +0.000 S 
ATOM     25  C   UNL     1      48.792   4.465  18.329  0.00  0.00    +0.000 A 
ATOM     26  N   UNL     1      48.304   3.237  18.651  0.00  0.00    +0.000 NA
ATOM     27  C   UNL     1      47.564   2.706  17.732  0.00  0.00    +0.000 A 
ATOM     28  N   UNL     1      47.239   3.306  16.541  0.00  0.00    +0.000 N 
ATOM     29  C   UNL     1      47.731   4.535  16.162  0.00  0.00    +0.000 A 
ATOM     30  O   UNL     1      47.382   5.076  15.119  0.00  0.00    +0.000 OA
ATOM     31  C   UNL     1      48.641   5.123  17.124  0.00  0.00    +0.000 A 
ATOM     32  H   UNL     1      46.581   2.876  15.908  0.00  0.00    +0.000 HD
ENDBRANCH  21  22
ENDBRANCH  18  21
ENDBRANCH   1  18
TORSDOF 8
ENDMDL
MODEL 8
REMARK VINA RESULT:    -6.788      3.353      8.897
REMARK INTER + INTRA:         -10.578
REMARK INTER:                  -9.217
REMARK INTRA:                  -1.360
REMARK UNBOUND:                -0.615
REMARK  Name = 
REMARK  10 active torsions:
REMARK  status: ('A' for Active; 'I' for Inactive)
REMARK    1  A    between atoms: C_1  and  C_2
REMARK    2  A    between atoms: C_2  and  N_3
REMARK    3  A    between atoms: C_2  and  C_20
REMARK    4  A    between atoms: N_3  and  C_4
REMARK    5  A    between atoms: C_4  and  C_5
REMARK    6  A    between atoms: C_8  and  C_9
REMARK    7  A    between atoms: C_9  and  N_10
REMARK    8  A    between atoms: N_10  and  C_11
REMARK    9  A    between atoms: C_11  and  C_12
REMARK   10  A    between atoms: N_15  and  C_16
REMARK                            x       y       z     vdW  Elec       q    Type
REMARK                         _______ _______ _______ _____ _____    ______ ____
ROOT
ATOM      1  C   UNL     1      48.206   6.702  12.686  0.00  0.00    +0.000 C 
ENDROOT
BRANCH   1   2
ATOM      2  C   UNL     1      48.522   7.269  14.063  0.00  0.00    +0.000 A 
ATOM      3  N   UNL     1      49.394   6.594  14.833  0.00  0.00    +0.000 NA
ATOM      4  C   UNL     1      49.714   7.156  16.014  0.00  0.00    +0.000 A 
ATOM      5  C   UNL     1      49.241   8.371  16.451  0.00  0.00    +0.000 A 
ATOM      6  C   UNL     1      48.337   8.972  15.591  0.00  0.00    +0.000 A 
ATOM      7  N   UNL     1      47.965   8.453  14.404  0.00  0.00    +0.000 NA
BRANCH   5   8
ATOM      8  C   UNL     1      49.598   8.976  17.774  0.00  0.00    +0.000 C 
BRANCH   8   9
ATOM      9  N   UNL     1      49.374   8.030  18.872  0.00  0.00    +0.000 NA
ATOM     10  H   UNL     1      49.783   8.402  19.726  0.00  0.00    +0.000 HD
BRANCH   9  11
ATOM     11  C   UNL     1      47.954   7.749  19.093  0.00  0.00    +0.000 C 
BRANCH  11  12
ATOM     12  C   UNL     1      47.780   6.292  19.557  0.00  0.00    +0.000 C 
ATOM     13  C   UNL     1      49.102   5.502  19.538  0.00  0.00    +0.000 C 
ATOM     14  C   UNL     1      48.820   4.284  18.669  0.00  0.00    +0.000 C 
ATOM     15  N   UNL     1      47.793   4.787  17.758  0.00  0.00    +0.000 NA
ATOM     16  C   UNL     1      47.162   3.733  16.980  0.00  0.00    +0.000 C 
ATOM     17  C   UNL     1      46.855   5.499  18.626  0.00  0.00    +0.000 C 
ENDBRANCH  11  12
ENDBRANCH   9  11
ENDBRANCH   8   9
ENDBRANCH   5   8
ENDBRANCH   1   2
BRANCH   1  18
ATOM     18  N   UNL     1      47.285   7.525  11.866  0.00  0.00    +0.000 NA
ATOM     19  H   UNL     1      47.588   7.452  10.895  0.00  0.00    +0.000 HD
BRANCH  18  21
ATOM     20  C   UNL     1      44.873   8.084  11.458  0.00  0.00    +0.000 C 
ATOM     21  C   UNL     1      45.901   7.054  11.971  0.00  0.00    +0.000 C 
BRANCH  21  22
ATOM     22  C   UNL     1      45.717   5.801  11.138  0.00  0.00    +0.000 A 
ATOM     23  C   UNL     1      45.950   5.721   9.772  0.00  0.00    +0.000 A 
ATOM     24  S   UNL     1      45.077   4.445   9.039  0.00  0.00    +0.000 S 
ATOM     25  C   UNL     1      44.502   3.897  10.546  0.00  0.00    +0.000 A 
ATOM     26  N   UNL     1      43.589   2.893  10.645  0.00  0.00    +0.000 NA
ATOM     27  C   UNL     1      43.322   2.541  11.861  0.00  0.00    +0.000 A 
ATOM     28  N   UNL     1      43.912   3.074  12.981  0.00  0.00    +0.000 N 
ATOM     29  C   UNL     1      44.820   4.106  12.930  0.00  0.00    +0.000 A 
ATOM     30  O   UNL     1      45.376   4.527  13.939  0.00  0.00    +0.000 OA
ATOM     31  C   UNL     1      45.076   4.596  11.590  0.00  0.00    +0.000 A 
ATOM     32  H   UNL     1      43.726   2.688  13.895  0.00  0.00    +0.000 HD
ENDBRANCH  21  22
ENDBRANCH  18  21
ENDBRANCH   1  18
TORSDOF 8
ENDMDL
MODEL 9
REMARK VINA RESULT:    -6.546      3.248      8.838
REMARK INTER + INTRA:         -10.223
REMARK INTER:                  -8.902
REMARK INTRA:                  -1.321
REMARK UNBOUND:                -0.615
REMARK  Name = 
REMARK  10 active torsions:
REMARK  status: ('A' for Active; 'I' for Inactive)
REMARK    1  A    between atoms: C_1  and  C_2
REMARK    2  A    between atoms: C_2  and  N_3
REMARK    3  A    between atoms: C_2  and  C_20
REMARK    4  A    between atoms: N_3  and  C_4
REMARK    5  A    between atoms: C_4  and  C_5
REMARK    6  A    between atoms: C_8  and  C_9
REMARK    7  A    between atoms: C_9  and  N_10
REMARK    8  A    between atoms: N_10  and  C_11
REMARK    9  A    between atoms: C_11  and  C_12
REMARK   10  A    between atoms: N_15  and  C_16
REMARK                            x       y       z     vdW  Elec       q    Type
REMARK                         _______ _______ _______ _____ _____    ______ ____
ROOT
ATOM      1  C   UNL     1      47.686   7.297  11.822  0.00  0.00    +0.000 C 
ENDROOT
BRANCH   1   2
ATOM      2  C   UNL     1      48.174   7.578  13.236  0.00  0.00    +0.000 A 
ATOM      3  N   UNL     1      47.743   8.704  13.835  0.00  0.00    +0.000 NA
ATOM      4  C   UNL     1      48.128   8.890  15.112  0.00  0.00    +0.000 A 
ATOM      5  C   UNL     1      48.885   7.999  15.834  0.00  0.00    +0.000 A 
ATOM      6  C   UNL     1      49.289   6.886  15.118  0.00  0.00    +0.000 A 
ATOM      7  N   UNL     1      48.951   6.649  13.835  0.00  0.00    +0.000 NA
BRANCH   5   8
ATOM      8  C   UNL     1      49.315   8.229  17.251  0.00  0.00    +0.000 C 
BRANCH   8   9
ATOM      9  N   UNL     1      49.355   6.974  18.009  0.00  0.00    +0.000 NA
ATOM     10  H   UNL     1      50.224   6.926  18.536  0.00  0.00    +0.000 HD
BRANCH   9  11
ATOM     11  C   UNL     1      48.220   6.831  18.923  0.00  0.00    +0.000 C 
BRANCH  11  12
ATOM     12  C   UNL     1      47.857   5.343  19.073  0.00  0.00    +0.000 C 
ATOM     13  C   UNL     1      49.097   4.448  19.263  0.00  0.00    +0.000 C 
ATOM     14  C   UNL     1      49.002   3.405  18.157  0.00  0.00    +0.000 C 
ATOM     15  N   UNL     1      48.284   4.131  17.111  0.00  0.00    +0.000 NA
ATOM     16  C   UNL     1      47.837   3.268  16.030  0.00  0.00    +0.000 C 
ATOM     17  C   UNL     1      47.182   4.787  17.815  0.00  0.00    +0.000 C 
ENDBRANCH  11  12
ENDBRANCH   9  11
ENDBRANCH   8   9
ENDBRANCH   5   8
ENDBRANCH   1   2
BRANCH   1  18
ATOM     18  N   UNL     1      46.891   6.056  11.669  0.00  0.00    +0.000 NA
ATOM     19  H   UNL     1      47.312   5.344  12.267  0.00  0.00    +0.000 HD
BRANCH  18  21
ATOM     20  C   UNL     1      44.879   7.547  11.501  0.00  0.00    +0.000 C 
ATOM     21  C   UNL     1      45.495   6.253  12.073  0.00  0.00    +0.000 C 
BRANCH  21  22
ATOM     22  C   UNL     1      44.644   5.105  11.570  0.00  0.00    +0.000 A 
ATOM     23  C   UNL     1      43.670   4.459  12.317  0.00  0.00    +0.000 A 
ATOM     24  S   UNL     1      43.359   2.875  11.749  0.00  0.00    +0.000 S 
ATOM     25  C   UNL     1      44.403   3.087  10.419  0.00  0.00    +0.000 A 
ATOM     26  N   UNL     1      44.704   2.067   9.572  0.00  0.00    +0.000 NA
ATOM     27  C   UNL     1      45.441   2.414   8.568  0.00  0.00    +0.000 A 
ATOM     28  N   UNL     1      45.872   3.694   8.315  0.00  0.00    +0.000 N 
ATOM     29  C   UNL     1      45.613   4.751   9.156  0.00  0.00    +0.000 A 
ATOM     30  O   UNL     1      45.959   5.895   8.881  0.00  0.00    +0.000 OA
ATOM     31  C   UNL     1      44.869   4.386  10.345  0.00  0.00    +0.000 A 
ATOM     32  H   UNL     1      46.366   3.913   7.462  0.00  0.00    +0.000 HD
ENDBRANCH  21  22
ENDBRANCH  18  21
ENDBRANCH   1  18
TORSDOF 8
ENDMDL
