MODEL 1
REMARK VINA RESULT:    -7.581      0.000      0.000
REMARK INTER + INTRA:          -9.811
REMARK INTER:                  -9.354
REMARK INTRA:                  -0.458
REMARK UNBOUND:                -0.458
REMARK  Name = 
REMARK  4 active torsions:
REMARK  status: ('A' for Active; 'I' for Inactive)
REMARK    1  A    between atoms: C_2  and  C_4
REMARK    2  A    between atoms: C_7  and  N_8
REMARK    3  A    between atoms: N_8  and  C_9
REMARK    4  A    between atoms: C_9  and  C_10
REMARK                            x       y       z     vdW  Elec       q    Type
REMARK                         _______ _______ _______ _____ _____    ______ ____
ROOT
ATOM      1  C   UNL     1      46.211   2.088   8.019  0.00  0.00    +0.000 A 
ATOM      2  C   UNL     1      46.335   3.428   7.679  0.00  0.00    +0.000 A 
ATOM      3  C   UNL     1      45.485   4.344   8.296  0.00  0.00    +0.000 A 
ATOM      4  C   UNL     1      44.565   3.921   9.260  0.00  0.00    +0.000 A 
ATOM      5  C   UNL     1      44.506   2.546   9.501  0.00  0.00    +0.000 A 
ATOM      6  N   UNL     1      45.301   1.617   8.915  0.00  0.00    +0.000 NA
ENDROOT
BRANCH   1   8
ATOM      7  N   UNL     1      46.826  -0.232   7.692  0.00  0.00    +0.000 N 
ATOM      8  C   UNL     1      47.108   1.073   7.382  0.00  0.00    +0.000 C 
ATOM      9  O   UNL     1      48.029   1.375   6.634  0.00  0.00    +0.000 OA
ATOM     10  H   UNL     1      47.381  -0.972   7.290  0.00  0.00    +0.000 HD
ATOM     11  H   UNL     1      46.049  -0.439   8.309  0.00  0.00    +0.000 HD
ENDBRANCH   1   8
BRANCH   4  12
ATOM     12  N   UNL     1      43.731   4.883   9.842  0.00  0.00    +0.000 N 
ATOM     13  H   UNL     1      42.849   4.942   9.329  0.00  0.00    +0.000 HD
BRANCH  12  14
ATOM     14  C   UNL     1      43.467   4.780  11.282  0.00  0.00    +0.000 C 
BRANCH  14  15
ATOM     15  C   UNL     1      44.719   5.076  12.086  0.00  0.00    +0.000 A 
ATOM     16  C   UNL     1      45.423   6.263  11.876  0.00  0.00    +0.000 A 
ATOM     17  C   UNL     1      46.594   6.490  12.591  0.00  0.00    +0.000 A 
ATOM     18  C   UNL     1      47.036   5.530  13.494  0.00  0.00    +0.000 A 
ATOM     19  C   UNL     1      46.279   4.380  13.646  0.00  0.00    +0.000 A 
ATOM     20  N   UNL     1      45.136   4.132  12.969  0.00  0.00    +0.000 NA
ENDBRANCH  14  15
ENDBRANCH  12  14
ENDBRANCH   4  12
TORSDOF 4
ENDMDL
MODEL 2
REMARK VINA RESULT:    -7.464      2.663      5.875
REMARK INTER + INTRA:          -9.667
REMARK INTER:                  -9.349
REMARK INTRA:                  -0.317
REMARK UNBOUND:                -0.458
REMARK  Name = 
REMARK  4 active torsions:
REMARK  status: ('A' for Active; 'I' for Inactive)
REMARK    1  A    between atoms: C_2  and  C_4
REMARK    2  A    between atoms: C_7  and  N_8
REMARK    3  A    between atoms: N_8  and  C_9
REMARK    4  A    between atoms: C_9  and  C_10
REMARK                            x       y       z     vdW  Elec       q    Type
REMARK                         _______ _______ _______ _____ _____    ______ ____
ROOT
ATOM      1  C   UNL     1      46.622   4.314  13.809  0.00  0.00    +0.000 A 
ATOM      2  C   UNL     1      46.888   5.546  13.229  0.00  0.00    +0.000 A 
ATOM      3  C   UNL     1      46.258   5.855  12.025  0.00  0.00    +0.000 A 
ATOM      4  C   UNL     1      45.353   4.960  11.447  0.00  0.00    +0.000 A 
ATOM      5  C   UNL     1      45.186   3.737  12.101  0.00  0.00    +0.000 A 
ATOM      6  N   UNL     1      45.788   3.386  13.264  0.00  0.00    +0.000 NA
ENDROOT
BRANCH   1   8
ATOM      7  N   UNL     1      47.177   4.884  16.097  0.00  0.00    +0.000 N 
ATOM      8  C   UNL     1      47.275   3.945  15.104  0.00  0.00    +0.000 C 
ATOM      9  O   UNL     1      47.856   2.881  15.276  0.00  0.00    +0.000 OA
ATOM     10  H   UNL     1      47.582   4.700  17.002  0.00  0.00    +0.000 HD
ATOM     11  H   UNL     1      46.679   5.749  15.914  0.00  0.00    +0.000 HD
ENDBRANCH   1   8
BRANCH   4  12
ATOM     12  N   UNL     1      44.756   5.319  10.233  0.00  0.00    +0.000 N 
ATOM     13  H   UNL     1      45.415   5.847   9.657  0.00  0.00    +0.000 HD
BRANCH  12  14
ATOM     14  C   UNL     1      44.133   4.256   9.435  0.00  0.00    +0.000 C 
BRANCH  14  15
ATOM     15  C   UNL     1      45.168   3.528   8.598  0.00  0.00    +0.000 A 
ATOM     16  C   UNL     1      45.371   2.158   8.771  0.00  0.00    +0.000 A 
ATOM     17  C   UNL     1      46.358   1.522   8.026  0.00  0.00    +0.000 A 
ATOM     18  C   UNL     1      47.119   2.264   7.131  0.00  0.00    +0.000 A 
ATOM     19  C   UNL     1      46.853   3.618   7.016  0.00  0.00    +0.000 A 
ATOM     20  N   UNL     1      45.900   4.265   7.723  0.00  0.00    +0.000 NA
ENDBRANCH  14  15
ENDBRANCH  12  14
ENDBRANCH   4  12
TORSDOF 4
ENDMDL
MODEL 3
REMARK VINA RESULT:    -7.010      2.657      6.074
REMARK INTER + INTRA:          -9.107
REMARK INTER:                  -8.796
REMARK INTRA:                  -0.311
REMARK UNBOUND:                -0.458
REMARK  Name = 
REMARK  4 active torsions:
REMARK  status: ('A' for Active; 'I' for Inactive)
REMARK    1  A    between atoms: C_2  and  C_4
REMARK    2  A    between atoms: C_7  and  N_8
REMARK    3  A    between atoms: N_8  and  C_9
REMARK    4  A    between atoms: C_9  and  C_10
REMARK                            x       y       z     vdW  Elec       q    Type
REMARK                         _______ _______ _______ _____ _____    ______ ____
ROOT
ATOM      1  C   UNL     1      46.575   5.885  12.579  0.00  0.00    +0.000 A 
ATOM      2  C   UNL     1      45.948   4.712  12.976  0.00  0.00    +0.000 A 
ATOM      3  C   UNL     1      45.140   4.053  12.051  0.00  0.00    +0.000 A 
ATOM      4  C   UNL     1      45.004   4.545  10.750  0.00  0.00    +0.000 A 
ATOM      5  C   UNL     1      45.654   5.750  10.470  0.00  0.00    +0.000 A 
ATOM      6  N   UNL     1      46.437   6.433  11.341  0.00  0.00    +0.000 NA
ENDROOT
BRANCH   1   8
ATOM      7  N   UNL     1      46.984   7.843  13.945  0.00  0.00    +0.000 N 
ATOM      8  C   UNL     1      47.454   6.621  13.541  0.00  0.00    +0.000 C 
ATOM      9  O   UNL     1      48.518   6.171  13.947  0.00  0.00    +0.000 OA
ATOM     10  H   UNL     1      47.517   8.391  14.602  0.00  0.00    +0.000 HD
ATOM     11  H   UNL     1      46.094   8.174  13.590  0.00  0.00    +0.000 HD
ENDBRANCH   1   8
BRANCH   4  12
ATOM     12  N   UNL     1      44.174   3.848   9.865  0.00  0.00    +0.000 N 
ATOM     13  H   UNL     1      44.072   4.368   8.991  0.00  0.00    +0.000 HD
BRANCH  12  14
ATOM     14  C   UNL     1      44.502   2.446   9.578  0.00  0.00    +0.000 C 
BRANCH  14  15
ATOM     15  C   UNL     1      45.514   2.344   8.453  0.00  0.00    +0.000 A 
ATOM     16  C   UNL     1      45.660   3.394   7.544  0.00  0.00    +0.000 A 
ATOM     17  C   UNL     1      46.561   3.258   6.494  0.00  0.00    +0.000 A 
ATOM     18  C   UNL     1      47.291   2.082   6.372  0.00  0.00    +0.000 A 
ATOM     19  C   UNL     1      47.090   1.089   7.316  0.00  0.00    +0.000 A 
ATOM     20  N   UNL     1      46.225   1.192   8.349  0.00  0.00    +0.000 NA
ENDBRANCH  14  15
ENDBRANCH  12  14
ENDBRANCH   4  12
TORSDOF 4
ENDMDL
MODEL 4
REMARK VINA RESULT:    -5.677      3.666      5.652
REMARK INTER + INTRA:          -7.462
REMARK INTER:                  -7.165
REMARK INTRA:                  -0.297
REMARK UNBOUND:                -0.458
REMARK  Name = 
REMARK  4 active torsions:
REMARK  status: ('A' for Active; 'I' for Inactive)
REMARK    1  A    between atoms: C_2  and  C_4
REMARK    2  A    between atoms: C_7  and  N_8
REMARK    3  A    between atoms: N_8  and  C_9
REMARK    4  A    between atoms: C_9  and  C_10
REMARK                            x       y       z     vdW  Elec       q    Type
REMARK                         _______ _______ _______ _____ _____    ______ ____
ROOT
ATOM      1  C   UNL     1      45.139   4.216  11.598  0.00  0.00    +0.000 A 
ATOM      2  C   UNL     1      45.427   5.548  11.857  0.00  0.00    +0.000 A 
ATOM      3  C   UNL     1      46.155   5.851  13.006  0.00  0.00    +0.000 A 
ATOM      4  C   UNL     1      46.614   4.831  13.845  0.00  0.00    +0.000 A 
ATOM      5  C   UNL     1      46.239   3.530  13.504  0.00  0.00    +0.000 A 
ATOM      6  N   UNL     1      45.519   3.189  12.406  0.00  0.00    +0.000 NA
ENDROOT
BRANCH   1   8
ATOM      7  N   UNL     1      44.399   4.769   9.359  0.00  0.00    +0.000 N 
ATOM      8  C   UNL     1      44.362   3.848  10.372  0.00  0.00    +0.000 C 
ATOM      9  O   UNL     1      43.737   2.800  10.271  0.00  0.00    +0.000 OA
ATOM     10  H   UNL     1      43.909   4.584   8.496  0.00  0.00    +0.000 HD
ATOM     11  H   UNL     1      44.935   5.620   9.481  0.00  0.00    +0.000 HD
ENDBRANCH   1   8
BRANCH   4  12
ATOM     12  N   UNL     1      47.335   5.194  14.990  0.00  0.00    +0.000 N 
ATOM     13  H   UNL     1      47.145   6.168  15.232  0.00  0.00    +0.000 HD
BRANCH  12  14
ATOM     14  C   UNL     1      47.202   4.345  16.180  0.00  0.00    +0.000 C 
BRANCH  14  15
ATOM     15  C   UNL     1      48.554   3.831  16.634  0.00  0.00    +0.000 A 
ATOM     16  C   UNL     1      48.798   2.457  16.695  0.00  0.00    +0.000 A 
ATOM     17  C   UNL     1      50.029   2.009  17.159  0.00  0.00    +0.000 A 
ATOM     18  C   UNL     1      50.986   2.937  17.553  0.00  0.00    +0.000 A 
ATOM     19  C   UNL     1      50.668   4.281  17.459  0.00  0.00    +0.000 A 
ATOM     20  N   UNL     1      49.482   4.748  17.010  0.00  0.00    +0.000 NA
ENDBRANCH  14  15
ENDBRANCH  12  14
ENDBRANCH   4  12
TORSDOF 4
ENDMDL
MODEL 5
REMARK VINA RESULT:    -5.410      2.770      4.379
REMARK INTER + INTRA:          -7.132
REMARK INTER:                  -6.803
REMARK INTRA:                  -0.329
REMARK UNBOUND:                -0.458
REMARK  Name = 
REMARK  4 active torsions:
REMARK  status: ('A' for Active; 'I' for Inactive)
REMARK    1  A    between atoms: C_2  and  C_4
REMARK    2  A    between atoms: C_7  and  N_8
REMARK    3  A    between atoms: N_8  and  C_9
REMARK    4  A    between atoms: C_9  and  C_10
REMARK                            x       y       z     vdW  Elec       q    Type
REMARK                         _______ _______ _______ _____ _____    ______ ____
ROOT
ATOM      1  C   UNL     1      45.056   3.853  10.314  0.00  0.00    +0.000 A 
ATOM      2  C   UNL     1      44.994   3.203  11.538  0.00  0.00    +0.000 A 
ATOM      3  C   UNL     1      45.377   3.910  12.677  0.00  0.00    +0.000 A 
ATOM      4  C   UNL     1      45.769   5.248  12.583  0.00  0.00    +0.000 A 
ATOM      5  C   UNL     1      45.824   5.791  11.297  0.00  0.00    +0.000 A 
ATOM      6  N   UNL     1      45.477   5.138  10.160  0.00  0.00    +0.000 NA
ENDROOT
BRANCH   1   8
ATOM      7  N   UNL     1      44.571   1.767   9.182  0.00  0.00    +0.000 N 
ATOM      8  C   UNL     1      44.651   3.130   9.067  0.00  0.00    +0.000 C 
ATOM      9  O   UNL     1      44.404   3.706   8.015  0.00  0.00    +0.000 OA
ATOM     10  H   UNL     1      44.291   1.213   8.386  0.00  0.00    +0.000 HD
ATOM     11  H   UNL     1      44.775   1.331  10.074  0.00  0.00    +0.000 HD
ENDBRANCH   1   8
BRANCH   4  12
ATOM     12  N   UNL     1      46.150   5.907  13.758  0.00  0.00    +0.000 N 
ATOM     13  H   UNL     1      45.662   5.507  14.561  0.00  0.00    +0.000 HD
BRANCH  12  14
ATOM     14  C   UNL     1      47.584   6.019  14.047  0.00  0.00    +0.000 C 
BRANCH  14  15
ATOM     15  C   UNL     1      47.936   5.297  15.334  0.00  0.00    +0.000 A 
ATOM     16  C   UNL     1      47.143   4.241  15.786  0.00  0.00    +0.000 A 
ATOM     17  C   UNL     1      47.459   3.626  16.992  0.00  0.00    +0.000 A 
ATOM     18  C   UNL     1      48.553   4.078  17.720  0.00  0.00    +0.000 A 
ATOM     19  C   UNL     1      49.291   5.129  17.202  0.00  0.00    +0.000 A 
ATOM     20  N   UNL     1      49.012   5.745  16.032  0.00  0.00    +0.000 NA
ENDBRANCH  14  15
ENDBRANCH  12  14
ENDBRANCH   4  12
TORSDOF 4
ENDMDL
MODEL 6
REMARK VINA RESULT:    -5.408      3.212      5.940
REMARK INTER + INTRA:          -7.130
REMARK INTER:                  -6.687
REMARK INTRA:                  -0.444
REMARK UNBOUND:                -0.458
REMARK  Name = 
REMARK  4 active torsions:
REMARK  status: ('A' for Active; 'I' for Inactive)
REMARK    1  A    between atoms: C_2  and  C_4
REMARK    2  A    between atoms: C_7  and  N_8
REMARK    3  A    between atoms: N_8  and  C_9
REMARK    4  A    between atoms: C_9  and  C_10
REMARK                            x       y       z     vdW  Elec       q    Type
REMARK                         _______ _______ _______ _____ _____    ______ ____
ROOT
ATOM      1  C   UNL     1      47.461   7.418  12.724  0.00  0.00    +0.000 A 
ATOM      2  C   UNL     1      47.269   6.086  13.064  0.00  0.00    +0.000 A 
ATOM      3  C   UNL     1      45.966   5.590  13.065  0.00  0.00    +0.000 A 
ATOM      4  C   UNL     1      44.895   6.406  12.691  0.00  0.00    +0.000 A 
ATOM      5  C   UNL     1      45.202   7.738  12.398  0.00  0.00    +0.000 A 
ATOM      6  N   UNL     1      46.449   8.269  12.400  0.00  0.00    +0.000 NA
ENDROOT
BRANCH   1   8
ATOM      7  N   UNL     1      49.822   7.166  13.201  0.00  0.00    +0.000 N 
ATOM      8  C   UNL     1      48.844   7.989  12.708  0.00  0.00    +0.000 C 
ATOM      9  O   UNL     1      49.096   9.110  12.285  0.00  0.00    +0.000 OA
ATOM     10  H   UNL     1      50.782   7.478  13.210  0.00  0.00    +0.000 HD
ATOM     11  H   UNL     1      49.572   6.241  13.534  0.00  0.00    +0.000 HD
ENDBRANCH   1   8
BRANCH   4  12
ATOM     12  N   UNL     1      43.608   5.857  12.716  0.00  0.00    +0.000 N 
ATOM     13  H   UNL     1      43.005   6.400  13.338  0.00  0.00    +0.000 HD
BRANCH  12  14
ATOM     14  C   UNL     1      42.932   5.634  11.433  0.00  0.00    +0.000 C 
BRANCH  14  15
ATOM     15  C   UNL     1      43.601   4.517  10.654  0.00  0.00    +0.000 A 
ATOM     16  C   UNL     1      44.323   4.805   9.495  0.00  0.00    +0.000 A 
ATOM     17  C   UNL     1      44.887   3.760   8.772  0.00  0.00    +0.000 A 
ATOM     18  C   UNL     1      44.717   2.455   9.219  0.00  0.00    +0.000 A 
ATOM     19  C   UNL     1      43.990   2.253  10.380  0.00  0.00    +0.000 A 
ATOM     20  N   UNL     1      43.432   3.248  11.106  0.00  0.00    +0.000 NA
ENDBRANCH  14  15
ENDBRANCH  12  14
ENDBRANCH   4  12
TORSDOF 4
ENDMDL
MODEL 7
REMARK VINA RESULT:    -5.348      5.115      8.351
REMARK INTER + INTRA:          -7.056
REMARK INTER:                  -6.792
REMARK INTRA:                  -0.264
REMARK UNBOUND:                -0.458
REMARK  Name = 
REMARK  4 active torsions:
REMARK  status: ('A' for Active; 'I' for Inactive)
REMARK    1  A    between atoms: C_2  and  C_4
REMARK    2  A    between atoms: C_7  and  N_8
REMARK    3  A    between atoms: N_8  and  C_9
REMARK    4  A    between atoms: C_9  and  C_10
REMARK                            x       y       z     vdW  Elec       q    Type
REMARK                         _______ _______ _______ _____ _____    ______ ____
ROOT
ATOM      1  C   UNL     1      48.587   4.487  18.391  0.00  0.00    +0.000 A 
ATOM      2  C   UNL     1      48.095   3.220  18.111  0.00  0.00    +0.000 A 
ATOM      3  C   UNL     1      47.540   2.994  16.852  0.00  0.00    +0.000 A 
ATOM      4  C   UNL     1      47.522   4.009  15.892  0.00  0.00    +0.000 A 
ATOM      5  C   UNL     1      48.016   5.253  16.293  0.00  0.00    +0.000 A 
ATOM      6  N   UNL     1      48.551   5.524  17.509  0.00  0.00    +0.000 NA
ENDROOT
BRANCH   1   8
ATOM      7  N   UNL     1      48.653   4.071  20.776  0.00  0.00    +0.000 N 
ATOM      8  C   UNL     1      49.195   4.770  19.729  0.00  0.00    +0.000 C 
ATOM      9  O   UNL     1      50.113   5.564  19.888  0.00  0.00    +0.000 OA
ATOM     10  H   UNL     1      49.020   4.200  21.707  0.00  0.00    +0.000 HD
ATOM     11  H   UNL     1      47.900   3.416  20.599  0.00  0.00    +0.000 HD
ENDBRANCH   1   8
BRANCH   4  12
ATOM     12  N   UNL     1      46.946   3.729  14.647  0.00  0.00    +0.000 N 
ATOM     13  H   UNL     1      46.097   3.174  14.768  0.00  0.00    +0.000 HD
BRANCH  12  14
ATOM     14  C   UNL     1      46.683   4.856  13.744  0.00  0.00    +0.000 C 
BRANCH  14  15
ATOM     15  C   UNL     1      45.539   4.540  12.800  0.00  0.00    +0.000 A 
ATOM     16  C   UNL     1      45.417   5.228  11.591  0.00  0.00    +0.000 A 
ATOM     17  C   UNL     1      44.334   4.954  10.763  0.00  0.00    +0.000 A 
ATOM     18  C   UNL     1      43.399   4.005  11.159  0.00  0.00    +0.000 A 
ATOM     19  C   UNL     1      43.594   3.363  12.371  0.00  0.00    +0.000 A 
ATOM     20  N   UNL     1      44.637   3.605  13.196  0.00  0.00    +0.000 NA
ENDBRANCH  14  15
ENDBRANCH  12  14
ENDBRANCH   4  12
TORSDOF 4
ENDMDL
MODEL 8
REMARK VINA RESULT:    -5.237      3.369      5.052
REMARK INTER + INTRA:          -6.919
REMARK INTER:                  -6.586
REMARK INTRA:                  -0.334
REMARK UNBOUND:                -0.458
REMARK  Name = 
REMARK  4 active torsions:
REMARK  status: ('A' for Active; 'I' for Inactive)
REMARK    1  A    between atoms: C_2  and  C_4
REMARK    2  A    between atoms: C_7  and  N_8
REMARK    3  A    between atoms: N_8  and  C_9
REMARK    4  A    between atoms: C_9  and  C_10
REMARK                            x       y       z     vdW  Elec       q    Type
REMARK                         _______ _______ _______ _____ _____    ______ ____
ROOT
ATOM      1  C   UNL     1      44.862   3.953  11.754  0.00  0.00    +0.000 A 
ATOM      2  C   UNL     1      45.024   5.194  11.156  0.00  0.00    +0.000 A 
ATOM      3  C   UNL     1      45.717   6.177  11.860  0.00  0.00    +0.000 A 
ATOM      4  C   UNL     1      46.267   5.898  13.114  0.00  0.00    +0.000 A 
ATOM      5  C   UNL     1      46.016   4.625  13.633  0.00  0.00    +0.000 A 
ATOM      6  N   UNL     1      45.335   3.643  12.993  0.00  0.00    +0.000 NA
ENDROOT
BRANCH   1   8
ATOM      7  N   UNL     1      44.807   2.299   9.985  0.00  0.00    +0.000 N 
ATOM      8  C   UNL     1      44.127   2.868  11.030  0.00  0.00    +0.000 C 
ATOM      9  O   UNL     1      43.000   2.506  11.342  0.00  0.00    +0.000 OA
ATOM     10  H   UNL     1      44.380   1.552   9.458  0.00  0.00    +0.000 HD
ATOM     11  H   UNL     1      45.742   2.623   9.766  0.00  0.00    +0.000 HD
ENDBRANCH   1   8
BRANCH   4  12
ATOM     12  N   UNL     1      46.946   6.925  13.780  0.00  0.00    +0.000 N 
ATOM     13  H   UNL     1      47.940   6.698  13.859  0.00  0.00    +0.000 HD
BRANCH  12  14
ATOM     14  C   UNL     1      46.783   8.294  13.275  0.00  0.00    +0.000 C 
BRANCH  14  15
ATOM     15  C   UNL     1      48.061   8.788  12.623  0.00  0.00    +0.000 A 
ATOM     16  C   UNL     1      48.051   9.957  11.861  0.00  0.00    +0.000 A 
ATOM     17  C   UNL     1      49.224  10.365  11.234  0.00  0.00    +0.000 A 
ATOM     18  C   UNL     1      50.374   9.598  11.379  0.00  0.00    +0.000 A 
ATOM     19  C   UNL     1      50.301   8.453  12.154  0.00  0.00    +0.000 A 
ATOM     20  N   UNL     1      49.178   8.032  12.778  0.00  0.00    +0.000 NA
ENDBRANCH  14  15
ENDBRANCH  12  14
ENDBRANCH   4  12
TORSDOF 4
ENDMDL
MODEL 9
REMARK VINA RESULT:    -5.106      3.248      5.203
REMARK INTER + INTRA:          -6.757
REMARK INTER:                  -6.385
REMARK INTRA:                  -0.373
REMARK UNBOUND:                -0.458
REMARK  Name = 
REMARK  4 active torsions:
REMARK  status: ('A' for Active; 'I' for Inactive)
REMARK    1  A    between atoms: C_2  and  C_4
REMARK    2  A    between atoms: C_7  and  N_8
REMARK    3  A    between atoms: N_8  and  C_9
REMARK    4  A    between atoms: C_9  and  C_10
REMARK                            x       y       z     vdW  Elec       q    Type
REMARK                         _______ _______ _______ _____ _____    ______ ____
ROOT
ATOM      1  C   UNL     1      44.934   4.583  11.059  0.00  0.00    +0.000 A 
ATOM      2  C   UNL     1      45.000   4.112  12.363  0.00  0.00    +0.000 A 
ATOM      3  C   UNL     1      45.665   4.889  13.309  0.00  0.00    +0.000 A 
ATOM      4  C   UNL     1      46.211   6.127  12.955  0.00  0.00    +0.000 A 
ATOM      5  C   UNL     1      46.113   6.486  11.609  0.00  0.00    +0.000 A 
ATOM      6  N   UNL     1      45.490   5.757  10.651  0.00  0.00    +0.000 NA
ENDROOT
BRANCH   1   8
ATOM      7  N   UNL     1      44.109   4.387   8.790  0.00  0.00    +0.000 N 
ATOM      8  C   UNL     1      44.225   3.781  10.013  0.00  0.00    +0.000 C 
ATOM      9  O   UNL     1      43.780   2.660  10.224  0.00  0.00    +0.000 OA
ATOM     10  H   UNL     1      43.655   3.902   8.032  0.00  0.00    +0.000 HD
ATOM     11  H   UNL     1      44.500   5.313   8.656  0.00  0.00    +0.000 HD
ENDBRANCH   1   8
BRANCH   4  12
ATOM     12  N   UNL     1      46.874   6.862  13.945  0.00  0.00    +0.000 N 
ATOM     13  H   UNL     1      46.339   6.847  14.815  0.00  0.00    +0.000 HD
BRANCH  12  14
ATOM     14  C   UNL     1      48.280   6.534  14.215  0.00  0.00    +0.000 C 
BRANCH  14  15
ATOM     15  C   UNL     1      48.478   6.153  15.670  0.00  0.00    +0.000 A 
ATOM     16  C   UNL     1      47.929   4.970  16.166  0.00  0.00    +0.000 A 
ATOM     17  C   UNL     1      48.084   4.665  17.513  0.00  0.00    +0.000 A 
ATOM     18  C   UNL     1      48.780   5.545  18.333  0.00  0.00    +0.000 A 
ATOM     19  C   UNL     1      49.297   6.696  17.764  0.00  0.00    +0.000 A 
ATOM     20  N   UNL     1      49.165   7.019  16.458  0.00  0.00    +0.000 NA
ENDBRANCH  14  15
ENDBRANCH  12  14
ENDBRANCH   4  12
TORSDOF 4
ENDMDL
