MODEL 1
REMARK VINA RESULT:    -9.717      0.000      0.000
REMARK INTER + INTRA:         -12.982
REMARK INTER:                 -12.557
REMARK INTRA:                  -0.425
REMARK UNBOUND:                -0.425
REMARK  Name = 
REMARK  7 active torsions:
REMARK  status: ('A' for Active; 'I' for Inactive)
REMARK    1  A    between atoms: C_1  and  C_2
REMARK    2  A    between atoms: C_2  and  C_3
REMARK    3  A    between atoms: C_2  and  C_4
REMARK    4  A    between atoms: C_6  and  C_7
REMARK    5  A    between atoms: N_12  and  C_13
REMARK    6  A    between atoms: C_13  and  C_14
REMARK    7  A    between atoms: C_18  and  C_19
REMARK                            x       y       z     vdW  Elec       q    Type
REMARK                         _______ _______ _______ _____ _____    ______ ____
ROOT
ATOM      1  C   UNL     1      47.832   7.638  12.580  0.00  0.00    +0.000 A 
ATOM      2  C   UNL     1      48.025   6.579  13.431  0.00  0.00    +0.000 A 
ATOM      3  C   UNL     1      46.977   5.693  13.514  0.00  0.00    +0.000 A 
ATOM      4  N   UNL     1      45.823   5.797  12.808  0.00  0.00    +0.000 NA
ATOM      5  C   UNL     1      45.730   6.849  11.991  0.00  0.00    +0.000 A 
ATOM      6  N   UNL     1      44.627   7.006  11.172  0.00  0.00    +0.000 N 
ATOM      7  N   UNL     1      46.683   7.788  11.878  0.00  0.00    +0.000 NA
ATOM      8  H   UNL     1      44.507   7.985  10.945  0.00  0.00    +0.000 HD
ENDROOT
BRANCH   3   9
ATOM      9  C   UNL     1      47.098   4.527  14.445  0.00  0.00    +0.000 C 
ATOM     10  N   UNL     1      47.108   4.836  15.779  0.00  0.00    +0.000 N 
ATOM     11  O   UNL     1      47.189   3.373  14.046  0.00  0.00    +0.000 OA
ATOM     12  H   UNL     1      47.033   5.801  16.077  0.00  0.00    +0.000 HD
ATOM     13  H   UNL     1      47.189   4.094  16.457  0.00  0.00    +0.000 HD
ENDBRANCH   3   9
BRANCH   1  15
ATOM     14  C   UNL     1      50.123   8.068  11.642  0.00  0.00    +0.000 C 
ATOM     15  C   UNL     1      48.934   8.666  12.397  0.00  0.00    +0.000 C 
ATOM     16  C   UNL     1      48.408   9.917  11.696  0.00  0.00    +0.000 C 
ENDBRANCH   1  15
BRANCH   6  17
ATOM     17  C   UNL     1      43.458   6.209  11.457  0.00  0.00    +0.000 C 
BRANCH  17  18
ATOM     18  C   UNL     1      43.647   4.787  10.990  0.00  0.00    +0.000 A 
ATOM     19  C   UNL     1      43.050   3.729  11.660  0.00  0.00    +0.000 A 
ATOM     20  N   UNL     1      43.208   2.433  11.318  0.00  0.00    +0.000 NA
ATOM     21  C   UNL     1      44.011   2.175  10.254  0.00  0.00    +0.000 A 
ATOM     22  C   UNL     1      44.677   3.139   9.494  0.00  0.00    +0.000 A 
ATOM     23  C   UNL     1      44.454   4.472   9.884  0.00  0.00    +0.000 A 
BRANCH  22  24
ATOM     24  C   UNL     1      45.584   2.777   8.379  0.00  0.00    +0.000 A 
ATOM     25  C   UNL     1      45.947   3.713   7.390  0.00  0.00    +0.000 A 
ATOM     26  C   UNL     1      46.839   3.384   6.364  0.00  0.00    +0.000 A 
ATOM     27  C   UNL     1      47.374   2.105   6.302  0.00  0.00    +0.000 A 
ATOM     28  F   UNL     1      48.233   1.791   5.325  0.00  0.00    +0.000 F 
ATOM     29  C   UNL     1      47.030   1.151   7.248  0.00  0.00    +0.000 A 
ATOM     30  C   UNL     1      46.145   1.486   8.278  0.00  0.00    +0.000 A 
ENDBRANCH  22  24
ENDBRANCH  17  18
ENDBRANCH   6  17
TORSDOF 5
ENDMDL
MODEL 2
REMARK VINA RESULT:    -8.778      2.144      2.968
REMARK INTER + INTRA:         -11.769
REMARK INTER:                 -10.946
REMARK INTRA:                  -0.823
REMARK UNBOUND:                -0.425
REMARK  Name = 
REMARK  7 active torsions:
REMARK  status: ('A' for Active; 'I' for Inactive)
REMARK    1  A    between atoms: C_1  and  C_2
REMARK    2  A    between atoms: C_2  and  C_3
REMARK    3  A    between atoms: C_2  and  C_4
REMARK    4  A    between atoms: C_6  and  C_7
REMARK    5  A    between atoms: N_12  and  C_13
REMARK    6  A    between atoms: C_13  and  C_14
REMARK    7  A    between atoms: C_18  and  C_19
REMARK                            x       y       z     vdW  Elec       q    Type
REMARK                         _______ _______ _______ _____ _____    ______ ____
ROOT
ATOM      1  C   UNL     1      48.151   8.388  12.532  0.00  0.00    +0.000 A 
ATOM      2  C   UNL     1      47.415   9.501  12.209  0.00  0.00    +0.000 A 
ATOM      3  C   UNL     1      46.056   9.307  12.135  0.00  0.00    +0.000 A 
ATOM      4  N   UNL     1      45.432   8.127  12.380  0.00  0.00    +0.000 NA
ATOM      5  C   UNL     1      46.225   7.103  12.705  0.00  0.00    +0.000 A 
ATOM      6  N   UNL     1      45.683   5.878  13.047  0.00  0.00    +0.000 N 
ATOM      7  N   UNL     1      47.563   7.188  12.759  0.00  0.00    +0.000 NA
ATOM      8  H   UNL     1      46.357   5.144  12.868  0.00  0.00    +0.000 HD
ENDROOT
BRANCH   3   9
ATOM      9  C   UNL     1      45.188  10.467  11.756  0.00  0.00    +0.000 C 
ATOM     10  N   UNL     1      43.883  10.382  12.162  0.00  0.00    +0.000 N 
ATOM     11  O   UNL     1      45.610  11.425  11.122  0.00  0.00    +0.000 OA
ATOM     12  H   UNL     1      43.564   9.575  12.684  0.00  0.00    +0.000 HD
ATOM     13  H   UNL     1      43.246  11.132  11.937  0.00  0.00    +0.000 HD
ENDBRANCH   3   9
BRANCH   1  15
ATOM     14  C   UNL     1      50.149   7.834  13.951  0.00  0.00    +0.000 C 
ATOM     15  C   UNL     1      49.659   8.494  12.661  0.00  0.00    +0.000 C 
ATOM     16  C   UNL     1      50.359   7.903  11.439  0.00  0.00    +0.000 C 
ENDBRANCH   1  15
BRANCH   6  17
ATOM     17  C   UNL     1      44.296   5.643  12.727  0.00  0.00    +0.000 C 
BRANCH  17  18
ATOM     18  C   UNL     1      44.140   4.414  11.867  0.00  0.00    +0.000 A 
ATOM     19  C   UNL     1      43.281   3.388  12.234  0.00  0.00    +0.000 A 
ATOM     20  N   UNL     1      43.124   2.246  11.532  0.00  0.00    +0.000 NA
ATOM     21  C   UNL     1      43.867   2.116  10.403  0.00  0.00    +0.000 A 
ATOM     22  C   UNL     1      44.772   3.064   9.919  0.00  0.00    +0.000 A 
ATOM     23  C   UNL     1      44.875   4.241  10.681  0.00  0.00    +0.000 A 
BRANCH  22  24
ATOM     24  C   UNL     1      45.592   2.827   8.708  0.00  0.00    +0.000 A 
ATOM     25  C   UNL     1      45.947   3.878   7.840  0.00  0.00    +0.000 A 
ATOM     26  C   UNL     1      46.759   3.661   6.721  0.00  0.00    +0.000 A 
ATOM     27  C   UNL     1      47.220   2.381   6.445  0.00  0.00    +0.000 A 
ATOM     28  F   UNL     1      48.003   2.173   5.379  0.00  0.00    +0.000 F 
ATOM     29  C   UNL     1      46.881   1.317   7.266  0.00  0.00    +0.000 A 
ATOM     30  C   UNL     1      46.076   1.540   8.389  0.00  0.00    +0.000 A 
ENDBRANCH  22  24
ENDBRANCH  17  18
ENDBRANCH   6  17
TORSDOF 5
ENDMDL
MODEL 3
REMARK VINA RESULT:    -8.407      2.346      3.823
REMARK INTER + INTRA:         -11.289
REMARK INTER:                 -10.671
REMARK INTRA:                  -0.618
REMARK UNBOUND:                -0.425
REMARK  Name = 
REMARK  7 active torsions:
REMARK  status: ('A' for Active; 'I' for Inactive)
REMARK    1  A    between atoms: C_1  and  C_2
REMARK    2  A    between atoms: C_2  and  C_3
REMARK    3  A    between atoms: C_2  and  C_4
REMARK    4  A    between atoms: C_6  and  C_7
REMARK    5  A    between atoms: N_12  and  C_13
REMARK    6  A    between atoms: C_13  and  C_14
REMARK    7  A    between atoms: C_18  and  C_19
REMARK                            x       y       z     vdW  Elec       q    Type
REMARK                         _______ _______ _______ _____ _____    ______ ____
ROOT
ATOM      1  C   UNL     1      48.217   4.285  16.597  0.00  0.00    +0.000 A 
ATOM      2  C   UNL     1      48.903   5.456  16.391  0.00  0.00    +0.000 A 
ATOM      3  C   UNL     1      48.453   6.225  15.343  0.00  0.00    +0.000 A 
ATOM      4  N   UNL     1      47.394   5.909  14.556  0.00  0.00    +0.000 NA
ATOM      5  C   UNL     1      46.775   4.760  14.841  0.00  0.00    +0.000 A 
ATOM      6  N   UNL     1      45.640   4.384  14.147  0.00  0.00    +0.000 N 
ATOM      7  N   UNL     1      47.171   3.926  15.815  0.00  0.00    +0.000 NA
ATOM      8  H   UNL     1      45.539   3.378  14.177  0.00  0.00    +0.000 HD
ENDROOT
BRANCH   3   9
ATOM      9  C   UNL     1      49.170   7.502  15.034  0.00  0.00    +0.000 C 
ATOM     10  N   UNL     1      50.395   7.361  14.438  0.00  0.00    +0.000 N 
ATOM     11  O   UNL     1      48.700   8.601  15.299  0.00  0.00    +0.000 OA
ATOM     12  H   UNL     1      50.756   6.438  14.233  0.00  0.00    +0.000 HD
ATOM     13  H   UNL     1      50.928   8.186  14.205  0.00  0.00    +0.000 HD
ENDBRANCH   3   9
BRANCH   1  15
ATOM     14  C   UNL     1      49.771   2.451  17.330  0.00  0.00    +0.000 C 
ATOM     15  C   UNL     1      48.618   3.370  17.740  0.00  0.00    +0.000 C 
ATOM     16  C   UNL     1      48.971   4.174  18.990  0.00  0.00    +0.000 C 
ENDBRANCH   1  15
BRANCH   6  17
ATOM     17  C   UNL     1      45.343   5.077  12.916  0.00  0.00    +0.000 C 
BRANCH  17  18
ATOM     18  C   UNL     1      44.841   4.120  11.865  0.00  0.00    +0.000 A 
ATOM     19  C   UNL     1      43.701   3.358  12.077  0.00  0.00    +0.000 A 
ATOM     20  N   UNL     1      43.220   2.456  11.196  0.00  0.00    +0.000 NA
ATOM     21  C   UNL     1      43.915   2.299  10.041  0.00  0.00    +0.000 A 
ATOM     22  C   UNL     1      45.078   2.994   9.698  0.00  0.00    +0.000 A 
ATOM     23  C   UNL     1      45.517   3.936  10.646  0.00  0.00    +0.000 A 
BRANCH  22  24
ATOM     24  C   UNL     1      45.816   2.728   8.442  0.00  0.00    +0.000 A 
ATOM     25  C   UNL     1      46.041   3.742   7.489  0.00  0.00    +0.000 A 
ATOM     26  C   UNL     1      46.777   3.501   6.324  0.00  0.00    +0.000 A 
ATOM     27  C   UNL     1      47.290   2.233   6.085  0.00  0.00    +0.000 A 
ATOM     28  F   UNL     1      48.001   2.003   4.974  0.00  0.00    +0.000 F 
ATOM     29  C   UNL     1      47.078   1.205   6.990  0.00  0.00    +0.000 A 
ATOM     30  C   UNL     1      46.350   1.452   8.159  0.00  0.00    +0.000 A 
ENDBRANCH  22  24
ENDBRANCH  17  18
ENDBRANCH   6  17
TORSDOF 5
ENDMDL
MODEL 4
REMARK VINA RESULT:    -8.308      3.362      7.388
REMARK INTER + INTRA:         -11.161
REMARK INTER:                 -10.241
REMARK INTRA:                  -0.920
REMARK UNBOUND:                -0.425
REMARK  Name = 
REMARK  7 active torsions:
REMARK  status: ('A' for Active; 'I' for Inactive)
REMARK    1  A    between atoms: C_1  and  C_2
REMARK    2  A    between atoms: C_2  and  C_3
REMARK    3  A    between atoms: C_2  and  C_4
REMARK    4  A    between atoms: C_6  and  C_7
REMARK    5  A    between atoms: N_12  and  C_13
REMARK    6  A    between atoms: C_13  and  C_14
REMARK    7  A    between atoms: C_18  and  C_19
REMARK                            x       y       z     vdW  Elec       q    Type
REMARK                         _______ _______ _______ _____ _____    ______ ____
ROOT
ATOM      1  C   UNL     1      45.439   3.238   8.643  0.00  0.00    +0.000 A 
ATOM      2  C   UNL     1      44.680   2.516   9.530  0.00  0.00    +0.000 A 
ATOM      3  C   UNL     1      44.288   3.197  10.658  0.00  0.00    +0.000 A 
ATOM      4  N   UNL     1      44.579   4.498  10.913  0.00  0.00    +0.000 NA
ATOM      5  C   UNL     1      45.306   5.127   9.986  0.00  0.00    +0.000 A 
ATOM      6  N   UNL     1      45.593   6.473  10.114  0.00  0.00    +0.000 N 
ATOM      7  N   UNL     1      45.770   4.531   8.876  0.00  0.00    +0.000 NA
ATOM      8  H   UNL     1      46.438   6.692   9.602  0.00  0.00    +0.000 HD
ENDROOT
BRANCH   3   9
ATOM      9  C   UNL     1      43.483   2.469  11.689  0.00  0.00    +0.000 C 
ATOM     10  N   UNL     1      43.681   2.872  12.983  0.00  0.00    +0.000 N 
ATOM     11  O   UNL     1      42.705   1.569  11.401  0.00  0.00    +0.000 OA
ATOM     12  H   UNL     1      44.334   3.618  13.188  0.00  0.00    +0.000 HD
ATOM     13  H   UNL     1      43.168   2.418  13.725  0.00  0.00    +0.000 HD
ENDBRANCH   3   9
BRANCH   1  15
ATOM     14  C   UNL     1      46.671   3.588   6.481  0.00  0.00    +0.000 C 
ATOM     15  C   UNL     1      45.909   2.589   7.354  0.00  0.00    +0.000 C 
ATOM     16  C   UNL     1      46.755   1.349   7.638  0.00  0.00    +0.000 C 
ENDBRANCH   1  15
BRANCH   6  17
ATOM     17  C   UNL     1      45.381   7.086  11.403  0.00  0.00    +0.000 C 
BRANCH  17  18
ATOM     18  C   UNL     1      46.641   7.053  12.231  0.00  0.00    +0.000 A 
ATOM     19  C   UNL     1      47.799   7.683  11.798  0.00  0.00    +0.000 A 
ATOM     20  N   UNL     1      48.969   7.660  12.470  0.00  0.00    +0.000 NA
ATOM     21  C   UNL     1      48.990   6.966  13.636  0.00  0.00    +0.000 A 
ATOM     22  C   UNL     1      47.904   6.281  14.188  0.00  0.00    +0.000 A 
ATOM     23  C   UNL     1      46.707   6.362  13.453  0.00  0.00    +0.000 A 
BRANCH  22  24
ATOM     24  C   UNL     1      48.017   5.495  15.438  0.00  0.00    +0.000 A 
ATOM     25  C   UNL     1      47.274   4.315  15.639  0.00  0.00    +0.000 A 
ATOM     26  C   UNL     1      47.415   3.549  16.802  0.00  0.00    +0.000 A 
ATOM     27  C   UNL     1      48.296   3.961  17.792  0.00  0.00    +0.000 A 
ATOM     28  F   UNL     1      48.438   3.226  18.902  0.00  0.00    +0.000 F 
ATOM     29  C   UNL     1      49.035   5.124  17.639  0.00  0.00    +0.000 A 
ATOM     30  C   UNL     1      48.898   5.882  16.471  0.00  0.00    +0.000 A 
ENDBRANCH  22  24
ENDBRANCH  17  18
ENDBRANCH   6  17
TORSDOF 5
ENDMDL
MODEL 5
REMARK VINA RESULT:    -7.857      3.211      5.468
REMARK INTER + INTRA:         -10.579
REMARK INTER:                  -9.882
REMARK INTRA:                  -0.697
REMARK UNBOUND:                -0.425
REMARK  Name = 
REMARK  7 active torsions:
REMARK  status: ('A' for Active; 'I' for Inactive)
REMARK    1  A    between atoms: C_1  and  C_2
REMARK    2  A    between atoms: C_2  and  C_3
REMARK    3  A    between atoms: C_2  and  C_4
REMARK    4  A    between atoms: C_6  and  C_7
REMARK    5  A    between atoms: N_12  and  C_13
REMARK    6  A    between atoms: C_13  and  C_14
REMARK    7  A    between atoms: C_18  and  C_19
REMARK                            x       y       z     vdW  Elec       q    Type
REMARK                         _______ _______ _______ _____ _____    ______ ____
ROOT
ATOM      1  C   UNL     1      48.234   6.632  18.454  0.00  0.00    +0.000 A 
ATOM      2  C   UNL     1      48.008   5.291  18.275  0.00  0.00    +0.000 A 
ATOM      3  C   UNL     1      48.221   4.823  17.000  0.00  0.00    +0.000 A 
ATOM      4  N   UNL     1      48.651   5.584  15.962  0.00  0.00    +0.000 NA
ATOM      5  C   UNL     1      48.864   6.875  16.233  0.00  0.00    +0.000 A 
ATOM      6  N   UNL     1      49.375   7.720  15.265  0.00  0.00    +0.000 N 
ATOM      7  N   UNL     1      48.641   7.428  17.435  0.00  0.00    +0.000 NA
ATOM      8  H   UNL     1      49.102   8.674  15.466  0.00  0.00    +0.000 HD
ENDROOT
BRANCH   3   9
ATOM      9  C   UNL     1      47.965   3.375  16.717  0.00  0.00    +0.000 C 
ATOM     10  N   UNL     1      46.978   2.794  17.467  0.00  0.00    +0.000 N 
ATOM     11  O   UNL     1      48.596   2.748  15.877  0.00  0.00    +0.000 OA
ATOM     12  H   UNL     1      46.475   3.340  18.155  0.00  0.00    +0.000 HD
ATOM     13  H   UNL     1      46.758   1.820  17.323  0.00  0.00    +0.000 HD
ENDBRANCH   3   9
BRANCH   1  15
ATOM     14  C   UNL     1      47.391   8.628  19.728  0.00  0.00    +0.000 C 
ATOM     15  C   UNL     1      48.048   7.249  19.828  0.00  0.00    +0.000 C 
ATOM     16  C   UNL     1      47.250   6.324  20.744  0.00  0.00    +0.000 C 
ENDBRANCH   1  15
BRANCH   6  17
ATOM     17  C   UNL     1      49.356   7.263  13.896  0.00  0.00    +0.000 C 
BRANCH  17  18
ATOM     18  C   UNL     1      47.969   7.362  13.312  0.00  0.00    +0.000 A 
ATOM     19  C   UNL     1      47.127   8.415  13.644  0.00  0.00    +0.000 A 
ATOM     20  N   UNL     1      45.863   8.543  13.189  0.00  0.00    +0.000 NA
ATOM     21  C   UNL     1      45.408   7.567  12.362  0.00  0.00    +0.000 A 
ATOM     22  C   UNL     1      46.143   6.451  11.951  0.00  0.00    +0.000 A 
ATOM     23  C   UNL     1      47.460   6.385  12.439  0.00  0.00    +0.000 A 
BRANCH  22  24
ATOM     24  C   UNL     1      45.560   5.395  11.092  0.00  0.00    +0.000 A 
ATOM     25  C   UNL     1      45.739   5.398   9.694  0.00  0.00    +0.000 A 
ATOM     26  C   UNL     1      45.227   4.375   8.888  0.00  0.00    +0.000 A 
ATOM     27  C   UNL     1      44.512   3.337   9.468  0.00  0.00    +0.000 A 
ATOM     28  F   UNL     1      44.027   2.354   8.699  0.00  0.00    +0.000 F 
ATOM     29  C   UNL     1      44.300   3.305  10.838  0.00  0.00    +0.000 A 
ATOM     30  C   UNL     1      44.822   4.324  11.642  0.00  0.00    +0.000 A 
ENDBRANCH  22  24
ENDBRANCH  17  18
ENDBRANCH   6  17
TORSDOF 5
ENDMDL
MODEL 6
REMARK VINA RESULT:    -7.489      3.095      7.282
REMARK INTER + INTRA:         -10.103
REMARK INTER:                  -9.297
REMARK INTRA:                  -0.806
REMARK UNBOUND:                -0.425
REMARK  Name = 
REMARK  7 active torsions:
REMARK  status: ('A' for Active; 'I' for Inactive)
REMARK    1  A    between atoms: C_1  and  C_2
REMARK    2  A    between atoms: C_2  and  C_3
REMARK    3  A    between atoms: C_2  and  C_4
REMARK    4  A    between atoms: C_6  and  C_7
REMARK    5  A    between atoms: N_12  and  C_13
REMARK    6  A    between atoms: C_13  and  C_14
REMARK    7  A    between atoms: C_18  and  C_19
REMARK                            x       y       z     vdW  Elec       q    Type
REMARK                         _______ _______ _______ _____ _____    ______ ____
ROOT
ATOM      1  C   UNL     1      45.456   3.054   8.556  0.00  0.00    +0.000 A 
ATOM      2  C   UNL     1      44.698   2.351   9.458  0.00  0.00    +0.000 A 
ATOM      3  C   UNL     1      44.317   3.052  10.578  0.00  0.00    +0.000 A 
ATOM      4  N   UNL     1      44.618   4.354  10.812  0.00  0.00    +0.000 NA
ATOM      5  C   UNL     1      45.343   4.964   9.870  0.00  0.00    +0.000 A 
ATOM      6  N   UNL     1      45.640   6.310   9.976  0.00  0.00    +0.000 N 
ATOM      7  N   UNL     1      45.797   4.349   8.767  0.00  0.00    +0.000 NA
ATOM      8  H   UNL     1      46.483   6.516   9.456  0.00  0.00    +0.000 HD
ENDROOT
BRANCH   3   9
ATOM      9  C   UNL     1      43.514   2.344  11.626  0.00  0.00    +0.000 C 
ATOM     10  N   UNL     1      43.775   2.715  12.918  0.00  0.00    +0.000 N 
ATOM     11  O   UNL     1      42.683   1.488  11.351  0.00  0.00    +0.000 OA
ATOM     12  H   UNL     1      44.469   3.425  13.112  0.00  0.00    +0.000 HD
ATOM     13  H   UNL     1      43.267   2.273  13.670  0.00  0.00    +0.000 HD
ENDBRANCH   3   9
BRANCH   1  15
ATOM     14  C   UNL     1      46.627   3.378   6.356  0.00  0.00    +0.000 C 
ATOM     15  C   UNL     1      45.914   2.383   7.275  0.00  0.00    +0.000 C 
ATOM     16  C   UNL     1      46.801   1.175   7.572  0.00  0.00    +0.000 C 
ENDBRANCH   1  15
BRANCH   6  17
ATOM     17  C   UNL     1      45.439   6.945  11.257  0.00  0.00    +0.000 C 
BRANCH  17  18
ATOM     18  C   UNL     1      46.708   6.931  12.072  0.00  0.00    +0.000 A 
ATOM     19  C   UNL     1      46.835   6.111  13.185  0.00  0.00    +0.000 A 
ATOM     20  N   UNL     1      47.925   6.078  13.979  0.00  0.00    +0.000 NA
ATOM     21  C   UNL     1      48.945   6.911  13.651  0.00  0.00    +0.000 A 
ATOM     22  C   UNL     1      48.952   7.790  12.565  0.00  0.00    +0.000 A 
ATOM     23  C   UNL     1      47.798   7.762  11.762  0.00  0.00    +0.000 A 
BRANCH  22  24
ATOM     24  C   UNL     1      50.081   8.713  12.303  0.00  0.00    +0.000 A 
ATOM     25  C   UNL     1      51.311   8.585  12.978  0.00  0.00    +0.000 A 
ATOM     26  C   UNL     1      52.392   9.428  12.696  0.00  0.00    +0.000 A 
ATOM     27  C   UNL     1      52.254  10.425  11.741  0.00  0.00    +0.000 A 
ATOM     28  F   UNL     1      53.289  11.229  11.466  0.00  0.00    +0.000 F 
ATOM     29  C   UNL     1      51.055  10.594  11.065  0.00  0.00    +0.000 A 
ATOM     30  C   UNL     1      49.980   9.743  11.343  0.00  0.00    +0.000 A 
ENDBRANCH  22  24
ENDBRANCH  17  18
ENDBRANCH   6  17
TORSDOF 5
ENDMDL
MODEL 7
REMARK VINA RESULT:    -7.293      3.008      4.639
REMARK INTER + INTRA:          -9.850
REMARK INTER:                  -9.232
REMARK INTRA:                  -0.618
REMARK UNBOUND:                -0.425
REMARK  Name = 
REMARK  7 active torsions:
REMARK  status: ('A' for Active; 'I' for Inactive)
REMARK    1  A    between atoms: C_1  and  C_2
REMARK    2  A    between atoms: C_2  and  C_3
REMARK    3  A    between atoms: C_2  and  C_4
REMARK    4  A    between atoms: C_6  and  C_7
REMARK    5  A    between atoms: N_12  and  C_13
REMARK    6  A    between atoms: C_13  and  C_14
REMARK    7  A    between atoms: C_18  and  C_19
REMARK                            x       y       z     vdW  Elec       q    Type
REMARK                         _______ _______ _______ _____ _____    ______ ____
ROOT
ATOM      1  C   UNL     1      49.199   3.483  17.341  0.00  0.00    +0.000 A 
ATOM      2  C   UNL     1      48.837   4.433  18.263  0.00  0.00    +0.000 A 
ATOM      3  C   UNL     1      47.810   5.263  17.880  0.00  0.00    +0.000 A 
ATOM      4  N   UNL     1      47.148   5.175  16.699  0.00  0.00    +0.000 NA
ATOM      5  C   UNL     1      47.556   4.209  15.871  0.00  0.00    +0.000 A 
ATOM      6  N   UNL     1      46.898   3.987  14.675  0.00  0.00    +0.000 N 
ATOM      7  N   UNL     1      48.577   3.382  16.141  0.00  0.00    +0.000 NA
ATOM      8  H   UNL     1      47.528   3.546  14.016  0.00  0.00    +0.000 HD
ENDROOT
BRANCH   3   9
ATOM      9  C   UNL     1      47.378   6.346  18.819  0.00  0.00    +0.000 C 
ATOM     10  N   UNL     1      47.355   7.609  18.290  0.00  0.00    +0.000 N 
ATOM     11  O   UNL     1      47.072   6.124  19.983  0.00  0.00    +0.000 OA
ATOM     12  H   UNL     1      47.617   7.760  17.324  0.00  0.00    +0.000 HD
ATOM     13  H   UNL     1      47.074   8.383  18.873  0.00  0.00    +0.000 HD
ENDBRANCH   3   9
BRANCH   1  15
ATOM     14  C   UNL     1      50.434   1.430  16.583  0.00  0.00    +0.000 C 
ATOM     15  C   UNL     1      50.309   2.501  17.669  0.00  0.00    +0.000 C 
ATOM     16  C   UNL     1      51.637   3.224  17.886  0.00  0.00    +0.000 C 
ENDBRANCH   1  15
BRANCH   6  17
ATOM     17  C   UNL     1      46.000   5.012  14.201  0.00  0.00    +0.000 C 
BRANCH  17  18
ATOM     18  C   UNL     1      45.152   4.503  13.062  0.00  0.00    +0.000 A 
ATOM     19  C   UNL     1      43.801   4.240  13.238  0.00  0.00    +0.000 A 
ATOM     20  N   UNL     1      42.995   3.748  12.274  0.00  0.00    +0.000 NA
ATOM     21  C   UNL     1      43.566   3.497  11.069  0.00  0.00    +0.000 A 
ATOM     22  C   UNL     1      44.911   3.708  10.754  0.00  0.00    +0.000 A 
ATOM     23  C   UNL     1      45.695   4.245  11.792  0.00  0.00    +0.000 A 
BRANCH  22  24
ATOM     24  C   UNL     1      45.478   3.357   9.431  0.00  0.00    +0.000 A 
ATOM     25  C   UNL     1      45.656   2.016   9.037  0.00  0.00    +0.000 A 
ATOM     26  C   UNL     1      46.148   1.684   7.770  0.00  0.00    +0.000 A 
ATOM     27  C   UNL     1      46.485   2.693   6.879  0.00  0.00    +0.000 A 
ATOM     28  F   UNL     1      46.950   2.377   5.663  0.00  0.00    +0.000 F 
ATOM     29  C   UNL     1      46.339   4.025   7.233  0.00  0.00    +0.000 A 
ATOM     30  C   UNL     1      45.837   4.353   8.497  0.00  0.00    +0.000 A 
ENDBRANCH  22  24
ENDBRANCH  17  18
ENDBRANCH   6  17
TORSDOF 5
ENDMDL
