MODEL 1
REMARK VINA RESULT:    -6.841      0.000      0.000
REMARK INTER + INTRA:          -8.445
REMARK INTER:                  -8.041
REMARK INTRA:                  -0.404
REMARK UNBOUND:                -0.404
REMARK  Name = 
REMARK  6 active torsions:
REMARK  status: ('A' for Active; 'I' for Inactive)
REMARK    1  A    between atoms: C_1  and  C_2
REMARK    2  A    between atoms: C_2  and  C_3
REMARK    3  A    between atoms: C_2  and  C_4
REMARK    4  A    between atoms: C_2  and  C_5
REMARK    5  A    between atoms: C_12  and  C_13
REMARK    6  A    between atoms: C_13  and  C_14
REMARK                            x       y       z     vdW  Elec       q    Type
REMARK                         _______ _______ _______ _____ _____    ______ ____
ROOT
ATOM      1  C   UNL     1      47.047   7.731  13.336  0.00  0.00    +0.000 A 
ATOM      2  C   UNL     1      46.260   8.847  12.941  0.00  0.00    +0.000 A 
ATOM      3  N   UNL     1      45.238   8.528  12.144  0.00  0.00    +0.000 NA
ATOM      4  N   UNL     1      45.379   7.212  11.986  0.00  0.00    +0.000 N 
ATOM      5  C   UNL     1      46.363   6.660  12.771  0.00  0.00    +0.000 A 
ATOM      6  C   UNL     1      46.546   5.182  12.819  0.00  0.00    +0.000 C 
ATOM      7  C   UNL     1      45.328   4.466  12.238  0.00  0.00    +0.000 C 
ATOM      8  C   UNL     1      45.043   5.090  10.864  0.00  0.00    +0.000 C 
ATOM      9  N   UNL     1      44.553   6.467  11.061  0.00  0.00    +0.000 NA
ENDROOT
BRANCH   1  11
ATOM     10  C   UNL     1      48.521   9.023  14.948  0.00  0.00    +0.000 C 
ATOM     11  C   UNL     1      48.333   7.719  14.145  0.00  0.00    +0.000 C 
ATOM     12  C   UNL     1      49.548   7.587  13.195  0.00  0.00    +0.000 C 
ATOM     13  C   UNL     1      48.363   6.556  15.153  0.00  0.00    +0.000 C 
ENDBRANCH   1  11
BRANCH   8  14
ATOM     14  C   UNL     1      44.059   4.215  10.070  0.00  0.00    +0.000 C 
BRANCH  14  15
ATOM     15  C   UNL     1      44.651   3.469   8.851  0.00  0.00    +0.000 C 
ATOM     16  C   UNL     1      45.258   2.133   9.326  0.00  0.00    +0.000 C 
ATOM     17  C   UNL     1      45.908   1.356   8.185  0.00  0.00    +0.000 C 
ATOM     18  C   UNL     1      46.965   2.194   7.476  0.00  0.00    +0.000 C 
ATOM     19  C   UNL     1      46.374   3.502   6.970  0.00  0.00    +0.000 C 
ATOM     20  C   UNL     1      45.706   4.294   8.090  0.00  0.00    +0.000 C 
ENDBRANCH  14  15
ENDBRANCH   8  14
TORSDOF 3
ENDMDL
MODEL 2
REMARK VINA RESULT:    -6.517      2.275      3.553
REMARK INTER + INTRA:          -8.064
REMARK INTER:                  -7.573
REMARK INTRA:                  -0.491
REMARK UNBOUND:                -0.404
REMARK  Name = 
REMARK  6 active torsions:
REMARK  status: ('A' for Active; 'I' for Inactive)
REMARK    1  A    between atoms: C_1  and  C_2
REMARK    2  A    between atoms: C_2  and  C_3
REMARK    3  A    between atoms: C_2  and  C_4
REMARK    4  A    between atoms: C_2  and  C_5
REMARK    5  A    between atoms: C_12  and  C_13
REMARK    6  A    between atoms: C_13  and  C_14
REMARK                            x       y       z     vdW  Elec       q    Type
REMARK                         _______ _______ _______ _____ _____    ______ ____
ROOT
ATOM      1  C   UNL     1      48.347   5.468  16.127  0.00  0.00    +0.000 A 
ATOM      2  C   UNL     1      47.852   4.205  16.551  0.00  0.00    +0.000 A 
ATOM      3  N   UNL     1      46.943   3.679  15.727  0.00  0.00    +0.000 NA
ATOM      4  N   UNL     1      46.814   4.615  14.786  0.00  0.00    +0.000 N 
ATOM      5  C   UNL     1      47.714   5.647  14.901  0.00  0.00    +0.000 A 
ATOM      6  C   UNL     1      47.796   6.695  13.844  0.00  0.00    +0.000 C 
ATOM      7  C   UNL     1      47.082   6.239  12.573  0.00  0.00    +0.000 C 
ATOM      8  C   UNL     1      45.679   5.768  12.982  0.00  0.00    +0.000 C 
ATOM      9  N   UNL     1      45.805   4.518  13.755  0.00  0.00    +0.000 NA
ENDROOT
BRANCH   1  11
ATOM     10  C   UNL     1      50.594   6.644  16.041  0.00  0.00    +0.000 C 
ATOM     11  C   UNL     1      49.302   6.401  16.850  0.00  0.00    +0.000 C 
ATOM     12  C   UNL     1      49.721   5.777  18.204  0.00  0.00    +0.000 C 
ATOM     13  C   UNL     1      48.666   7.779  17.114  0.00  0.00    +0.000 C 
ENDBRANCH   1  11
BRANCH   8  14
ATOM     14  C   UNL     1      44.781   5.614  11.742  0.00  0.00    +0.000 C 
BRANCH  14  15
ATOM     15  C   UNL     1      45.209   4.524  10.731  0.00  0.00    +0.000 C 
ATOM     16  C   UNL     1      45.543   5.193   9.382  0.00  0.00    +0.000 C 
ATOM     17  C   UNL     1      45.930   4.176   8.313  0.00  0.00    +0.000 C 
ATOM     18  C   UNL     1      44.840   3.128   8.126  0.00  0.00    +0.000 C 
ATOM     19  C   UNL     1      44.521   2.432   9.442  0.00  0.00    +0.000 C 
ATOM     20  C   UNL     1      44.143   3.430  10.535  0.00  0.00    +0.000 C 
ENDBRANCH  14  15
ENDBRANCH   8  14
TORSDOF 3
ENDMDL
MODEL 3
REMARK VINA RESULT:    -6.176      1.873      2.694
REMARK INTER + INTRA:          -7.663
REMARK INTER:                  -7.186
REMARK INTRA:                  -0.477
REMARK UNBOUND:                -0.404
REMARK  Name = 
REMARK  6 active torsions:
REMARK  status: ('A' for Active; 'I' for Inactive)
REMARK    1  A    between atoms: C_1  and  C_2
REMARK    2  A    between atoms: C_2  and  C_3
REMARK    3  A    between atoms: C_2  and  C_4
REMARK    4  A    between atoms: C_2  and  C_5
REMARK    5  A    between atoms: C_12  and  C_13
REMARK    6  A    between atoms: C_13  and  C_14
REMARK                            x       y       z     vdW  Elec       q    Type
REMARK                         _______ _______ _______ _____ _____    ______ ____
ROOT
ATOM      1  C   UNL     1      47.813   5.310  15.174  0.00  0.00    +0.000 A 
ATOM      2  C   UNL     1      48.562   6.438  14.742  0.00  0.00    +0.000 A 
ATOM      3  N   UNL     1      48.126   6.967  13.597  0.00  0.00    +0.000 NA
ATOM      4  N   UNL     1      47.118   6.163  13.260  0.00  0.00    +0.000 N 
ATOM      5  C   UNL     1      46.802   5.233  14.221  0.00  0.00    +0.000 A 
ATOM      6  C   UNL     1      45.606   4.359  14.058  0.00  0.00    +0.000 C 
ATOM      7  C   UNL     1      44.681   4.903  12.972  0.00  0.00    +0.000 C 
ATOM      8  C   UNL     1      45.539   5.152  11.723  0.00  0.00    +0.000 C 
ATOM      9  N   UNL     1      46.443   6.289  11.987  0.00  0.00    +0.000 NA
ENDROOT
BRANCH   1  11
ATOM     10  C   UNL     1      46.980   4.532  17.441  0.00  0.00    +0.000 C 
ATOM     11  C   UNL     1      48.073   4.399  16.361  0.00  0.00    +0.000 C 
ATOM     12  C   UNL     1      49.420   4.774  17.024  0.00  0.00    +0.000 C 
ATOM     13  C   UNL     1      48.122   2.917  15.944  0.00  0.00    +0.000 C 
ENDBRANCH   1  11
BRANCH   8  14
ATOM     14  C   UNL     1      44.645   5.375  10.492  0.00  0.00    +0.000 C 
BRANCH  14  15
ATOM     15  C   UNL     1      44.753   4.307   9.378  0.00  0.00    +0.000 C 
ATOM     16  C   UNL     1      44.901   2.916  10.028  0.00  0.00    +0.000 C 
ATOM     17  C   UNL     1      45.061   1.808   8.991  0.00  0.00    +0.000 C 
ATOM     18  C   UNL     1      46.237   2.085   8.062  0.00  0.00    +0.000 C 
ATOM     19  C   UNL     1      46.089   3.440   7.385  0.00  0.00    +0.000 C 
ATOM     20  C   UNL     1      45.914   4.566   8.400  0.00  0.00    +0.000 C 
ENDBRANCH  14  15
ENDBRANCH   8  14
TORSDOF 3
ENDMDL
MODEL 4
REMARK VINA RESULT:    -5.744      2.711      6.780
REMARK INTER + INTRA:          -7.156
REMARK INTER:                  -6.723
REMARK INTRA:                  -0.433
REMARK UNBOUND:                -0.404
REMARK  Name = 
REMARK  6 active torsions:
REMARK  status: ('A' for Active; 'I' for Inactive)
REMARK    1  A    between atoms: C_1  and  C_2
REMARK    2  A    between atoms: C_2  and  C_3
REMARK    3  A    between atoms: C_2  and  C_4
REMARK    4  A    between atoms: C_2  and  C_5
REMARK    5  A    between atoms: C_12  and  C_13
REMARK    6  A    between atoms: C_13  and  C_14
REMARK                            x       y       z     vdW  Elec       q    Type
REMARK                         _______ _______ _______ _____ _____    ______ ____
ROOT
ATOM      1  C   UNL     1      45.194   4.368  12.243  0.00  0.00    +0.000 A 
ATOM      2  C   UNL     1      45.846   3.434  13.094  0.00  0.00    +0.000 A 
ATOM      3  N   UNL     1      47.001   3.877  13.593  0.00  0.00    +0.000 NA
ATOM      4  N   UNL     1      47.125   5.083  13.040  0.00  0.00    +0.000 N 
ATOM      5  C   UNL     1      46.022   5.484  12.326  0.00  0.00    +0.000 A 
ATOM      6  C   UNL     1      45.945   6.864  11.770  0.00  0.00    +0.000 C 
ATOM      7  C   UNL     1      46.996   7.766  12.414  0.00  0.00    +0.000 C 
ATOM      8  C   UNL     1      48.347   7.044  12.306  0.00  0.00    +0.000 C 
ATOM      9  N   UNL     1      48.329   5.869  13.198  0.00  0.00    +0.000 NA
ENDROOT
BRANCH   1  11
ATOM     10  C   UNL     1      42.831   5.190  11.821  0.00  0.00    +0.000 C 
ATOM     11  C   UNL     1      43.929   4.181  11.425  0.00  0.00    +0.000 C 
ATOM     12  C   UNL     1      43.354   2.763  11.665  0.00  0.00    +0.000 C 
ATOM     13  C   UNL     1      44.190   4.361   9.918  0.00  0.00    +0.000 C 
ENDBRANCH   1  11
BRANCH   8  14
ATOM     14  C   UNL     1      49.501   8.011  12.618  0.00  0.00    +0.000 C 
BRANCH  14  15
ATOM     15  C   UNL     1      49.992   8.879  11.434  0.00  0.00    +0.000 C 
ATOM     16  C   UNL     1      51.527   8.771  11.335  0.00  0.00    +0.000 C 
ATOM     17  C   UNL     1      52.096   9.639  10.217  0.00  0.00    +0.000 C 
ATOM     18  C   UNL     1      51.679  11.095  10.381  0.00  0.00    +0.000 C 
ATOM     19  C   UNL     1      50.164  11.225  10.446  0.00  0.00    +0.000 C 
ATOM     20  C   UNL     1      49.567  10.355  11.549  0.00  0.00    +0.000 C 
ENDBRANCH  14  15
ENDBRANCH   8  14
TORSDOF 3
ENDMDL
MODEL 5
REMARK VINA RESULT:    -5.744      2.888      4.889
REMARK INTER + INTRA:          -7.155
REMARK INTER:                  -6.964
REMARK INTRA:                  -0.191
REMARK UNBOUND:                -0.404
REMARK  Name = 
REMARK  6 active torsions:
REMARK  status: ('A' for Active; 'I' for Inactive)
REMARK    1  A    between atoms: C_1  and  C_2
REMARK    2  A    between atoms: C_2  and  C_3
REMARK    3  A    between atoms: C_2  and  C_4
REMARK    4  A    between atoms: C_2  and  C_5
REMARK    5  A    between atoms: C_12  and  C_13
REMARK    6  A    between atoms: C_13  and  C_14
REMARK                            x       y       z     vdW  Elec       q    Type
REMARK                         _______ _______ _______ _____ _____    ______ ____
ROOT
ATOM      1  C   UNL     1      48.301   4.795  17.057  0.00  0.00    +0.000 A 
ATOM      2  C   UNL     1      47.949   3.447  16.777  0.00  0.00    +0.000 A 
ATOM      3  N   UNL     1      47.569   3.242  15.515  0.00  0.00    +0.000 NA
ATOM      4  N   UNL     1      47.634   4.461  14.980  0.00  0.00    +0.000 N 
ATOM      5  C   UNL     1      48.183   5.405  15.813  0.00  0.00    +0.000 A 
ATOM      6  C   UNL     1      48.460   6.781  15.312  0.00  0.00    +0.000 C 
ATOM      7  C   UNL     1      48.416   6.821  13.785  0.00  0.00    +0.000 C 
ATOM      8  C   UNL     1      47.095   6.171  13.349  0.00  0.00    +0.000 C 
ATOM      9  N   UNL     1      47.158   4.726  13.640  0.00  0.00    +0.000 NA
ENDROOT
BRANCH   1  11
ATOM     10  C   UNL     1      48.828   4.355  19.500  0.00  0.00    +0.000 C 
ATOM     11  C   UNL     1      48.680   5.417  18.390  0.00  0.00    +0.000 C 
ATOM     12  C   UNL     1      47.573   6.400  18.843  0.00  0.00    +0.000 C 
ATOM     13  C   UNL     1      50.016   6.178  18.308  0.00  0.00    +0.000 C 
ENDBRANCH   1  11
BRANCH   8  14
ATOM     14  C   UNL     1      46.813   6.469  11.867  0.00  0.00    +0.000 C 
BRANCH  14  15
ATOM     15  C   UNL     1      45.398   6.099  11.361  0.00  0.00    +0.000 C 
ATOM     16  C   UNL     1      44.463   5.916  12.574  0.00  0.00    +0.000 C 
ATOM     17  C   UNL     1      43.055   5.502  12.160  0.00  0.00    +0.000 C 
ATOM     18  C   UNL     1      43.077   4.235  11.314  0.00  0.00    +0.000 C 
ATOM     19  C   UNL     1      43.968   4.410  10.093  0.00  0.00    +0.000 C 
ATOM     20  C   UNL     1      45.382   4.837  10.479  0.00  0.00    +0.000 C 
ENDBRANCH  14  15
ENDBRANCH   8  14
TORSDOF 3
ENDMDL
MODEL 6
REMARK VINA RESULT:    -5.706      3.553      5.568
REMARK INTER + INTRA:          -7.111
REMARK INTER:                  -6.689
REMARK INTRA:                  -0.422
REMARK UNBOUND:                -0.404
REMARK  Name = 
REMARK  6 active torsions:
REMARK  status: ('A' for Active; 'I' for Inactive)
REMARK    1  A    between atoms: C_1  and  C_2
REMARK    2  A    between atoms: C_2  and  C_3
REMARK    3  A    between atoms: C_2  and  C_4
REMARK    4  A    between atoms: C_2  and  C_5
REMARK    5  A    between atoms: C_12  and  C_13
REMARK    6  A    between atoms: C_13  and  C_14
REMARK                            x       y       z     vdW  Elec       q    Type
REMARK                         _______ _______ _______ _____ _____    ______ ____
ROOT
ATOM      1  C   UNL     1      48.436   4.727  18.189  0.00  0.00    +0.000 A 
ATOM      2  C   UNL     1      48.141   3.338  18.137  0.00  0.00    +0.000 A 
ATOM      3  N   UNL     1      47.778   2.911  16.926  0.00  0.00    +0.000 NA
ATOM      4  N   UNL     1      47.797   4.025  16.195  0.00  0.00    +0.000 N 
ATOM      5  C   UNL     1      48.302   5.117  16.860  0.00  0.00    +0.000 A 
ATOM      6  C   UNL     1      48.527   6.400  16.136  0.00  0.00    +0.000 C 
ATOM      7  C   UNL     1      48.493   6.184  14.625  0.00  0.00    +0.000 C 
ATOM      8  C   UNL     1      47.202   5.417  14.302  0.00  0.00    +0.000 C 
ATOM      9  N   UNL     1      47.321   4.044  14.830  0.00  0.00    +0.000 NA
ENDROOT
BRANCH   1  11
ATOM     10  C   UNL     1      50.180   6.213  19.280  0.00  0.00    +0.000 C 
ATOM     11  C   UNL     1      48.779   5.578  19.400  0.00  0.00    +0.000 C 
ATOM     12  C   UNL     1      48.782   4.698  20.673  0.00  0.00    +0.000 C 
ATOM     13  C   UNL     1      47.773   6.728  19.594  0.00  0.00    +0.000 C 
ENDBRANCH   1  11
BRANCH   8  14
ATOM     14  C   UNL     1      46.920   5.452  12.791  0.00  0.00    +0.000 C 
BRANCH  14  15
ATOM     15  C   UNL     1      45.550   4.885  12.347  0.00  0.00    +0.000 C 
ATOM     16  C   UNL     1      45.305   5.260  10.871  0.00  0.00    +0.000 C 
ATOM     17  C   UNL     1      43.949   4.775  10.369  0.00  0.00    +0.000 C 
ATOM     18  C   UNL     1      42.816   5.300  11.243  0.00  0.00    +0.000 C 
ATOM     19  C   UNL     1      43.024   4.908  12.699  0.00  0.00    +0.000 C 
ATOM     20  C   UNL     1      44.381   5.371  13.223  0.00  0.00    +0.000 C 
ENDBRANCH  14  15
ENDBRANCH   8  14
TORSDOF 3
ENDMDL
MODEL 7
REMARK VINA RESULT:    -5.704      1.519      2.424
REMARK INTER + INTRA:          -7.108
REMARK INTER:                  -6.681
REMARK INTRA:                  -0.428
REMARK UNBOUND:                -0.404
REMARK  Name = 
REMARK  6 active torsions:
REMARK  status: ('A' for Active; 'I' for Inactive)
REMARK    1  A    between atoms: C_1  and  C_2
REMARK    2  A    between atoms: C_2  and  C_3
REMARK    3  A    between atoms: C_2  and  C_4
REMARK    4  A    between atoms: C_2  and  C_5
REMARK    5  A    between atoms: C_12  and  C_13
REMARK    6  A    between atoms: C_13  and  C_14
REMARK                            x       y       z     vdW  Elec       q    Type
REMARK                         _______ _______ _______ _____ _____    ______ ____
ROOT
ATOM      1  C   UNL     1      46.923   5.306  13.958  0.00  0.00    +0.000 A 
ATOM      2  C   UNL     1      47.142   6.639  13.515  0.00  0.00    +0.000 A 
ATOM      3  N   UNL     1      46.620   6.898  12.314  0.00  0.00    +0.000 NA
ATOM      4  N   UNL     1      46.097   5.726  11.954  0.00  0.00    +0.000 N 
ATOM      5  C   UNL     1      46.134   4.773  12.943  0.00  0.00    +0.000 A 
ATOM      6  C   UNL     1      45.458   3.460  12.749  0.00  0.00    +0.000 C 
ATOM      7  C   UNL     1      44.487   3.519  11.571  0.00  0.00    +0.000 C 
ATOM      8  C   UNL     1      45.257   4.093  10.373  0.00  0.00    +0.000 C 
ATOM      9  N   UNL     1      45.548   5.515  10.633  0.00  0.00    +0.000 NA
ENDROOT
BRANCH   1  11
ATOM     10  C   UNL     1      47.980   3.208  14.917  0.00  0.00    +0.000 C 
ATOM     11  C   UNL     1      47.450   4.627  15.210  0.00  0.00    +0.000 C 
ATOM     12  C   UNL     1      46.309   4.484  16.247  0.00  0.00    +0.000 C 
ATOM     13  C   UNL     1      48.604   5.421  15.850  0.00  0.00    +0.000 C 
ENDBRANCH   1  11
BRANCH   8  14
ATOM     14  C   UNL     1      44.467   3.874   9.072  0.00  0.00    +0.000 C 
BRANCH  14  15
ATOM     15  C   UNL     1      45.164   3.008   7.996  0.00  0.00    +0.000 C 
ATOM     16  C   UNL     1      45.785   1.769   8.672  0.00  0.00    +0.000 C 
ATOM     17  C   UNL     1      46.535   0.885   7.681  0.00  0.00    +0.000 C 
ATOM     18  C   UNL     1      47.607   1.673   6.938  0.00  0.00    +0.000 C 
ATOM     19  C   UNL     1      47.006   2.882   6.235  0.00  0.00    +0.000 C 
ATOM     20  C   UNL     1      46.238   3.778   7.203  0.00  0.00    +0.000 C 
ENDBRANCH  14  15
ENDBRANCH   8  14
TORSDOF 3
ENDMDL
MODEL 8
REMARK VINA RESULT:    -5.677      2.193      7.752
REMARK INTER + INTRA:          -7.076
REMARK INTER:                  -6.642
REMARK INTRA:                  -0.435
REMARK UNBOUND:                -0.404
REMARK  Name = 
REMARK  6 active torsions:
REMARK  status: ('A' for Active; 'I' for Inactive)
REMARK    1  A    between atoms: C_1  and  C_2
REMARK    2  A    between atoms: C_2  and  C_3
REMARK    3  A    between atoms: C_2  and  C_4
REMARK    4  A    between atoms: C_2  and  C_5
REMARK    5  A    between atoms: C_12  and  C_13
REMARK    6  A    between atoms: C_13  and  C_14
REMARK                            x       y       z     vdW  Elec       q    Type
REMARK                         _______ _______ _______ _____ _____    ______ ____
ROOT
ATOM      1  C   UNL     1      45.465   4.331  11.817  0.00  0.00    +0.000 A 
ATOM      2  C   UNL     1      45.658   3.267  12.740  0.00  0.00    +0.000 A 
ATOM      3  N   UNL     1      46.473   3.575  13.751  0.00  0.00    +0.000 NA
ATOM      4  N   UNL     1      46.843   4.824  13.470  0.00  0.00    +0.000 N 
ATOM      5  C   UNL     1      46.178   5.373  12.400  0.00  0.00    +0.000 A 
ATOM      6  C   UNL     1      46.371   6.809  12.051  0.00  0.00    +0.000 C 
ATOM      7  C   UNL     1      47.032   7.563  13.204  0.00  0.00    +0.000 C 
ATOM      8  C   UNL     1      48.281   6.769  13.612  0.00  0.00    +0.000 C 
ATOM      9  N   UNL     1      47.856   5.506  14.245  0.00  0.00    +0.000 NA
ENDROOT
BRANCH   1  11
ATOM     10  C   UNL     1      45.508   4.953   9.358  0.00  0.00    +0.000 C 
ATOM     11  C   UNL     1      44.697   4.319  10.507  0.00  0.00    +0.000 C 
ATOM     12  C   UNL     1      43.394   5.143  10.655  0.00  0.00    +0.000 C 
ATOM     13  C   UNL     1      44.332   2.888  10.070  0.00  0.00    +0.000 C 
ENDBRANCH   1  11
BRANCH   8  14
ATOM     14  C   UNL     1      49.183   7.618  14.524  0.00  0.00    +0.000 C 
BRANCH  14  15
ATOM     15  C   UNL     1      48.640   7.888  15.948  0.00  0.00    +0.000 C 
ATOM     16  C   UNL     1      48.438   9.406  16.129  0.00  0.00    +0.000 C 
ATOM     17  C   UNL     1      47.947   9.761  17.529  0.00  0.00    +0.000 C 
ATOM     18  C   UNL     1      48.890   9.222  18.599  0.00  0.00    +0.000 C 
ATOM     19  C   UNL     1      49.073   7.718  18.456  0.00  0.00    +0.000 C 
ATOM     20  C   UNL     1      49.552   7.334  17.058  0.00  0.00    +0.000 C 
ENDBRANCH  14  15
ENDBRANCH   8  14
TORSDOF 3
ENDMDL
MODEL 9
REMARK VINA RESULT:    -5.421      3.698      7.221
REMARK INTER + INTRA:          -6.776
REMARK INTER:                  -6.545
REMARK INTRA:                  -0.231
REMARK UNBOUND:                -0.404
REMARK  Name = 
REMARK  6 active torsions:
REMARK  status: ('A' for Active; 'I' for Inactive)
REMARK    1  A    between atoms: C_1  and  C_2
REMARK    2  A    between atoms: C_2  and  C_3
REMARK    3  A    between atoms: C_2  and  C_4
REMARK    4  A    between atoms: C_2  and  C_5
REMARK    5  A    between atoms: C_12  and  C_13
REMARK    6  A    between atoms: C_13  and  C_14
REMARK                            x       y       z     vdW  Elec       q    Type
REMARK                         _______ _______ _______ _____ _____    ______ ____
ROOT
ATOM      1  C   UNL     1      46.627   6.479  12.725  0.00  0.00    +0.000 A 
ATOM      2  C   UNL     1      47.680   7.433  12.678  0.00  0.00    +0.000 A 
ATOM      3  N   UNL     1      48.589   7.278  13.643  0.00  0.00    +0.000 NA
ATOM      4  N   UNL     1      48.111   6.250  14.344  0.00  0.00    +0.000 N 
ATOM      5  C   UNL     1      47.013   5.651  13.774  0.00  0.00    +0.000 A 
ATOM      6  C   UNL     1      46.452   4.400  14.357  0.00  0.00    +0.000 C 
ATOM      7  C   UNL     1      47.445   3.760  15.325  0.00  0.00    +0.000 C 
ATOM      8  C   UNL     1      47.890   4.850  16.310  0.00  0.00    +0.000 C 
ATOM      9  N   UNL     1      48.720   5.832  15.587  0.00  0.00    +0.000 NA
ENDROOT
BRANCH   1  11
ATOM     10  C   UNL     1      44.194   5.766  12.620  0.00  0.00    +0.000 C 
ATOM     11  C   UNL     1      45.378   6.405  11.864  0.00  0.00    +0.000 C 
ATOM     12  C   UNL     1      45.652   5.529  10.618  0.00  0.00    +0.000 C 
ATOM     13  C   UNL     1      44.921   7.800  11.399  0.00  0.00    +0.000 C 
ENDBRANCH   1  11
BRANCH   8  14
ATOM     14  C   UNL     1      48.618   4.224  17.512  0.00  0.00    +0.000 C 
BRANCH  14  15
ATOM     15  C   UNL     1      50.046   3.696  17.235  0.00  0.00    +0.000 C 
ATOM     16  C   UNL     1      50.057   2.164  17.409  0.00  0.00    +0.000 C 
ATOM     17  C   UNL     1      51.446   1.569  17.199  0.00  0.00    +0.000 C 
ATOM     18  C   UNL     1      52.470   2.213  18.126  0.00  0.00    +0.000 C 
ATOM     19  C   UNL     1      52.497   3.724  17.943  0.00  0.00    +0.000 C 
ATOM     20  C   UNL     1      51.115   4.344  18.135  0.00  0.00    +0.000 C 
ENDBRANCH  14  15
ENDBRANCH   8  14
TORSDOF 3
ENDMDL
