MODEL 1
REMARK VINA RESULT:    -7.718      0.000      0.000
REMARK INTER + INTRA:         -10.411
REMARK INTER:                 -10.425
REMARK INTRA:                   0.014
REMARK UNBOUND:                 0.014
REMARK  Name = 
REMARK  7 active torsions:
REMARK  status: ('A' for Active; 'I' for Inactive)
REMARK    1  A    between atoms: C_1  and  O_2
REMARK    2  A    between atoms: O_2  and  C_3
REMARK    3  A    between atoms: C_5  and  C_6
REMARK    4  A    between atoms: C_11  and  C_12
REMARK    5  A    between atoms: C_12  and  C_13
REMARK    6  A    between atoms: C_17  and  O_18
REMARK    7  A    between atoms: O_18  and  C_19
REMARK                            x       y       z     vdW  Elec       q    Type
REMARK                         _______ _______ _______ _____ _____    ______ ____
ROOT
ATOM      1  C   UNL     1      44.219   4.195  11.524  0.00  0.00    +0.000 C 
ATOM      2  C   UNL     1      42.751   4.375  11.864  0.00  0.00    +0.000 C 
ATOM      3  C   UNL     1      43.429   3.091  12.219  0.00  0.00    +0.000 C 
ENDROOT
BRANCH   1   9
ATOM      4  C   UNL     1      45.371   6.359  12.403  0.00  0.00    +0.000 A 
ATOM      5  C   UNL     1      46.433   6.953  13.091  0.00  0.00    +0.000 A 
ATOM      6  C   UNL     1      47.400   6.128  13.645  0.00  0.00    +0.000 A 
ATOM      7  N   UNL     1      47.382   4.771  13.571  0.00  0.00    +0.000 NA
ATOM      8  C   UNL     1      46.327   4.239  12.924  0.00  0.00    +0.000 A 
ATOM      9  C   UNL     1      45.275   4.954  12.338  0.00  0.00    +0.000 A 
BRANCH   6  10
ATOM     10  C   UNL     1      48.562   6.716  14.373  0.00  0.00    +0.000 C 
ATOM     11  N   UNL     1      48.348   6.945  15.711  0.00  0.00    +0.000 N 
ATOM     12  O   UNL     1      49.636   6.965  13.843  0.00  0.00    +0.000 OA
ATOM     13  H   UNL     1      47.437   6.715  16.101  0.00  0.00    +0.000 HD
ATOM     14  H   UNL     1      49.069   7.358  16.279  0.00  0.00    +0.000 HD
ENDBRANCH   6  10
BRANCH   4  16
ATOM     15  C   UNL     1      44.730   8.414  11.395  0.00  0.00    +0.000 C 
ATOM     16  O   UNL     1      44.386   7.080  11.784  0.00  0.00    +0.000 OA
ENDBRANCH   4  16
ENDBRANCH   1   9
BRANCH   1  17
ATOM     17  C   UNL     1      44.686   3.964  10.091  0.00  0.00    +0.000 A 
ATOM     18  C   UNL     1      45.165   5.010   9.297  0.00  0.00    +0.000 A 
ATOM     19  C   UNL     1      46.012   4.746   8.221  0.00  0.00    +0.000 A 
ATOM     20  C   UNL     1      46.374   3.432   7.909  0.00  0.00    +0.000 A 
ATOM     21  C   UNL     1      45.784   2.369   8.580  0.00  0.00    +0.000 A 
ATOM     22  C   UNL     1      44.921   2.649   9.644  0.00  0.00    +0.000 A 
BRANCH  21  23
ATOM     23  O   UNL     1      45.988   1.039   8.390  0.00  0.00    +0.000 OA
BRANCH  23  24
ATOM     24  C   UNL     1      46.846   0.551   7.375  0.00  0.00    +0.000 C 
ATOM     25  F   UNL     1      46.519   0.957   6.133  0.00  0.00    +0.000 F 
ATOM     26  F   UNL     1      48.120   0.913   7.640  0.00  0.00    +0.000 F 
ATOM     27  F   UNL     1      46.782  -0.801   7.391  0.00  0.00    +0.000 F 
ENDBRANCH  23  24
ENDBRANCH  21  23
ENDBRANCH   1  17
TORSDOF 6
ENDMDL
MODEL 2
REMARK VINA RESULT:    -7.448      3.777      6.560
REMARK INTER + INTRA:         -10.046
REMARK INTER:                  -9.683
REMARK INTRA:                  -0.364
REMARK UNBOUND:                 0.014
REMARK  Name = 
REMARK  7 active torsions:
REMARK  status: ('A' for Active; 'I' for Inactive)
REMARK    1  A    between atoms: C_1  and  O_2
REMARK    2  A    between atoms: O_2  and  C_3
REMARK    3  A    between atoms: C_5  and  C_6
REMARK    4  A    between atoms: C_11  and  C_12
REMARK    5  A    between atoms: C_12  and  C_13
REMARK    6  A    between atoms: C_17  and  O_18
REMARK    7  A    between atoms: O_18  and  C_19
REMARK                            x       y       z     vdW  Elec       q    Type
REMARK                         _______ _______ _______ _____ _____    ______ ____
ROOT
ATOM      1  C   UNL     1      43.922   5.658  11.532  0.00  0.00    +0.000 C 
ATOM      2  C   UNL     1      42.456   5.550  11.907  0.00  0.00    +0.000 C 
ATOM      3  C   UNL     1      42.948   6.795  11.240  0.00  0.00    +0.000 C 
ENDROOT
BRANCH   1   9
ATOM      4  C   UNL     1      44.129   3.488  10.107  0.00  0.00    +0.000 A 
ATOM      5  C   UNL     1      44.747   2.801   9.058  0.00  0.00    +0.000 A 
ATOM      6  C   UNL     1      45.717   3.463   8.320  0.00  0.00    +0.000 A 
ATOM      7  N   UNL     1      46.104   4.746   8.543  0.00  0.00    +0.000 NA
ATOM      8  C   UNL     1      45.462   5.381   9.542  0.00  0.00    +0.000 A 
ATOM      9  C   UNL     1      44.454   4.838  10.349  0.00  0.00    +0.000 A 
BRANCH   6  10
ATOM     10  C   UNL     1      46.419   2.765   7.204  0.00  0.00    +0.000 C 
ATOM     11  N   UNL     1      46.788   3.575   6.158  0.00  0.00    +0.000 N 
ATOM     12  O   UNL     1      46.672   1.568   7.208  0.00  0.00    +0.000 OA
ATOM     13  H   UNL     1      46.555   4.564   6.208  0.00  0.00    +0.000 HD
ATOM     14  H   UNL     1      47.249   3.189   5.351  0.00  0.00    +0.000 HD
ENDBRANCH   6  10
BRANCH   4  16
ATOM     15  C   UNL     1      43.692   2.151  12.023  0.00  0.00    +0.000 C 
ATOM     16  O   UNL     1      43.190   2.917  10.922  0.00  0.00    +0.000 OA
ENDBRANCH   4  16
ENDBRANCH   1   9
BRANCH   1  17
ATOM     17  C   UNL     1      45.004   5.878  12.584  0.00  0.00    +0.000 A 
ATOM     18  C   UNL     1      45.440   4.842  13.416  0.00  0.00    +0.000 A 
ATOM     19  C   UNL     1      46.702   4.898  14.006  0.00  0.00    +0.000 A 
ATOM     20  C   UNL     1      47.537   6.000  13.793  0.00  0.00    +0.000 A 
ATOM     21  C   UNL     1      47.063   7.109  13.106  0.00  0.00    +0.000 A 
ATOM     22  C   UNL     1      45.788   7.046  12.536  0.00  0.00    +0.000 A 
BRANCH  21  23
ATOM     23  O   UNL     1      47.715   8.271  12.834  0.00  0.00    +0.000 OA
BRANCH  23  24
ATOM     24  C   UNL     1      48.801   8.324  11.928  0.00  0.00    +0.000 C 
ATOM     25  F   UNL     1      48.954   9.516  11.318  0.00  0.00    +0.000 F 
ATOM     26  F   UNL     1      49.947   8.003  12.567  0.00  0.00    +0.000 F 
ATOM     27  F   UNL     1      48.585   7.399  10.964  0.00  0.00    +0.000 F 
ENDBRANCH  23  24
ENDBRANCH  21  23
ENDBRANCH   1  17
TORSDOF 6
ENDMDL
MODEL 3
REMARK VINA RESULT:    -7.413      2.195      2.982
REMARK INTER + INTRA:          -9.999
REMARK INTER:                  -9.725
REMARK INTRA:                  -0.273
REMARK UNBOUND:                 0.014
REMARK  Name = 
REMARK  7 active torsions:
REMARK  status: ('A' for Active; 'I' for Inactive)
REMARK    1  A    between atoms: C_1  and  O_2
REMARK    2  A    between atoms: O_2  and  C_3
REMARK    3  A    between atoms: C_5  and  C_6
REMARK    4  A    between atoms: C_11  and  C_12
REMARK    5  A    between atoms: C_12  and  C_13
REMARK    6  A    between atoms: C_17  and  O_18
REMARK    7  A    between atoms: O_18  and  C_19
REMARK                            x       y       z     vdW  Elec       q    Type
REMARK                         _______ _______ _______ _____ _____    ______ ____
ROOT
ATOM      1  C   UNL     1      44.089   5.420  11.572  0.00  0.00    +0.000 C 
ATOM      2  C   UNL     1      42.664   5.930  11.487  0.00  0.00    +0.000 C 
ATOM      3  C   UNL     1      43.084   5.139  12.684  0.00  0.00    +0.000 C 
ENDROOT
BRANCH   1   9
ATOM      4  C   UNL     1      46.397   6.097  12.572  0.00  0.00    +0.000 A 
ATOM      5  C   UNL     1      47.326   7.100  12.863  0.00  0.00    +0.000 A 
ATOM      6  C   UNL     1      47.029   8.401  12.484  0.00  0.00    +0.000 A 
ATOM      7  N   UNL     1      45.893   8.767  11.835  0.00  0.00    +0.000 NA
ATOM      8  C   UNL     1      45.039   7.766  11.547  0.00  0.00    +0.000 A 
ATOM      9  C   UNL     1      45.225   6.412  11.855  0.00  0.00    +0.000 A 
BRANCH   6  10
ATOM     10  C   UNL     1      47.980   9.508  12.790  0.00  0.00    +0.000 C 
ATOM     11  N   UNL     1      47.397  10.743  12.945  0.00  0.00    +0.000 N 
ATOM     12  O   UNL     1      49.186   9.348  12.916  0.00  0.00    +0.000 OA
ATOM     13  H   UNL     1      46.389  10.819  12.832  0.00  0.00    +0.000 HD
ATOM     14  H   UNL     1      47.962  11.554  13.134  0.00  0.00    +0.000 HD
ENDBRANCH   6  10
BRANCH   4  16
ATOM     15  C   UNL     1      46.707   4.539  14.341  0.00  0.00    +0.000 C 
ATOM     16  O   UNL     1      46.571   4.790  12.937  0.00  0.00    +0.000 OA
ENDBRANCH   4  16
ENDBRANCH   1   9
BRANCH   1  17
ATOM     17  C   UNL     1      44.575   4.253  10.717  0.00  0.00    +0.000 A 
ATOM     18  C   UNL     1      44.168   2.939  10.968  0.00  0.00    +0.000 A 
ATOM     19  C   UNL     1      44.204   1.986   9.952  0.00  0.00    +0.000 A 
ATOM     20  C   UNL     1      44.669   2.324   8.677  0.00  0.00    +0.000 A 
ATOM     21  C   UNL     1      45.229   3.574   8.450  0.00  0.00    +0.000 A 
ATOM     22  C   UNL     1      45.204   4.514   9.485  0.00  0.00    +0.000 A 
BRANCH  21  23
ATOM     23  O   UNL     1      45.756   4.061   7.296  0.00  0.00    +0.000 OA
BRANCH  23  24
ATOM     24  C   UNL     1      46.687   3.320   6.528  0.00  0.00    +0.000 C 
ATOM     25  F   UNL     1      46.306   2.054   6.268  0.00  0.00    +0.000 F 
ATOM     26  F   UNL     1      46.931   3.958   5.363  0.00  0.00    +0.000 F 
ATOM     27  F   UNL     1      47.846   3.261   7.224  0.00  0.00    +0.000 F 
ENDBRANCH  23  24
ENDBRANCH  21  23
ENDBRANCH   1  17
TORSDOF 6
ENDMDL
MODEL 4
REMARK VINA RESULT:    -7.367      1.643      2.199
REMARK INTER + INTRA:          -9.936
REMARK INTER:                  -9.793
REMARK INTRA:                  -0.143
REMARK UNBOUND:                 0.014
REMARK  Name = 
REMARK  7 active torsions:
REMARK  status: ('A' for Active; 'I' for Inactive)
REMARK    1  A    between atoms: C_1  and  O_2
REMARK    2  A    between atoms: O_2  and  C_3
REMARK    3  A    between atoms: C_5  and  C_6
REMARK    4  A    between atoms: C_11  and  C_12
REMARK    5  A    between atoms: C_12  and  C_13
REMARK    6  A    between atoms: C_17  and  O_18
REMARK    7  A    between atoms: O_18  and  C_19
REMARK                            x       y       z     vdW  Elec       q    Type
REMARK                         _______ _______ _______ _____ _____    ______ ____
ROOT
ATOM      1  C   UNL     1      44.378   5.364  11.695  0.00  0.00    +0.000 C 
ATOM      2  C   UNL     1      43.234   6.314  11.394  0.00  0.00    +0.000 C 
ATOM      3  C   UNL     1      43.069   5.294  12.474  0.00  0.00    +0.000 C 
ENDROOT
BRANCH   1   9
ATOM      4  C   UNL     1      46.130   7.203  12.269  0.00  0.00    +0.000 A 
ATOM      5  C   UNL     1      47.330   7.558  12.890  0.00  0.00    +0.000 A 
ATOM      6  C   UNL     1      48.022   6.581  13.590  0.00  0.00    +0.000 A 
ATOM      7  N   UNL     1      47.605   5.294  13.721  0.00  0.00    +0.000 NA
ATOM      8  C   UNL     1      46.430   5.002  13.132  0.00  0.00    +0.000 A 
ATOM      9  C   UNL     1      45.624   5.896  12.415  0.00  0.00    +0.000 A 
BRANCH   6  10
ATOM     10  C   UNL     1      49.317   6.907  14.254  0.00  0.00    +0.000 C 
ATOM     11  N   UNL     1      50.165   7.695  13.512  0.00  0.00    +0.000 N 
ATOM     12  O   UNL     1      49.615   6.529  15.378  0.00  0.00    +0.000 OA
ATOM     13  H   UNL     1      49.865   7.984  12.583  0.00  0.00    +0.000 HD
ATOM     14  H   UNL     1      51.069   7.950  13.870  0.00  0.00    +0.000 HD
ENDBRANCH   6  10
BRANCH   4  16
ATOM     15  C   UNL     1      45.318   9.422  12.009  0.00  0.00    +0.000 C 
ATOM     16  O   UNL     1      45.390   8.078  11.521  0.00  0.00    +0.000 OA
ENDBRANCH   4  16
ENDBRANCH   1   9
BRANCH   1  17
ATOM     17  C   UNL     1      44.730   4.212  10.757  0.00  0.00    +0.000 A 
ATOM     18  C   UNL     1      44.245   2.918  10.970  0.00  0.00    +0.000 A 
ATOM     19  C   UNL     1      44.156   2.018   9.910  0.00  0.00    +0.000 A 
ATOM     20  C   UNL     1      44.570   2.389   8.627  0.00  0.00    +0.000 A 
ATOM     21  C   UNL     1      45.203   3.608   8.425  0.00  0.00    +0.000 A 
ATOM     22  C   UNL     1      45.304   4.493   9.503  0.00  0.00    +0.000 A 
BRANCH  21  23
ATOM     23  O   UNL     1      45.697   4.116   7.265  0.00  0.00    +0.000 OA
BRANCH  23  24
ATOM     24  C   UNL     1      46.673   3.430   6.504  0.00  0.00    +0.000 C 
ATOM     25  F   UNL     1      46.344   2.159   6.200  0.00  0.00    +0.000 F 
ATOM     26  F   UNL     1      46.925   4.108   5.363  0.00  0.00    +0.000 F 
ATOM     27  F   UNL     1      47.815   3.391   7.229  0.00  0.00    +0.000 F 
ENDBRANCH  23  24
ENDBRANCH  21  23
ENDBRANCH   1  17
TORSDOF 6
ENDMDL
MODEL 5
REMARK VINA RESULT:    -7.340      4.201      6.836
REMARK INTER + INTRA:          -9.900
REMARK INTER:                  -9.627
REMARK INTRA:                  -0.273
REMARK UNBOUND:                 0.014
REMARK  Name = 
REMARK  7 active torsions:
REMARK  status: ('A' for Active; 'I' for Inactive)
REMARK    1  A    between atoms: C_1  and  O_2
REMARK    2  A    between atoms: O_2  and  C_3
REMARK    3  A    between atoms: C_5  and  C_6
REMARK    4  A    between atoms: C_11  and  C_12
REMARK    5  A    between atoms: C_12  and  C_13
REMARK    6  A    between atoms: C_17  and  O_18
REMARK    7  A    between atoms: O_18  and  C_19
REMARK                            x       y       z     vdW  Elec       q    Type
REMARK                         _______ _______ _______ _____ _____    ______ ____
ROOT
ATOM      1  C   UNL     1      45.118   5.632  11.606  0.00  0.00    +0.000 C 
ATOM      2  C   UNL     1      43.708   5.880  12.108  0.00  0.00    +0.000 C 
ATOM      3  C   UNL     1      44.443   6.987  11.421  0.00  0.00    +0.000 C 
ENDROOT
BRANCH   1   9
ATOM      4  C   UNL     1      45.151   3.353  10.347  0.00  0.00    +0.000 A 
ATOM      5  C   UNL     1      45.467   2.628   9.194  0.00  0.00    +0.000 A 
ATOM      6  C   UNL     1      46.007   3.313   8.115  0.00  0.00    +0.000 A 
ATOM      7  N   UNL     1      46.243   4.651   8.099  0.00  0.00    +0.000 NA
ATOM      8  C   UNL     1      45.897   5.315   9.219  0.00  0.00    +0.000 A 
ATOM      9  C   UNL     1      45.328   4.751  10.368  0.00  0.00    +0.000 A 
BRANCH   6  10
ATOM     10  C   UNL     1      46.377   2.580   6.870  0.00  0.00    +0.000 C 
ATOM     11  N   UNL     1      46.780   1.280   7.063  0.00  0.00    +0.000 N 
ATOM     12  O   UNL     1      46.317   3.073   5.752  0.00  0.00    +0.000 OA
ATOM     13  H   UNL     1      46.808   0.920   8.014  0.00  0.00    +0.000 HD
ATOM     14  H   UNL     1      47.068   0.714   6.283  0.00  0.00    +0.000 HD
ENDBRANCH   6  10
BRANCH   4  16
ATOM     15  C   UNL     1      43.246   2.503  11.487  0.00  0.00    +0.000 C 
ATOM     16  O   UNL     1      44.653   2.771  11.480  0.00  0.00    +0.000 OA
ENDBRANCH   4  16
ENDBRANCH   1   9
BRANCH   1  17
ATOM     17  C   UNL     1      46.303   5.533  12.563  0.00  0.00    +0.000 A 
ATOM     18  C   UNL     1      47.354   6.455  12.527  0.00  0.00    +0.000 A 
ATOM     19  C   UNL     1      48.148   6.659  13.654  0.00  0.00    +0.000 A 
ATOM     20  C   UNL     1      47.919   5.929  14.825  0.00  0.00    +0.000 A 
ATOM     21  C   UNL     1      46.990   4.898  14.832  0.00  0.00    +0.000 A 
ATOM     22  C   UNL     1      46.214   4.692  13.688  0.00  0.00    +0.000 A 
BRANCH  21  23
ATOM     23  O   UNL     1      46.662   4.069  15.859  0.00  0.00    +0.000 OA
BRANCH  23  24
ATOM     24  C   UNL     1      47.645   3.359  16.590  0.00  0.00    +0.000 C 
ATOM     25  F   UNL     1      48.597   4.139  17.139  0.00  0.00    +0.000 F 
ATOM     26  F   UNL     1      47.055   2.629  17.561  0.00  0.00    +0.000 F 
ATOM     27  F   UNL     1      48.259   2.505  15.739  0.00  0.00    +0.000 F 
ENDBRANCH  23  24
ENDBRANCH  21  23
ENDBRANCH   1  17
TORSDOF 6
ENDMDL
MODEL 6
REMARK VINA RESULT:    -7.203      2.001      2.976
REMARK INTER + INTRA:          -9.716
REMARK INTER:                  -9.281
REMARK INTRA:                  -0.435
REMARK UNBOUND:                 0.014
REMARK  Name = 
REMARK  7 active torsions:
REMARK  status: ('A' for Active; 'I' for Inactive)
REMARK    1  A    between atoms: C_1  and  O_2
REMARK    2  A    between atoms: O_2  and  C_3
REMARK    3  A    between atoms: C_5  and  C_6
REMARK    4  A    between atoms: C_11  and  C_12
REMARK    5  A    between atoms: C_12  and  C_13
REMARK    6  A    between atoms: C_17  and  O_18
REMARK    7  A    between atoms: O_18  and  C_19
REMARK                            x       y       z     vdW  Elec       q    Type
REMARK                         _______ _______ _______ _____ _____    ______ ____
ROOT
ATOM      1  C   UNL     1      45.155   5.915  11.611  0.00  0.00    +0.000 C 
ATOM      2  C   UNL     1      44.125   6.996  11.346  0.00  0.00    +0.000 C 
ATOM      3  C   UNL     1      43.981   6.135  12.559  0.00  0.00    +0.000 C 
ENDROOT
BRANCH   1   9
ATOM      4  C   UNL     1      47.206   5.761  13.208  0.00  0.00    +0.000 A 
ATOM      5  C   UNL     1      48.442   6.269  13.619  0.00  0.00    +0.000 A 
ATOM      6  C   UNL     1      48.967   7.355  12.934  0.00  0.00    +0.000 A 
ATOM      7  N   UNL     1      48.361   7.958  11.878  0.00  0.00    +0.000 NA
ATOM      8  C   UNL     1      47.186   7.420  11.497  0.00  0.00    +0.000 A 
ATOM      9  C   UNL     1      46.557   6.316  12.086  0.00  0.00    +0.000 A 
BRANCH   6  10
ATOM     10  C   UNL     1      50.274   7.943  13.347  0.00  0.00    +0.000 C 
ATOM     11  N   UNL     1      50.764   7.477  14.543  0.00  0.00    +0.000 N 
ATOM     12  O   UNL     1      50.887   8.763  12.678  0.00  0.00    +0.000 OA
ATOM     13  H   UNL     1      50.214   6.793  15.056  0.00  0.00    +0.000 HD
ATOM     14  H   UNL     1      51.631   7.832  14.912  0.00  0.00    +0.000 HD
ENDBRANCH   6  10
BRANCH   4  16
ATOM     15  C   UNL     1      47.105   4.350  15.118  0.00  0.00    +0.000 C 
ATOM     16  O   UNL     1      46.580   4.721  13.839  0.00  0.00    +0.000 OA
ENDBRANCH   4  16
ENDBRANCH   1   9
BRANCH   1  17
ATOM     17  C   UNL     1      45.197   4.629  10.790  0.00  0.00    +0.000 A 
ATOM     18  C   UNL     1      44.543   3.467  11.211  0.00  0.00    +0.000 A 
ATOM     19  C   UNL     1      44.177   2.491  10.285  0.00  0.00    +0.000 A 
ATOM     20  C   UNL     1      44.478   2.651   8.929  0.00  0.00    +0.000 A 
ATOM     21  C   UNL     1      45.267   3.715   8.512  0.00  0.00    +0.000 A 
ATOM     22  C   UNL     1      45.643   4.676   9.455  0.00  0.00    +0.000 A 
BRANCH  21  23
ATOM     23  O   UNL     1      45.684   4.008   7.252  0.00  0.00    +0.000 OA
BRANCH  23  24
ATOM     24  C   UNL     1      46.659   3.227   6.586  0.00  0.00    +0.000 C 
ATOM     25  F   UNL     1      46.400   1.905   6.583  0.00  0.00    +0.000 F 
ATOM     26  F   UNL     1      46.798   3.656   5.313  0.00  0.00    +0.000 F 
ATOM     27  F   UNL     1      47.841   3.409   7.220  0.00  0.00    +0.000 F 
ENDBRANCH  23  24
ENDBRANCH  21  23
ENDBRANCH   1  17
TORSDOF 6
ENDMDL
MODEL 7
REMARK VINA RESULT:    -6.556      2.326      3.642
REMARK INTER + INTRA:          -8.841
REMARK INTER:                  -9.452
REMARK INTRA:                   0.611
REMARK UNBOUND:                 0.014
REMARK  Name = 
REMARK  7 active torsions:
REMARK  status: ('A' for Active; 'I' for Inactive)
REMARK    1  A    between atoms: C_1  and  O_2
REMARK    2  A    between atoms: O_2  and  C_3
REMARK    3  A    between atoms: C_5  and  C_6
REMARK    4  A    between atoms: C_11  and  C_12
REMARK    5  A    between atoms: C_12  and  C_13
REMARK    6  A    between atoms: C_17  and  O_18
REMARK    7  A    between atoms: O_18  and  C_19
REMARK                            x       y       z     vdW  Elec       q    Type
REMARK                         _______ _______ _______ _____ _____    ______ ____
ROOT
ATOM      1  C   UNL     1      46.338   6.389  12.460  0.00  0.00    +0.000 C 
ATOM      2  C   UNL     1      47.152   7.541  11.901  0.00  0.00    +0.000 C 
ATOM      3  C   UNL     1      45.864   7.832  12.603  0.00  0.00    +0.000 C 
ENDROOT
BRANCH   1   9
ATOM      4  C   UNL     1      47.778   6.189  14.620  0.00  0.00    +0.000 A 
ATOM      5  C   UNL     1      48.241   5.404  15.680  0.00  0.00    +0.000 A 
ATOM      6  C   UNL     1      47.796   4.093  15.770  0.00  0.00    +0.000 A 
ATOM      7  N   UNL     1      46.926   3.520  14.898  0.00  0.00    +0.000 NA
ATOM      8  C   UNL     1      46.482   4.320  13.910  0.00  0.00    +0.000 A 
ATOM      9  C   UNL     1      46.835   5.661  13.715  0.00  0.00    +0.000 A 
BRANCH   6  10
ATOM     10  C   UNL     1      48.277   3.211  16.872  0.00  0.00    +0.000 C 
ATOM     11  N   UNL     1      47.396   3.059  17.916  0.00  0.00    +0.000 N 
ATOM     12  O   UNL     1      49.360   2.642  16.859  0.00  0.00    +0.000 OA
ATOM     13  H   UNL     1      46.508   3.552  17.874  0.00  0.00    +0.000 HD
ATOM     14  H   UNL     1      47.643   2.497  18.714  0.00  0.00    +0.000 HD
ENDBRANCH   6  10
BRANCH   4  16
ATOM     15  C   UNL     1      49.559   7.761  14.700  0.00  0.00    +0.000 C 
ATOM     16  O   UNL     1      48.185   7.479  14.414  0.00  0.00    +0.000 OA
ENDBRANCH   4  16
ENDBRANCH   1   9
BRANCH   1  17
ATOM     17  C   UNL     1      45.550   5.450  11.551  0.00  0.00    +0.000 A 
ATOM     18  C   UNL     1      44.236   5.074  11.847  0.00  0.00    +0.000 A 
ATOM     19  C   UNL     1      43.383   4.643  10.833  0.00  0.00    +0.000 A 
ATOM     20  C   UNL     1      43.836   4.559   9.512  0.00  0.00    +0.000 A 
ATOM     21  C   UNL     1      45.177   4.771   9.222  0.00  0.00    +0.000 A 
ATOM     22  C   UNL     1      46.025   5.184  10.253  0.00  0.00    +0.000 A 
BRANCH  21  23
ATOM     23  O   UNL     1      45.796   4.701   8.014  0.00  0.00    +0.000 OA
BRANCH  23  24
ATOM     24  C   UNL     1      46.277   3.476   7.490  0.00  0.00    +0.000 C 
ATOM     25  F   UNL     1      45.708   3.113   6.323  0.00  0.00    +0.000 F 
ATOM     26  F   UNL     1      47.616   3.541   7.329  0.00  0.00    +0.000 F 
ATOM     27  F   UNL     1      46.009   2.504   8.392  0.00  0.00    +0.000 F 
ENDBRANCH  23  24
ENDBRANCH  21  23
ENDBRANCH   1  17
TORSDOF 6
ENDMDL
MODEL 8
REMARK VINA RESULT:    -6.525      4.882      7.586
REMARK INTER + INTRA:          -8.800
REMARK INTER:                  -8.146
REMARK INTRA:                  -0.654
REMARK UNBOUND:                 0.014
REMARK  Name = 
REMARK  7 active torsions:
REMARK  status: ('A' for Active; 'I' for Inactive)
REMARK    1  A    between atoms: C_1  and  O_2
REMARK    2  A    between atoms: O_2  and  C_3
REMARK    3  A    between atoms: C_5  and  C_6
REMARK    4  A    between atoms: C_11  and  C_12
REMARK    5  A    between atoms: C_12  and  C_13
REMARK    6  A    between atoms: C_17  and  O_18
REMARK    7  A    between atoms: O_18  and  C_19
REMARK                            x       y       z     vdW  Elec       q    Type
REMARK                         _______ _______ _______ _____ _____    ______ ____
ROOT
ATOM      1  C   UNL     1      48.455   7.594  13.209  0.00  0.00    +0.000 C 
ATOM      2  C   UNL     1      48.838   8.614  12.154  0.00  0.00    +0.000 C 
ATOM      3  C   UNL     1      49.619   7.344  12.257  0.00  0.00    +0.000 C 
ENDROOT
BRANCH   1   9
ATOM      4  C   UNL     1      45.886   7.320  12.877  0.00  0.00    +0.000 A 
ATOM      5  C   UNL     1      44.772   6.478  12.816  0.00  0.00    +0.000 A 
ATOM      6  C   UNL     1      44.970   5.113  12.964  0.00  0.00    +0.000 A 
ATOM      7  N   UNL     1      46.184   4.534  13.157  0.00  0.00    +0.000 NA
ATOM      8  C   UNL     1      47.233   5.377  13.180  0.00  0.00    +0.000 A 
ATOM      9  C   UNL     1      47.175   6.768  13.024  0.00  0.00    +0.000 A 
BRANCH   6  10
ATOM     10  C   UNL     1      43.810   4.177  12.926  0.00  0.00    +0.000 C 
ATOM     11  N   UNL     1      44.128   2.874  12.626  0.00  0.00    +0.000 N 
ATOM     12  O   UNL     1      42.658   4.518  13.157  0.00  0.00    +0.000 OA
ATOM     13  H   UNL     1      45.103   2.646  12.445  0.00  0.00    +0.000 HD
ATOM     14  H   UNL     1      43.408   2.176  12.559  0.00  0.00    +0.000 HD
ENDBRANCH   6  10
BRANCH   4  16
ATOM     15  C   UNL     1      44.946   9.191  11.752  0.00  0.00    +0.000 C 
ATOM     16  O   UNL     1      45.799   8.682  12.784  0.00  0.00    +0.000 OA
ENDBRANCH   4  16
ENDBRANCH   1   9
BRANCH   1  17
ATOM     17  C   UNL     1      48.759   7.819  14.688  0.00  0.00    +0.000 A 
ATOM     18  C   UNL     1      48.614   9.075  15.284  0.00  0.00    +0.000 A 
ATOM     19  C   UNL     1      48.419   9.181  16.661  0.00  0.00    +0.000 A 
ATOM     20  C   UNL     1      48.389   8.037  17.464  0.00  0.00    +0.000 A 
ATOM     21  C   UNL     1      48.692   6.796  16.919  0.00  0.00    +0.000 A 
ATOM     22  C   UNL     1      48.905   6.708  15.540  0.00  0.00    +0.000 A 
BRANCH  21  23
ATOM     23  O   UNL     1      48.744   5.592  17.548  0.00  0.00    +0.000 OA
BRANCH  23  24
ATOM     24  C   UNL     1      47.598   4.773  17.690  0.00  0.00    +0.000 C 
ATOM     25  F   UNL     1      46.956   4.514  16.533  0.00  0.00    +0.000 F 
ATOM     26  F   UNL     1      47.939   3.606  18.278  0.00  0.00    +0.000 F 
ATOM     27  F   UNL     1      46.726   5.414  18.503  0.00  0.00    +0.000 F 
ENDBRANCH  23  24
ENDBRANCH  21  23
ENDBRANCH   1  17
TORSDOF 6
ENDMDL
MODEL 9
REMARK VINA RESULT:    -6.247      2.800      4.415
REMARK INTER + INTRA:          -8.424
REMARK INTER:                  -7.995
REMARK INTRA:                  -0.429
REMARK UNBOUND:                 0.014
REMARK  Name = 
REMARK  7 active torsions:
REMARK  status: ('A' for Active; 'I' for Inactive)
REMARK    1  A    between atoms: C_1  and  O_2
REMARK    2  A    between atoms: O_2  and  C_3
REMARK    3  A    between atoms: C_5  and  C_6
REMARK    4  A    between atoms: C_11  and  C_12
REMARK    5  A    between atoms: C_12  and  C_13
REMARK    6  A    between atoms: C_17  and  O_18
REMARK    7  A    between atoms: O_18  and  C_19
REMARK                            x       y       z     vdW  Elec       q    Type
REMARK                         _______ _______ _______ _____ _____    ______ ____
ROOT
ATOM      1  C   UNL     1      46.701   7.598  12.276  0.00  0.00    +0.000 C 
ATOM      2  C   UNL     1      45.912   8.761  11.706  0.00  0.00    +0.000 C 
ATOM      3  C   UNL     1      45.762   8.419  13.153  0.00  0.00    +0.000 C 
ENDROOT
BRANCH   1   9
ATOM      4  C   UNL     1      48.870   7.515  13.714  0.00  0.00    +0.000 A 
ATOM      5  C   UNL     1      50.238   7.780  13.831  0.00  0.00    +0.000 A 
ATOM      6  C   UNL     1      50.896   8.330  12.741  0.00  0.00    +0.000 A 
ATOM      7  N   UNL     1      50.300   8.622  11.555  0.00  0.00    +0.000 NA
ATOM      8  C   UNL     1      48.989   8.323  11.475  0.00  0.00    +0.000 A 
ATOM      9  C   UNL     1      48.212   7.750  12.490  0.00  0.00    +0.000 A 
BRANCH   6  10
ATOM     10  C   UNL     1      52.351   8.648  12.824  0.00  0.00    +0.000 C 
ATOM     11  N   UNL     1      53.170   7.792  12.128  0.00  0.00    +0.000 N 
ATOM     12  O   UNL     1      52.799   9.603  13.444  0.00  0.00    +0.000 OA
ATOM     13  H   UNL     1      52.743   7.016  11.628  0.00  0.00    +0.000 HD
ATOM     14  H   UNL     1      54.168   7.917  12.143  0.00  0.00    +0.000 HD
ENDBRANCH   6  10
BRANCH   4  16
ATOM     15  C   UNL     1      48.843   6.497  15.862  0.00  0.00    +0.000 C 
ATOM     16  O   UNL     1      48.117   7.012  14.739  0.00  0.00    +0.000 OA
ENDBRANCH   4  16
ENDBRANCH   1   9
BRANCH   1  17
ATOM     17  C   UNL     1      46.328   6.150  11.968  0.00  0.00    +0.000 A 
ATOM     18  C   UNL     1      46.050   5.231  12.984  0.00  0.00    +0.000 A 
ATOM     19  C   UNL     1      45.270   4.107  12.721  0.00  0.00    +0.000 A 
ATOM     20  C   UNL     1      44.775   3.871  11.434  0.00  0.00    +0.000 A 
ATOM     21  C   UNL     1      45.172   4.680  10.378  0.00  0.00    +0.000 A 
ATOM     22  C   UNL     1      45.971   5.793  10.654  0.00  0.00    +0.000 A 
BRANCH  21  23
ATOM     23  O   UNL     1      44.822   4.583   9.068  0.00  0.00    +0.000 OA
BRANCH  23  24
ATOM     24  C   UNL     1      45.555   3.786   8.155  0.00  0.00    +0.000 C 
ATOM     25  F   UNL     1      44.865   3.429   7.054  0.00  0.00    +0.000 F 
ATOM     26  F   UNL     1      46.680   4.435   7.783  0.00  0.00    +0.000 F 
ATOM     27  F   UNL     1      45.919   2.650   8.794  0.00  0.00    +0.000 F 
ENDBRANCH  23  24
ENDBRANCH  21  23
ENDBRANCH   1  17
TORSDOF 6
ENDMDL
