MODEL 1
REMARK VINA RESULT:    -7.942      0.000      0.000
REMARK INTER + INTRA:         -11.278
REMARK INTER:                 -10.728
REMARK INTRA:                  -0.550
REMARK UNBOUND:                -0.550
REMARK  Name = 
REMARK  7 active torsions:
REMARK  status: ('A' for Active; 'I' for Inactive)
REMARK    1  A    between atoms: C_1  and  C_2
REMARK    2  A    between atoms: C_2  and  N_3
REMARK    3  A    between atoms: C_2  and  C_16
REMARK    4  A    between atoms: C_4  and  C_6
REMARK    5  A    between atoms: C_19  and  C_20
REMARK    6  A    between atoms: C_20  and  N_21
REMARK    7  A    between atoms: C_22  and  C_24
REMARK                            x       y       z     vdW  Elec       q    Type
REMARK                         _______ _______ _______ _____ _____    ______ ____
ROOT
ATOM      1  C   UNL     1      47.954   9.021  12.570  0.00  0.00    +0.000 C 
ATOM      2  C   UNL     1      46.864   8.266  13.336  0.00  0.00    +0.000 C 
ENDROOT
BRANCH   2   3
ATOM      3  C   UNL     1      46.093   7.245  12.510  0.00  0.00    +0.000 A 
ATOM      4  C   UNL     1      46.657   6.782  11.309  0.00  0.00    +0.000 A 
ATOM      5  C   UNL     1      45.979   5.869  10.492  0.00  0.00    +0.000 A 
ATOM      6  C   UNL     1      44.707   5.402  10.847  0.00  0.00    +0.000 A 
ATOM      7  C   UNL     1      44.143   5.852  12.047  0.00  0.00    +0.000 A 
ATOM      8  C   UNL     1      44.821   6.772  12.862  0.00  0.00    +0.000 A 
BRANCH   6   9
ATOM      9  C   UNL     1      43.964   4.439   9.955  0.00  0.00    +0.000 C 
BRANCH   9  10
ATOM     10  N   UNL     1      44.672   4.188   8.719  0.00  0.00    +0.000 N 
ATOM     11  C   UNL     1      45.262   2.960   8.482  0.00  0.00    +0.000 C 
ATOM     12  O   UNL     1      45.281   2.061   9.316  0.00  0.00    +0.000 OA
ATOM     13  H   UNL     1      44.500   4.817   7.946  0.00  0.00    +0.000 HD
BRANCH  11  14
ATOM     14  C   UNL     1      45.828   2.811   7.075  0.00  0.00    +0.000 C 
ATOM     15  C   UNL     1      46.418   1.445   6.787  0.00  0.00    +0.000 C 
ATOM     16  C   UNL     1      47.890   1.619   7.084  0.00  0.00    +0.000 C 
ATOM     17  O   UNL     1      48.205   2.988   6.817  0.00  0.00    +0.000 OA
ATOM     18  C   UNL     1      46.993   3.755   6.834  0.00  0.00    +0.000 C 
ENDBRANCH  11  14
ENDBRANCH   9  10
ENDBRANCH   6   9
ENDBRANCH   2   3
BRANCH   2  19
ATOM     19  N   UNL     1      47.422   7.622  14.514  0.00  0.00    +0.000 N 
ATOM     20  C   UNL     1      48.548   6.840  14.448  0.00  0.00    +0.000 C 
ATOM     21  O   UNL     1      49.193   6.707  13.411  0.00  0.00    +0.000 OA
ATOM     22  H   UNL     1      46.827   7.570  15.334  0.00  0.00    +0.000 HD
BRANCH  20  23
ATOM     23  C   UNL     1      48.989   6.213  15.699  0.00  0.00    +0.000 A 
ATOM     24  C   UNL     1      50.118   6.695  16.349  0.00  0.00    +0.000 A 
ATOM     25  S   UNL     1      50.483   5.866  17.793  0.00  0.00    +0.000 S 
ATOM     26  C   UNL     1      49.180   4.795  17.570  0.00  0.00    +0.000 A 
ATOM     27  N   UNL     1      48.948   3.784  18.449  0.00  0.00    +0.000 NA
ATOM     28  C   UNL     1      47.958   3.018  18.131  0.00  0.00    +0.000 A 
ATOM     29  N   UNL     1      47.171   3.180  17.020  0.00  0.00    +0.000 N 
ATOM     30  C   UNL     1      47.328   4.224  16.139  0.00  0.00    +0.000 A 
ATOM     31  O   UNL     1      46.545   4.402  15.210  0.00  0.00    +0.000 OA
ATOM     32  C   UNL     1      48.455   5.088  16.428  0.00  0.00    +0.000 A 
ATOM     33  H   UNL     1      46.398   2.556  16.842  0.00  0.00    +0.000 HD
ENDBRANCH  20  23
ENDBRANCH   2  19
TORSDOF 6
ENDMDL
MODEL 2
REMARK VINA RESULT:    -7.729      4.540      9.090
REMARK INTER + INTRA:         -10.991
REMARK INTER:                  -9.855
REMARK INTRA:                  -1.136
REMARK UNBOUND:                -0.550
REMARK  Name = 
REMARK  7 active torsions:
REMARK  status: ('A' for Active; 'I' for Inactive)
REMARK    1  A    between atoms: C_1  and  C_2
REMARK    2  A    between atoms: C_2  and  N_3
REMARK    3  A    between atoms: C_2  and  C_16
REMARK    4  A    between atoms: C_4  and  C_6
REMARK    5  A    between atoms: C_19  and  C_20
REMARK    6  A    between atoms: C_20  and  N_21
REMARK    7  A    between atoms: C_22  and  C_24
REMARK                            x       y       z     vdW  Elec       q    Type
REMARK                         _______ _______ _______ _____ _____    ______ ____
ROOT
ATOM      1  C   UNL     1      48.285   6.830  18.119  0.00  0.00    +0.000 C 
ATOM      2  C   UNL     1      48.921   6.190  16.880  0.00  0.00    +0.000 C 
ENDROOT
BRANCH   2   3
ATOM      3  C   UNL     1      49.579   4.839  17.127  0.00  0.00    +0.000 A 
ATOM      4  C   UNL     1      50.956   4.798  17.405  0.00  0.00    +0.000 A 
ATOM      5  C   UNL     1      51.621   3.583  17.608  0.00  0.00    +0.000 A 
ATOM      6  C   UNL     1      50.929   2.368  17.523  0.00  0.00    +0.000 A 
ATOM      7  C   UNL     1      49.554   2.402  17.255  0.00  0.00    +0.000 A 
ATOM      8  C   UNL     1      48.890   3.620  17.047  0.00  0.00    +0.000 A 
BRANCH   6   9
ATOM      9  C   UNL     1      51.649   1.056  17.714  0.00  0.00    +0.000 C 
BRANCH   9  10
ATOM     10  N   UNL     1      52.979   1.242  18.252  0.00  0.00    +0.000 N 
ATOM     11  C   UNL     1      54.078   0.697  17.614  0.00  0.00    +0.000 C 
ATOM     12  O   UNL     1      53.983  -0.019  16.622  0.00  0.00    +0.000 OA
ATOM     13  H   UNL     1      53.109   1.981  18.929  0.00  0.00    +0.000 HD
BRANCH  11  14
ATOM     14  C   UNL     1      55.412   1.116  18.220  0.00  0.00    +0.000 C 
ATOM     15  C   UNL     1      55.605   0.676  19.656  0.00  0.00    +0.000 C 
ATOM     16  C   UNL     1      55.155   1.873  20.463  0.00  0.00    +0.000 C 
ATOM     17  O   UNL     1      55.416   3.029  19.664  0.00  0.00    +0.000 OA
ATOM     18  C   UNL     1      55.546   2.627  18.293  0.00  0.00    +0.000 C 
ENDBRANCH  11  14
ENDBRANCH   9  10
ENDBRANCH   6   9
ENDBRANCH   2   3
BRANCH   2  19
ATOM     19  N   UNL     1      47.944   6.071  15.811  0.00  0.00    +0.000 N 
ATOM     20  C   UNL     1      48.248   6.396  14.512  0.00  0.00    +0.000 C 
ATOM     21  O   UNL     1      49.379   6.724  14.166  0.00  0.00    +0.000 OA
ATOM     22  H   UNL     1      46.972   5.974  16.086  0.00  0.00    +0.000 HD
BRANCH  20  23
ATOM     23  C   UNL     1      47.163   6.272  13.531  0.00  0.00    +0.000 A 
ATOM     24  C   UNL     1      46.658   7.410  12.918  0.00  0.00    +0.000 A 
ATOM     25  S   UNL     1      45.415   7.088  11.796  0.00  0.00    +0.000 S 
ATOM     26  C   UNL     1      45.468   5.423  12.134  0.00  0.00    +0.000 A 
ATOM     27  N   UNL     1      44.609   4.559  11.530  0.00  0.00    +0.000 NA
ATOM     28  C   UNL     1      44.727   3.332  11.916  0.00  0.00    +0.000 A 
ATOM     29  N   UNL     1      45.634   2.889  12.843  0.00  0.00    +0.000 N 
ATOM     30  C   UNL     1      46.563   3.714  13.432  0.00  0.00    +0.000 A 
ATOM     31  O   UNL     1      47.431   3.271  14.181  0.00  0.00    +0.000 OA
ATOM     32  C   UNL     1      46.445   5.111  13.064  0.00  0.00    +0.000 A 
ATOM     33  H   UNL     1      45.687   1.911  13.084  0.00  0.00    +0.000 HD
ENDBRANCH  20  23
ENDBRANCH   2  19
TORSDOF 6
ENDMDL
MODEL 3
REMARK VINA RESULT:    -7.454      3.944      8.412
REMARK INTER + INTRA:         -10.618
REMARK INTER:                  -9.463
REMARK INTRA:                  -1.155
REMARK UNBOUND:                -0.550
REMARK  Name = 
REMARK  7 active torsions:
REMARK  status: ('A' for Active; 'I' for Inactive)
REMARK    1  A    between atoms: C_1  and  C_2
REMARK    2  A    between atoms: C_2  and  N_3
REMARK    3  A    between atoms: C_2  and  C_16
REMARK    4  A    between atoms: C_4  and  C_6
REMARK    5  A    between atoms: C_19  and  C_20
REMARK    6  A    between atoms: C_20  and  N_21
REMARK    7  A    between atoms: C_22  and  C_24
REMARK                            x       y       z     vdW  Elec       q    Type
REMARK                         _______ _______ _______ _____ _____    ______ ____
ROOT
ATOM      1  C   UNL     1      48.258   8.945  15.339  0.00  0.00    +0.000 C 
ATOM      2  C   UNL     1      48.416   7.555  14.714  0.00  0.00    +0.000 C 
ENDROOT
BRANCH   2   3
ATOM      3  C   UNL     1      48.895   6.474  15.673  0.00  0.00    +0.000 A 
ATOM      4  C   UNL     1      48.031   5.410  15.980  0.00  0.00    +0.000 A 
ATOM      5  C   UNL     1      48.406   4.405  16.881  0.00  0.00    +0.000 A 
ATOM      6  C   UNL     1      49.654   4.445  17.514  0.00  0.00    +0.000 A 
ATOM      7  C   UNL     1      50.525   5.498  17.206  0.00  0.00    +0.000 A 
ATOM      8  C   UNL     1      50.146   6.507  16.308  0.00  0.00    +0.000 A 
BRANCH   6   9
ATOM      9  C   UNL     1      50.049   3.378  18.506  0.00  0.00    +0.000 C 
BRANCH   9  10
ATOM     10  N   UNL     1      51.460   3.068  18.433  0.00  0.00    +0.000 N 
ATOM     11  C   UNL     1      51.905   1.979  17.706  0.00  0.00    +0.000 C 
ATOM     12  O   UNL     1      51.142   1.191  17.157  0.00  0.00    +0.000 OA
ATOM     13  H   UNL     1      52.112   3.796  18.692  0.00  0.00    +0.000 HD
BRANCH  11  14
ATOM     14  C   UNL     1      53.422   1.886  17.604  0.00  0.00    +0.000 C 
ATOM     15  C   UNL     1      53.929   0.545  17.113  0.00  0.00    +0.000 C 
ATOM     16  C   UNL     1      54.226  -0.214  18.386  0.00  0.00    +0.000 C 
ATOM     17  O   UNL     1      54.582   0.757  19.372  0.00  0.00    +0.000 OA
ATOM     18  C   UNL     1      54.089   2.040  18.960  0.00  0.00    +0.000 C 
ENDBRANCH  11  14
ENDBRANCH   9  10
ENDBRANCH   6   9
ENDBRANCH   2   3
BRANCH   2  19
ATOM     19  N   UNL     1      47.176   7.136  14.083  0.00  0.00    +0.000 N 
ATOM     20  C   UNL     1      47.154   6.557  12.839  0.00  0.00    +0.000 C 
ATOM     21  O   UNL     1      48.182   6.285  12.225  0.00  0.00    +0.000 OA
ATOM     22  H   UNL     1      46.315   7.499  14.479  0.00  0.00    +0.000 HD
BRANCH  20  23
ATOM     23  C   UNL     1      45.835   6.215  12.294  0.00  0.00    +0.000 A 
ATOM     24  C   UNL     1      45.039   7.212  11.744  0.00  0.00    +0.000 A 
ATOM     25  S   UNL     1      43.548   6.644  11.145  0.00  0.00    +0.000 S 
ATOM     26  C   UNL     1      43.888   5.057  11.652  0.00  0.00    +0.000 A 
ATOM     27  N   UNL     1      42.981   4.058  11.477  0.00  0.00    +0.000 NA
ATOM     28  C   UNL     1      43.349   2.915  11.953  0.00  0.00    +0.000 A 
ATOM     29  N   UNL     1      44.547   2.678  12.577  0.00  0.00    +0.000 N 
ATOM     30  C   UNL     1      45.518   3.640  12.718  0.00  0.00    +0.000 A 
ATOM     31  O   UNL     1      46.622   3.373  13.188  0.00  0.00    +0.000 OA
ATOM     32  C   UNL     1      45.137   4.953  12.239  0.00  0.00    +0.000 A 
ATOM     33  H   UNL     1      44.781   1.753  12.906  0.00  0.00    +0.000 HD
ENDBRANCH  20  23
ENDBRANCH   2  19
TORSDOF 6
ENDMDL
MODEL 4
REMARK VINA RESULT:    -7.098      1.765      2.261
REMARK INTER + INTRA:         -10.138
REMARK INTER:                  -8.967
REMARK INTRA:                  -1.171
REMARK UNBOUND:                -0.550
REMARK  Name = 
REMARK  7 active torsions:
REMARK  status: ('A' for Active; 'I' for Inactive)
REMARK    1  A    between atoms: C_1  and  C_2
REMARK    2  A    between atoms: C_2  and  N_3
REMARK    3  A    between atoms: C_2  and  C_16
REMARK    4  A    between atoms: C_4  and  C_6
REMARK    5  A    between atoms: C_19  and  C_20
REMARK    6  A    between atoms: C_20  and  N_21
REMARK    7  A    between atoms: C_22  and  C_24
REMARK                            x       y       z     vdW  Elec       q    Type
REMARK                         _______ _______ _______ _____ _____    ______ ____
ROOT
ATOM      1  C   UNL     1      50.417   8.378  12.405  0.00  0.00    +0.000 C 
ATOM      2  C   UNL     1      49.204   8.462  13.339  0.00  0.00    +0.000 C 
ENDROOT
BRANCH   2   3
ATOM      3  C   UNL     1      47.944   7.792  12.808  0.00  0.00    +0.000 A 
ATOM      4  C   UNL     1      46.893   8.600  12.341  0.00  0.00    +0.000 A 
ATOM      5  C   UNL     1      45.699   8.041  11.872  0.00  0.00    +0.000 A 
ATOM      6  C   UNL     1      45.513   6.653  11.872  0.00  0.00    +0.000 A 
ATOM      7  C   UNL     1      46.559   5.841  12.328  0.00  0.00    +0.000 A 
ATOM      8  C   UNL     1      47.753   6.403  12.802  0.00  0.00    +0.000 A 
BRANCH   6   9
ATOM      9  C   UNL     1      44.216   6.049  11.393  0.00  0.00    +0.000 C 
BRANCH   9  10
ATOM     10  N   UNL     1      44.370   5.370  10.125  0.00  0.00    +0.000 N 
ATOM     11  C   UNL     1      44.518   3.996  10.076  0.00  0.00    +0.000 C 
ATOM     12  O   UNL     1      44.599   3.301  11.084  0.00  0.00    +0.000 OA
ATOM     13  H   UNL     1      44.104   5.875   9.290  0.00  0.00    +0.000 HD
BRANCH  11  14
ATOM     14  C   UNL     1      44.510   3.426   8.663  0.00  0.00    +0.000 C 
ATOM     15  C   UNL     1      44.592   1.915   8.605  0.00  0.00    +0.000 C 
ATOM     16  C   UNL     1      46.069   1.641   8.430  0.00  0.00    +0.000 C 
ATOM     17  O   UNL     1      46.615   2.761   7.729  0.00  0.00    +0.000 OA
ATOM     18  C   UNL     1      45.724   3.876   7.868  0.00  0.00    +0.000 C 
ENDBRANCH  11  14
ENDBRANCH   9  10
ENDBRANCH   6   9
ENDBRANCH   2   3
BRANCH   2  19
ATOM     19  N   UNL     1      49.531   7.924  14.648  0.00  0.00    +0.000 N 
ATOM     20  C   UNL     1      48.942   8.397  15.795  0.00  0.00    +0.000 C 
ATOM     21  O   UNL     1      48.049   9.240  15.772  0.00  0.00    +0.000 OA
ATOM     22  H   UNL     1      50.374   7.363  14.716  0.00  0.00    +0.000 HD
BRANCH  20  23
ATOM     23  C   UNL     1      49.387   7.799  17.059  0.00  0.00    +0.000 A 
ATOM     24  C   UNL     1      49.993   8.596  18.020  0.00  0.00    +0.000 A 
ATOM     25  S   UNL     1      50.435   7.750  19.432  0.00  0.00    +0.000 S 
ATOM     26  C   UNL     1      49.885   6.277  18.785  0.00  0.00    +0.000 A 
ATOM     27  N   UNL     1      50.012   5.116  19.483  0.00  0.00    +0.000 NA
ATOM     28  C   UNL     1      49.598   4.068  18.853  0.00  0.00    +0.000 A 
ATOM     29  N   UNL     1      49.058   4.077  17.592  0.00  0.00    +0.000 N 
ATOM     30  C   UNL     1      48.851   5.232  16.877  0.00  0.00    +0.000 A 
ATOM     31  O   UNL     1      48.271   5.220  15.794  0.00  0.00    +0.000 OA
ATOM     32  C   UNL     1      49.339   6.434  17.523  0.00  0.00    +0.000 A 
ATOM     33  H   UNL     1      48.734   3.221  17.166  0.00  0.00    +0.000 HD
ENDBRANCH  20  23
ENDBRANCH   2  19
TORSDOF 6
ENDMDL
MODEL 5
REMARK VINA RESULT:    -6.886      3.040      4.591
REMARK INTER + INTRA:          -9.852
REMARK INTER:                  -8.665
REMARK INTRA:                  -1.187
REMARK UNBOUND:                -0.550
REMARK  Name = 
REMARK  7 active torsions:
REMARK  status: ('A' for Active; 'I' for Inactive)
REMARK    1  A    between atoms: C_1  and  C_2
REMARK    2  A    between atoms: C_2  and  N_3
REMARK    3  A    between atoms: C_2  and  C_16
REMARK    4  A    between atoms: C_4  and  C_6
REMARK    5  A    between atoms: C_19  and  C_20
REMARK    6  A    between atoms: C_20  and  N_21
REMARK    7  A    between atoms: C_22  and  C_24
REMARK                            x       y       z     vdW  Elec       q    Type
REMARK                         _______ _______ _______ _____ _____    ______ ____
ROOT
ATOM      1  C   UNL     1      51.041   9.168  16.017  0.00  0.00    +0.000 C 
ATOM      2  C   UNL     1      50.129   7.940  16.104  0.00  0.00    +0.000 C 
ENDROOT
BRANCH   2   3
ATOM      3  C   UNL     1      49.310   7.664  14.851  0.00  0.00    +0.000 A 
ATOM      4  C   UNL     1      48.473   6.535  14.824  0.00  0.00    +0.000 A 
ATOM      5  C   UNL     1      47.722   6.213  13.687  0.00  0.00    +0.000 A 
ATOM      6  C   UNL     1      47.798   7.005  12.535  0.00  0.00    +0.000 A 
ATOM      7  C   UNL     1      48.622   8.137  12.557  0.00  0.00    +0.000 A 
ATOM      8  C   UNL     1      49.378   8.456  13.695  0.00  0.00    +0.000 A 
BRANCH   6   9
ATOM      9  C   UNL     1      47.010   6.645  11.299  0.00  0.00    +0.000 C 
BRANCH   9  10
ATOM     10  N   UNL     1      45.963   5.689  11.584  0.00  0.00    +0.000 N 
ATOM     11  C   UNL     1      45.327   5.013  10.558  0.00  0.00    +0.000 C 
ATOM     12  O   UNL     1      45.559   5.236   9.374  0.00  0.00    +0.000 OA
ATOM     13  H   UNL     1      45.897   5.337  12.530  0.00  0.00    +0.000 HD
BRANCH  11  14
ATOM     14  C   UNL     1      44.365   3.933  11.036  0.00  0.00    +0.000 C 
ATOM     15  C   UNL     1      42.987   4.447  11.397  0.00  0.00    +0.000 C 
ATOM     16  C   UNL     1      43.067   4.674  12.890  0.00  0.00    +0.000 C 
ATOM     17  O   UNL     1      44.015   3.732  13.398  0.00  0.00    +0.000 OA
ATOM     18  C   UNL     1      44.845   3.279  12.320  0.00  0.00    +0.000 C 
ENDBRANCH  11  14
ENDBRANCH   9  10
ENDBRANCH   6   9
ENDBRANCH   2   3
BRANCH   2  19
ATOM     19  N   UNL     1      50.898   6.759  16.458  0.00  0.00    +0.000 N 
ATOM     20  C   UNL     1      50.962   6.295  17.748  0.00  0.00    +0.000 C 
ATOM     21  O   UNL     1      50.311   6.800  18.659  0.00  0.00    +0.000 OA
ATOM     22  H   UNL     1      51.573   6.430  15.776  0.00  0.00    +0.000 HD
BRANCH  20  23
ATOM     23  C   UNL     1      51.804   5.117  17.984  0.00  0.00    +0.000 A 
ATOM     24  C   UNL     1      53.095   5.281  18.470  0.00  0.00    +0.000 A 
ATOM     25  S   UNL     1      53.931   3.813  18.700  0.00  0.00    +0.000 S 
ATOM     26  C   UNL     1      52.619   2.910  18.103  0.00  0.00    +0.000 A 
ATOM     27  N   UNL     1      52.696   1.558  17.989  0.00  0.00    +0.000 NA
ATOM     28  C   UNL     1      51.648   1.006  17.475  0.00  0.00    +0.000 A 
ATOM     29  N   UNL     1      50.524   1.684  17.077  0.00  0.00    +0.000 N 
ATOM     30  C   UNL     1      50.377   3.041  17.233  0.00  0.00    +0.000 A 
ATOM     31  O   UNL     1      49.320   3.607  16.962  0.00  0.00    +0.000 OA
ATOM     32  C   UNL     1      51.544   3.715  17.766  0.00  0.00    +0.000 A 
ATOM     33  H   UNL     1      49.730   1.187  16.702  0.00  0.00    +0.000 HD
ENDBRANCH  20  23
ENDBRANCH   2  19
TORSDOF 6
ENDMDL
MODEL 6
REMARK VINA RESULT:    -6.703      4.499      7.425
REMARK INTER + INTRA:          -9.604
REMARK INTER:                  -8.420
REMARK INTRA:                  -1.184
REMARK UNBOUND:                -0.550
REMARK  Name = 
REMARK  7 active torsions:
REMARK  status: ('A' for Active; 'I' for Inactive)
REMARK    1  A    between atoms: C_1  and  C_2
REMARK    2  A    between atoms: C_2  and  N_3
REMARK    3  A    between atoms: C_2  and  C_16
REMARK    4  A    between atoms: C_4  and  C_6
REMARK    5  A    between atoms: C_19  and  C_20
REMARK    6  A    between atoms: C_20  and  N_21
REMARK    7  A    between atoms: C_22  and  C_24
REMARK                            x       y       z     vdW  Elec       q    Type
REMARK                         _______ _______ _______ _____ _____    ______ ____
ROOT
ATOM      1  C   UNL     1      46.425   8.890  13.611  0.00  0.00    +0.000 C 
ATOM      2  C   UNL     1      46.895   8.371  12.248  0.00  0.00    +0.000 C 
ENDROOT
BRANCH   2   3
ATOM      3  C   UNL     1      48.403   8.386  12.044  0.00  0.00    +0.000 A 
ATOM      4  C   UNL     1      49.146   9.461  12.562  0.00  0.00    +0.000 A 
ATOM      5  C   UNL     1      50.531   9.545  12.377  0.00  0.00    +0.000 A 
ATOM      6  C   UNL     1      51.214   8.560  11.653  0.00  0.00    +0.000 A 
ATOM      7  C   UNL     1      50.482   7.480  11.141  0.00  0.00    +0.000 A 
ATOM      8  C   UNL     1      49.093   7.401  11.323  0.00  0.00    +0.000 A 
BRANCH   6   9
ATOM      9  C   UNL     1      52.703   8.661  11.430  0.00  0.00    +0.000 C 
BRANCH   9  10
ATOM     10  N   UNL     1      53.096   8.119  10.148  0.00  0.00    +0.000 N 
ATOM     11  C   UNL     1      53.203   8.938   9.039  0.00  0.00    +0.000 C 
ATOM     12  O   UNL     1      52.906  10.128   9.063  0.00  0.00    +0.000 OA
ATOM     13  H   UNL     1      53.539   7.209  10.142  0.00  0.00    +0.000 HD
BRANCH  11  14
ATOM     14  C   UNL     1      53.778   8.242   7.812  0.00  0.00    +0.000 C 
ATOM     15  C   UNL     1      52.731   7.697   6.862  0.00  0.00    +0.000 C 
ATOM     16  C   UNL     1      52.574   6.255   7.289  0.00  0.00    +0.000 C 
ATOM     17  O   UNL     1      53.834   5.845   7.827  0.00  0.00    +0.000 OA
ATOM     18  C   UNL     1      54.585   7.012   8.189  0.00  0.00    +0.000 C 
ENDBRANCH  11  14
ENDBRANCH   9  10
ENDBRANCH   6   9
ENDBRANCH   2   3
BRANCH   2  19
ATOM     19  N   UNL     1      46.381   7.033  12.008  0.00  0.00    +0.000 N 
ATOM     20  C   UNL     1      45.105   6.818  11.547  0.00  0.00    +0.000 C 
ATOM     21  O   UNL     1      44.357   7.740  11.235  0.00  0.00    +0.000 OA
ATOM     22  H   UNL     1      46.900   6.262  12.415  0.00  0.00    +0.000 HD
BRANCH  20  23
ATOM     23  C   UNL     1      44.691   5.419  11.384  0.00  0.00    +0.000 A 
ATOM     24  C   UNL     1      43.981   4.790  12.398  0.00  0.00    +0.000 A 
ATOM     25  S   UNL     1      43.566   3.175  12.042  0.00  0.00    +0.000 S 
ATOM     26  C   UNL     1      44.372   3.242  10.546  0.00  0.00    +0.000 A 
ATOM     27  N   UNL     1      44.438   2.149   9.739  0.00  0.00    +0.000 NA
ATOM     28  C   UNL     1      45.122   2.326   8.658  0.00  0.00    +0.000 A 
ATOM     29  N   UNL     1      45.736   3.501   8.305  0.00  0.00    +0.000 N 
ATOM     30  C   UNL     1      45.642   4.647   9.058  0.00  0.00    +0.000 A 
ATOM     31  O   UNL     1      46.115   5.711   8.667  0.00  0.00    +0.000 OA
ATOM     32  C   UNL     1      44.920   4.490  10.305  0.00  0.00    +0.000 A 
ATOM     33  H   UNL     1      46.238   3.577   7.433  0.00  0.00    +0.000 HD
ENDBRANCH  20  23
ENDBRANCH   2  19
TORSDOF 6
ENDMDL
MODEL 7
REMARK VINA RESULT:    -6.557      2.445      3.511
REMARK INTER + INTRA:          -9.408
REMARK INTER:                  -8.038
REMARK INTRA:                  -1.369
REMARK UNBOUND:                -0.550
REMARK  Name = 
REMARK  7 active torsions:
REMARK  status: ('A' for Active; 'I' for Inactive)
REMARK    1  A    between atoms: C_1  and  C_2
REMARK    2  A    between atoms: C_2  and  N_3
REMARK    3  A    between atoms: C_2  and  C_16
REMARK    4  A    between atoms: C_4  and  C_6
REMARK    5  A    between atoms: C_19  and  C_20
REMARK    6  A    between atoms: C_20  and  N_21
REMARK    7  A    between atoms: C_22  and  C_24
REMARK                            x       y       z     vdW  Elec       q    Type
REMARK                         _______ _______ _______ _____ _____    ______ ____
ROOT
ATOM      1  C   UNL     1      50.762   8.704  13.703  0.00  0.00    +0.000 C 
ATOM      2  C   UNL     1      49.412   8.820  14.419  0.00  0.00    +0.000 C 
ENDROOT
BRANCH   2   3
ATOM      3  C   UNL     1      48.204   8.456  13.566  0.00  0.00    +0.000 A 
ATOM      4  C   UNL     1      47.295   9.467  13.212  0.00  0.00    +0.000 A 
ATOM      5  C   UNL     1      46.150   9.185  12.457  0.00  0.00    +0.000 A 
ATOM      6  C   UNL     1      45.873   7.876  12.046  0.00  0.00    +0.000 A 
ATOM      7  C   UNL     1      46.779   6.863  12.386  0.00  0.00    +0.000 A 
ATOM      8  C   UNL     1      47.923   7.147  13.147  0.00  0.00    +0.000 A 
BRANCH   6   9
ATOM      9  C   UNL     1      44.626   7.564  11.255  0.00  0.00    +0.000 C 
BRANCH   9  10
ATOM     10  N   UNL     1      44.438   6.141  11.078  0.00  0.00    +0.000 N 
ATOM     11  C   UNL     1      43.232   5.545  11.396  0.00  0.00    +0.000 C 
ATOM     12  O   UNL     1      42.301   6.162  11.905  0.00  0.00    +0.000 OA
ATOM     13  H   UNL     1      45.094   5.655  10.481  0.00  0.00    +0.000 HD
BRANCH  11  14
ATOM     14  C   UNL     1      43.149   4.075  11.004  0.00  0.00    +0.000 C 
ATOM     15  C   UNL     1      43.462   3.114  12.132  0.00  0.00    +0.000 C 
ATOM     16  C   UNL     1      44.933   2.814  11.950  0.00  0.00    +0.000 C 
ATOM     17  O   UNL     1      45.208   2.935  10.553  0.00  0.00    +0.000 OA
ATOM     18  C   UNL     1      44.173   3.718   9.942  0.00  0.00    +0.000 C 
ENDBRANCH  11  14
ENDBRANCH   9  10
ENDBRANCH   6   9
ENDBRANCH   2   3
BRANCH   2  19
ATOM     19  N   UNL     1      49.410   8.025  15.636  0.00  0.00    +0.000 N 
ATOM     20  C   UNL     1      48.679   8.389  16.739  0.00  0.00    +0.000 C 
ATOM     21  O   UNL     1      47.923   9.357  16.733  0.00  0.00    +0.000 OA
ATOM     22  H   UNL     1      50.144   7.332  15.731  0.00  0.00    +0.000 HD
BRANCH  20  23
ATOM     23  C   UNL     1      48.793   7.525  17.919  0.00  0.00    +0.000 A 
ATOM     24  C   UNL     1      49.067   8.088  19.159  0.00  0.00    +0.000 A 
ATOM     25  S   UNL     1      49.152   6.948  20.424  0.00  0.00    +0.000 S 
ATOM     26  C   UNL     1      48.882   5.657  19.351  0.00  0.00    +0.000 A 
ATOM     27  N   UNL     1      48.878   4.371  19.792  0.00  0.00    +0.000 NA
ATOM     28  C   UNL     1      48.711   3.489  18.863  0.00  0.00    +0.000 A 
ATOM     29  N   UNL     1      48.536   3.779  17.534  0.00  0.00    +0.000 N 
ATOM     30  C   UNL     1      48.470   5.065  17.053  0.00  0.00    +0.000 A 
ATOM     31  O   UNL     1      48.210   5.295  15.874  0.00  0.00    +0.000 OA
ATOM     32  C   UNL     1      48.695   6.092  18.050  0.00  0.00    +0.000 A 
ATOM     33  H   UNL     1      48.389   3.040  16.862  0.00  0.00    +0.000 HD
ENDBRANCH  20  23
ENDBRANCH   2  19
TORSDOF 6
ENDMDL
MODEL 8
REMARK VINA RESULT:    -6.501      2.807      4.121
REMARK INTER + INTRA:          -9.332
REMARK INTER:                  -8.029
REMARK INTRA:                  -1.302
REMARK UNBOUND:                -0.550
REMARK  Name = 
REMARK  7 active torsions:
REMARK  status: ('A' for Active; 'I' for Inactive)
REMARK    1  A    between atoms: C_1  and  C_2
REMARK    2  A    between atoms: C_2  and  N_3
REMARK    3  A    between atoms: C_2  and  C_16
REMARK    4  A    between atoms: C_4  and  C_6
REMARK    5  A    between atoms: C_19  and  C_20
REMARK    6  A    between atoms: C_20  and  N_21
REMARK    7  A    between atoms: C_22  and  C_24
REMARK                            x       y       z     vdW  Elec       q    Type
REMARK                         _______ _______ _______ _____ _____    ______ ____
ROOT
ATOM      1  C   UNL     1      50.931   8.516  13.044  0.00  0.00    +0.000 C 
ATOM      2  C   UNL     1      49.751   8.237  13.981  0.00  0.00    +0.000 C 
ENDROOT
BRANCH   2   3
ATOM      3  C   UNL     1      48.403   8.106  13.286  0.00  0.00    +0.000 A 
ATOM      4  C   UNL     1      47.393   9.038  13.584  0.00  0.00    +0.000 A 
ATOM      5  C   UNL     1      46.124   8.947  13.000  0.00  0.00    +0.000 A 
ATOM      6  C   UNL     1      45.822   7.909  12.110  0.00  0.00    +0.000 A 
ATOM      7  C   UNL     1      46.825   6.981  11.801  0.00  0.00    +0.000 A 
ATOM      8  C   UNL     1      48.095   7.070  12.391  0.00  0.00    +0.000 A 
BRANCH   6   9
ATOM      9  C   UNL     1      44.446   7.793  11.500  0.00  0.00    +0.000 C 
BRANCH   9  10
ATOM     10  N   UNL     1      44.145   6.437  11.097  0.00  0.00    +0.000 N 
ATOM     11  C   UNL     1      43.542   5.558  11.978  0.00  0.00    +0.000 C 
ATOM     12  O   UNL     1      43.302   5.848  13.145  0.00  0.00    +0.000 OA
ATOM     13  H   UNL     1      44.137   6.236  10.106  0.00  0.00    +0.000 HD
BRANCH  11  14
ATOM     14  C   UNL     1      43.152   4.226  11.348  0.00  0.00    +0.000 C 
ATOM     15  C   UNL     1      43.529   3.015  12.177  0.00  0.00    +0.000 C 
ATOM     16  C   UNL     1      44.868   2.597  11.614  0.00  0.00    +0.000 C 
ATOM     17  O   UNL     1      44.876   2.984  10.238  0.00  0.00    +0.000 OA
ATOM     18  C   UNL     1      43.876   3.992  10.034  0.00  0.00    +0.000 C 
ENDBRANCH  11  14
ENDBRANCH   9  10
ENDBRANCH   6   9
ENDBRANCH   2   3
BRANCH   2  19
ATOM     19  N   UNL     1      50.007   7.053  14.783  0.00  0.00    +0.000 N 
ATOM     20  C   UNL     1      49.573   6.950  16.082  0.00  0.00    +0.000 C 
ATOM     21  O   UNL     1      48.876   7.812  16.610  0.00  0.00    +0.000 OA
ATOM     22  H   UNL     1      50.715   6.412  14.442  0.00  0.00    +0.000 HD
BRANCH  20  23
ATOM     23  C   UNL     1      49.929   5.720  16.799  0.00  0.00    +0.000 A 
ATOM     24  C   UNL     1      48.926   4.891  17.282  0.00  0.00    +0.000 A 
ATOM     25  S   UNL     1      49.511   3.500  18.077  0.00  0.00    +0.000 S 
ATOM     26  C   UNL     1      51.125   3.988  17.856  0.00  0.00    +0.000 A 
ATOM     27  N   UNL     1      52.153   3.247  18.350  0.00  0.00    +0.000 NA
ATOM     28  C   UNL     1      53.321   3.759  18.153  0.00  0.00    +0.000 A 
ATOM     29  N   UNL     1      53.556   4.939  17.495  0.00  0.00    +0.000 N 
ATOM     30  C   UNL     1      52.555   5.687  16.923  0.00  0.00    +0.000 A 
ATOM     31  O   UNL     1      52.804   6.685  16.251  0.00  0.00    +0.000 OA
ATOM     32  C   UNL     1      51.218   5.177  17.154  0.00  0.00    +0.000 A 
ATOM     33  H   UNL     1      54.499   5.271  17.356  0.00  0.00    +0.000 HD
ENDBRANCH  20  23
ENDBRANCH   2  19
TORSDOF 6
ENDMDL
MODEL 9
REMARK VINA RESULT:    -6.488      2.409      3.482
REMARK INTER + INTRA:          -9.314
REMARK INTER:                  -7.947
REMARK INTRA:                  -1.367
REMARK UNBOUND:                -0.550
REMARK  Name = 
REMARK  7 active torsions:
REMARK  status: ('A' for Active; 'I' for Inactive)
REMARK    1  A    between atoms: C_1  and  C_2
REMARK    2  A    between atoms: C_2  and  N_3
REMARK    3  A    between atoms: C_2  and  C_16
REMARK    4  A    between atoms: C_4  and  C_6
REMARK    5  A    between atoms: C_19  and  C_20
REMARK    6  A    between atoms: C_20  and  N_21
REMARK    7  A    between atoms: C_22  and  C_24
REMARK                            x       y       z     vdW  Elec       q    Type
REMARK                         _______ _______ _______ _____ _____    ______ ____
ROOT
ATOM      1  C   UNL     1      51.248   8.554  12.163  0.00  0.00    +0.000 C 
ATOM      2  C   UNL     1      50.187   8.479  13.266  0.00  0.00    +0.000 C 
ENDROOT
BRANCH   2   3
ATOM      3  C   UNL     1      48.764   8.264  12.769  0.00  0.00    +0.000 A 
ATOM      4  C   UNL     1      47.750   9.121  13.229  0.00  0.00    +0.000 A 
ATOM      5  C   UNL     1      46.418   8.951  12.831  0.00  0.00    +0.000 A 
ATOM      6  C   UNL     1      46.059   7.906  11.971  0.00  0.00    +0.000 A 
ATOM      7  C   UNL     1      47.066   7.053  11.501  0.00  0.00    +0.000 A 
ATOM      8  C   UNL     1      48.399   7.221  11.905  0.00  0.00    +0.000 A 
BRANCH   6   9
ATOM      9  C   UNL     1      44.620   7.704  11.563  0.00  0.00    +0.000 C 
BRANCH   9  10
ATOM     10  N   UNL     1      44.395   6.388  11.006  0.00  0.00    +0.000 N 
ATOM     11  C   UNL     1      43.420   5.559  11.530  0.00  0.00    +0.000 C 
ATOM     12  O   UNL     1      42.759   5.856  12.520  0.00  0.00    +0.000 OA
ATOM     13  H   UNL     1      44.767   6.202  10.084  0.00  0.00    +0.000 HD
BRANCH  11  14
ATOM     14  C   UNL     1      43.206   4.279  10.732  0.00  0.00    +0.000 C 
ATOM     15  C   UNL     1      43.675   3.023  11.438  0.00  0.00    +0.000 C 
ATOM     16  C   UNL     1      45.076   2.815  10.909  0.00  0.00    +0.000 C 
ATOM     17  O   UNL     1      45.103   3.361   9.588  0.00  0.00    +0.000 OA
ATOM     18  C   UNL     1      44.010   4.279   9.443  0.00  0.00    +0.000 C 
ENDBRANCH  11  14
ENDBRANCH   9  10
ENDBRANCH   6   9
ENDBRANCH   2   3
BRANCH   2  19
ATOM     19  N   UNL     1      50.530   7.449  14.232  0.00  0.00    +0.000 N 
ATOM     20  C   UNL     1      51.167   7.744  15.412  0.00  0.00    +0.000 C 
ATOM     21  O   UNL     1      51.410   8.898  15.754  0.00  0.00    +0.000 OA
ATOM     22  H   UNL     1      50.502   6.488  13.908  0.00  0.00    +0.000 HD
BRANCH  20  23
ATOM     23  C   UNL     1      51.495   6.611  16.285  0.00  0.00    +0.000 A 
ATOM     24  C   UNL     1      52.817   6.376  16.639  0.00  0.00    +0.000 A 
ATOM     25  S   UNL     1      53.021   5.032  17.668  0.00  0.00    +0.000 S 
ATOM     26  C   UNL     1      51.357   4.683  17.630  0.00  0.00    +0.000 A 
ATOM     27  N   UNL     1      50.855   3.602  18.285  0.00  0.00    +0.000 NA
ATOM     28  C   UNL     1      49.585   3.429  18.131  0.00  0.00    +0.000 A 
ATOM     29  N   UNL     1      48.769   4.245  17.390  0.00  0.00    +0.000 N 
ATOM     30  C   UNL     1      49.221   5.383  16.764  0.00  0.00    +0.000 A 
ATOM     31  O   UNL     1      48.449   6.150  16.194  0.00  0.00    +0.000 OA
ATOM     32  C   UNL     1      50.650   5.599  16.871  0.00  0.00    +0.000 A 
ATOM     33  H   UNL     1      47.778   4.063  17.329  0.00  0.00    +0.000 HD
ENDBRANCH  20  23
ENDBRANCH   2  19
TORSDOF 6
ENDMDL
