MODEL 1
REMARK VINA RESULT:    -7.016      0.000      0.000
REMARK INTER + INTRA:          -9.886
REMARK INTER:                  -9.067
REMARK INTRA:                  -0.819
REMARK UNBOUND:                -0.819
REMARK  Name = 
REMARK  5 active torsions:
REMARK  status: ('A' for Active; 'I' for Inactive)
REMARK    1  A    between atoms: C_2  and  C_18
REMARK    2  A    between atoms: N_3  and  C_4
REMARK    3  A    between atoms: C_4  and  C_5
REMARK    4  A    between atoms: C_8  and  C_9
REMARK    5  A    between atoms: C_9  and  N_10
REMARK                            x       y       z     vdW  Elec       q    Type
REMARK                         _______ _______ _______ _____ _____    ______ ____
ROOT
ATOM      1  O   UNL     1      44.790   7.929  11.373  0.00  0.00    +0.000 OA
ATOM      2  C   UNL     1      45.717   7.135  11.262  0.00  0.00    +0.000 C 
ATOM      3  N   UNL     1      46.960   7.306  11.833  0.00  0.00    +0.000 N 
ATOM      4  H   UNL     1      47.585   6.513  11.835  0.00  0.00    +0.000 HD
ENDROOT
BRANCH   2   5
ATOM      5  C   UNL     1      45.576   5.797  10.700  0.00  0.00    +0.000 A 
ATOM      6  C   UNL     1      45.869   5.505   9.379  0.00  0.00    +0.000 A 
ATOM      7  S   UNL     1      45.123   4.044   8.868  0.00  0.00    +0.000 S 
ATOM      8  C   UNL     1      44.526   3.733  10.435  0.00  0.00    +0.000 A 
ATOM      9  N   UNL     1      43.676   2.707  10.705  0.00  0.00    +0.000 NA
ATOM     10  C   UNL     1      43.373   2.583  11.956  0.00  0.00    +0.000 A 
ATOM     11  N   UNL     1      43.882   3.364  12.970  0.00  0.00    +0.000 N 
ATOM     12  C   UNL     1      44.740   4.411  12.750  0.00  0.00    +0.000 A 
ATOM     13  O   UNL     1      45.219   5.068  13.661  0.00  0.00    +0.000 OA
ATOM     14  C   UNL     1      45.006   4.650  11.343  0.00  0.00    +0.000 A 
ATOM     15  H   UNL     1      43.667   3.160  13.936  0.00  0.00    +0.000 HD
ENDBRANCH   2   5
BRANCH   3  16
ATOM     16  C   UNL     1      47.219   8.348  12.797  0.00  0.00    +0.000 C 
BRANCH  16  17
ATOM     17  C   UNL     1      47.862   7.782  14.022  0.00  0.00    +0.000 A 
ATOM     18  C   UNL     1      48.198   8.536  15.127  0.00  0.00    +0.000 A 
ATOM     19  N   UNL     1      48.833   8.040  16.216  0.00  0.00    +0.000 NA
ATOM     20  C   UNL     1      49.148   6.728  16.190  0.00  0.00    +0.000 A 
ATOM     21  N   UNL     1      48.864   5.907  15.156  0.00  0.00    +0.000 NA
ATOM     22  C   UNL     1      48.232   6.458  14.100  0.00  0.00    +0.000 A 
BRANCH  20  23
ATOM     23  C   UNL     1      49.959   6.143  17.338  0.00  0.00    +0.000 C 
BRANCH  23  24
ATOM     24  N   UNL     1      49.337   5.205  18.292  0.00  0.00    +0.000 NA
ATOM     25  C   UNL     1      49.759   3.802  18.170  0.00  0.00    +0.000 C 
ATOM     26  C   UNL     1      48.892   2.926  17.243  0.00  0.00    +0.000 C 
ATOM     27  O   UNL     1      47.495   3.064  17.528  0.00  0.00    +0.000 OA
ATOM     28  C   UNL     1      47.101   4.437  17.406  0.00  0.00    +0.000 C 
ATOM     29  C   UNL     1      47.877   5.312  18.396  0.00  0.00    +0.000 C 
ENDBRANCH  23  24
ENDBRANCH  20  23
ENDBRANCH  16  17
ENDBRANCH   3  16
TORSDOF 5
ENDMDL
MODEL 2
REMARK VINA RESULT:    -6.992      2.113      2.944
REMARK INTER + INTRA:          -9.856
REMARK INTER:                  -9.098
REMARK INTRA:                  -0.758
REMARK UNBOUND:                -0.819
REMARK  Name = 
REMARK  5 active torsions:
REMARK  status: ('A' for Active; 'I' for Inactive)
REMARK    1  A    between atoms: C_2  and  C_18
REMARK    2  A    between atoms: N_3  and  C_4
REMARK    3  A    between atoms: C_4  and  C_5
REMARK    4  A    between atoms: C_8  and  C_9
REMARK    5  A    between atoms: C_9  and  N_10
REMARK                            x       y       z     vdW  Elec       q    Type
REMARK                         _______ _______ _______ _____ _____    ______ ____
ROOT
ATOM      1  O   UNL     1      44.918   7.355  11.503  0.00  0.00    +0.000 OA
ATOM      2  C   UNL     1      45.398   6.229  11.448  0.00  0.00    +0.000 C 
ATOM      3  N   UNL     1      46.662   5.900  11.889  0.00  0.00    +0.000 N 
ATOM      4  H   UNL     1      46.888   4.919  11.968  0.00  0.00    +0.000 HD
ENDROOT
BRANCH   2   5
ATOM      5  C   UNL     1      44.630   5.035  11.115  0.00  0.00    +0.000 A 
ATOM      6  C   UNL     1      43.630   4.535  11.931  0.00  0.00    +0.000 A 
ATOM      7  S   UNL     1      43.286   2.889  11.583  0.00  0.00    +0.000 S 
ATOM      8  C   UNL     1      44.366   2.882  10.262  0.00  0.00    +0.000 A 
ATOM      9  N   UNL     1      44.678   1.750   9.576  0.00  0.00    +0.000 NA
ATOM     10  C   UNL     1      45.466   1.940   8.569  0.00  0.00    +0.000 A 
ATOM     11  N   UNL     1      45.932   3.167   8.155  0.00  0.00    +0.000 N 
ATOM     12  C   UNL     1      45.649   4.337   8.813  0.00  0.00    +0.000 A 
ATOM     13  O   UNL     1      46.031   5.424   8.411  0.00  0.00    +0.000 OA
ATOM     14  C   UNL     1      44.863   4.143  10.018  0.00  0.00    +0.000 A 
ATOM     15  H   UNL     1      46.478   3.254   7.309  0.00  0.00    +0.000 HD
ENDBRANCH   2   5
BRANCH   3  16
ATOM     16  C   UNL     1      47.466   6.822  12.655  0.00  0.00    +0.000 C 
BRANCH  16  17
ATOM     17  C   UNL     1      47.794   6.245  13.995  0.00  0.00    +0.000 A 
ATOM     18  C   UNL     1      48.729   6.785  14.851  0.00  0.00    +0.000 A 
ATOM     19  N   UNL     1      49.072   6.235  16.041  0.00  0.00    +0.000 NA
ATOM     20  C   UNL     1      48.449   5.087  16.381  0.00  0.00    +0.000 A 
ATOM     21  N   UNL     1      47.520   4.479  15.612  0.00  0.00    +0.000 NA
ATOM     22  C   UNL     1      47.221   5.073  14.439  0.00  0.00    +0.000 A 
BRANCH  20  23
ATOM     23  C   UNL     1      48.874   4.367  17.654  0.00  0.00    +0.000 C 
BRANCH  23  24
ATOM     24  N   UNL     1      48.159   4.605  18.922  0.00  0.00    +0.000 NA
ATOM     25  C   UNL     1      47.157   5.679  18.894  0.00  0.00    +0.000 C 
ATOM     26  C   UNL     1      47.669   7.076  19.298  0.00  0.00    +0.000 C 
ATOM     27  O   UNL     1      48.413   7.040  20.522  0.00  0.00    +0.000 OA
ATOM     28  C   UNL     1      49.518   6.135  20.401  0.00  0.00    +0.000 C 
ATOM     29  C   UNL     1      49.023   4.716  20.104  0.00  0.00    +0.000 C 
ENDBRANCH  23  24
ENDBRANCH  20  23
ENDBRANCH  16  17
ENDBRANCH   3  16
TORSDOF 5
ENDMDL
MODEL 3
REMARK VINA RESULT:    -6.863      2.828      6.619
REMARK INTER + INTRA:          -9.688
REMARK INTER:                  -8.678
REMARK INTRA:                  -1.011
REMARK UNBOUND:                -0.819
REMARK  Name = 
REMARK  5 active torsions:
REMARK  status: ('A' for Active; 'I' for Inactive)
REMARK    1  A    between atoms: C_2  and  C_18
REMARK    2  A    between atoms: N_3  and  C_4
REMARK    3  A    between atoms: C_4  and  C_5
REMARK    4  A    between atoms: C_8  and  C_9
REMARK    5  A    between atoms: C_9  and  N_10
REMARK                            x       y       z     vdW  Elec       q    Type
REMARK                         _______ _______ _______ _____ _____    ______ ____
ROOT
ATOM      1  O   UNL     1      49.912   7.000  14.671  0.00  0.00    +0.000 OA
ATOM      2  C   UNL     1      48.978   7.341  15.387  0.00  0.00    +0.000 C 
ATOM      3  N   UNL     1      48.035   8.283  15.038  0.00  0.00    +0.000 N 
ATOM      4  H   UNL     1      47.210   8.355  15.616  0.00  0.00    +0.000 HD
ENDROOT
BRANCH   2   5
ATOM      5  C   UNL     1      48.600   6.648  16.613  0.00  0.00    +0.000 A 
ATOM      6  C   UNL     1      48.852   7.164  17.873  0.00  0.00    +0.000 A 
ATOM      7  S   UNL     1      48.801   5.945  19.082  0.00  0.00    +0.000 S 
ATOM      8  C   UNL     1      48.313   4.763  17.953  0.00  0.00    +0.000 A 
ATOM      9  N   UNL     1      48.209   3.445  18.271  0.00  0.00    +0.000 NA
ATOM     10  C   UNL     1      47.768   2.701  17.310  0.00  0.00    +0.000 A 
ATOM     11  N   UNL     1      47.373   3.162  16.074  0.00  0.00    +0.000 N 
ATOM     12  C   UNL     1      47.460   4.481  15.705  0.00  0.00    +0.000 A 
ATOM     13  O   UNL     1      47.065   4.885  14.623  0.00  0.00    +0.000 OA
ATOM     14  C   UNL     1      48.062   5.324  16.721  0.00  0.00    +0.000 A 
ATOM     15  H   UNL     1      46.959   2.537  15.397  0.00  0.00    +0.000 HD
ENDBRANCH   2   5
BRANCH   3  16
ATOM     16  C   UNL     1      47.942   8.808  13.697  0.00  0.00    +0.000 C 
BRANCH  16  17
ATOM     17  C   UNL     1      47.021   7.971  12.867  0.00  0.00    +0.000 A 
ATOM     18  C   UNL     1      47.439   6.900  12.107  0.00  0.00    +0.000 A 
ATOM     19  N   UNL     1      46.620   6.173  11.309  0.00  0.00    +0.000 NA
ATOM     20  C   UNL     1      45.323   6.547  11.271  0.00  0.00    +0.000 A 
ATOM     21  N   UNL     1      44.817   7.581  11.976  0.00  0.00    +0.000 NA
ATOM     22  C   UNL     1      45.681   8.267  12.752  0.00  0.00    +0.000 A 
BRANCH  20  23
ATOM     23  C   UNL     1      44.381   5.836  10.308  0.00  0.00    +0.000 C 
BRANCH  23  24
ATOM     24  N   UNL     1      43.523   4.732  10.778  0.00  0.00    +0.000 NA
ATOM     25  C   UNL     1      42.670   5.039  11.935  0.00  0.00    +0.000 C 
ATOM     26  C   UNL     1      43.280   4.719  13.314  0.00  0.00    +0.000 C 
ATOM     27  O   UNL     1      43.831   3.397  13.363  0.00  0.00    +0.000 OA
ATOM     28  C   UNL     1      44.826   3.240  12.343  0.00  0.00    +0.000 C 
ATOM     29  C   UNL     1      44.215   3.449  10.954  0.00  0.00    +0.000 C 
ENDBRANCH  23  24
ENDBRANCH  20  23
ENDBRANCH  16  17
ENDBRANCH   3  16
TORSDOF 5
ENDMDL
MODEL 4
REMARK VINA RESULT:    -6.572      1.819      2.678
REMARK INTER + INTRA:          -9.313
REMARK INTER:                  -8.772
REMARK INTRA:                  -0.541
REMARK UNBOUND:                -0.819
REMARK  Name = 
REMARK  5 active torsions:
REMARK  status: ('A' for Active; 'I' for Inactive)
REMARK    1  A    between atoms: C_2  and  C_18
REMARK    2  A    between atoms: N_3  and  C_4
REMARK    3  A    between atoms: C_4  and  C_5
REMARK    4  A    between atoms: C_8  and  C_9
REMARK    5  A    between atoms: C_9  and  N_10
REMARK                            x       y       z     vdW  Elec       q    Type
REMARK                         _______ _______ _______ _____ _____    ______ ____
ROOT
ATOM      1  O   UNL     1      45.589   7.654  11.364  0.00  0.00    +0.000 OA
ATOM      2  C   UNL     1      45.812   6.452  11.456  0.00  0.00    +0.000 C 
ATOM      3  N   UNL     1      46.954   5.914  12.010  0.00  0.00    +0.000 N 
ATOM      4  H   UNL     1      46.956   4.923  12.205  0.00  0.00    +0.000 HD
ENDROOT
BRANCH   2   5
ATOM      5  C   UNL     1      44.815   5.419  11.199  0.00  0.00    +0.000 A 
ATOM      6  C   UNL     1      43.772   5.151  12.068  0.00  0.00    +0.000 A 
ATOM      7  S   UNL     1      43.103   3.592  11.799  0.00  0.00    +0.000 S 
ATOM      8  C   UNL     1      44.106   3.331  10.445  0.00  0.00    +0.000 A 
ATOM      9  N   UNL     1      44.165   2.138   9.795  0.00  0.00    +0.000 NA
ATOM     10  C   UNL     1      44.932   2.137   8.755  0.00  0.00    +0.000 A 
ATOM     11  N   UNL     1      45.610   3.235   8.275  0.00  0.00    +0.000 N 
ATOM     12  C   UNL     1      45.584   4.459   8.894  0.00  0.00    +0.000 A 
ATOM     13  O   UNL     1      46.152   5.438   8.435  0.00  0.00    +0.000 OA
ATOM     14  C   UNL     1      44.826   4.463  10.132  0.00  0.00    +0.000 A 
ATOM     15  H   UNL     1      46.127   3.186   7.409  0.00  0.00    +0.000 HD
ENDBRANCH   2   5
BRANCH   3  16
ATOM     16  C   UNL     1      47.908   6.724  12.728  0.00  0.00    +0.000 C 
BRANCH  16  17
ATOM     17  C   UNL     1      48.022   6.268  14.147  0.00  0.00    +0.000 A 
ATOM     18  C   UNL     1      47.309   5.211  14.670  0.00  0.00    +0.000 A 
ATOM     19  N   UNL     1      47.365   4.829  15.969  0.00  0.00    +0.000 NA
ATOM     20  C   UNL     1      48.171   5.548  16.778  0.00  0.00    +0.000 A 
ATOM     21  N   UNL     1      48.909   6.600  16.363  0.00  0.00    +0.000 NA
ATOM     22  C   UNL     1      48.811   6.933  15.060  0.00  0.00    +0.000 A 
BRANCH  20  23
ATOM     23  C   UNL     1      48.189   5.234  18.269  0.00  0.00    +0.000 C 
BRANCH  23  24
ATOM     24  N   UNL     1      49.069   4.175  18.800  0.00  0.00    +0.000 NA
ATOM     25  C   UNL     1      50.509   4.469  18.763  0.00  0.00    +0.000 C 
ATOM     26  C   UNL     1      51.251   3.999  17.496  0.00  0.00    +0.000 C 
ATOM     27  O   UNL     1      50.952   2.634  17.176  0.00  0.00    +0.000 OA
ATOM     28  C   UNL     1      49.539   2.467  17.002  0.00  0.00    +0.000 C 
ATOM     29  C   UNL     1      48.789   2.828  18.288  0.00  0.00    +0.000 C 
ENDBRANCH  23  24
ENDBRANCH  20  23
ENDBRANCH  16  17
ENDBRANCH   3  16
TORSDOF 5
ENDMDL
MODEL 5
REMARK VINA RESULT:    -6.445      3.291      4.743
REMARK INTER + INTRA:          -9.148
REMARK INTER:                  -8.447
REMARK INTRA:                  -0.701
REMARK UNBOUND:                -0.819
REMARK  Name = 
REMARK  5 active torsions:
REMARK  status: ('A' for Active; 'I' for Inactive)
REMARK    1  A    between atoms: C_2  and  C_18
REMARK    2  A    between atoms: N_3  and  C_4
REMARK    3  A    between atoms: C_4  and  C_5
REMARK    4  A    between atoms: C_8  and  C_9
REMARK    5  A    between atoms: C_9  and  N_10
REMARK                            x       y       z     vdW  Elec       q    Type
REMARK                         _______ _______ _______ _____ _____    ______ ____
ROOT
ATOM      1  O   UNL     1      47.507   2.892  14.354  0.00  0.00    +0.000 OA
ATOM      2  C   UNL     1      46.950   3.969  14.537  0.00  0.00    +0.000 C 
ATOM      3  N   UNL     1      46.667   4.496  15.779  0.00  0.00    +0.000 N 
ATOM      4  H   UNL     1      46.378   5.462  15.821  0.00  0.00    +0.000 HD
ENDROOT
BRANCH   2   5
ATOM      5  C   UNL     1      46.705   4.946  13.483  0.00  0.00    +0.000 A 
ATOM      6  C   UNL     1      47.550   6.016  13.242  0.00  0.00    +0.000 A 
ATOM      7  S   UNL     1      46.767   7.257  12.349  0.00  0.00    +0.000 S 
ATOM      8  C   UNL     1      45.355   6.317  12.168  0.00  0.00    +0.000 A 
ATOM      9  N   UNL     1      44.213   6.809  11.617  0.00  0.00    +0.000 NA
ATOM     10  C   UNL     1      43.262   5.941  11.503  0.00  0.00    +0.000 A 
ATOM     11  N   UNL     1      43.365   4.611  11.846  0.00  0.00    +0.000 N 
ATOM     12  C   UNL     1      44.493   4.067  12.407  0.00  0.00    +0.000 A 
ATOM     13  O   UNL     1      44.589   2.878  12.665  0.00  0.00    +0.000 OA
ATOM     14  C   UNL     1      45.539   5.043  12.656  0.00  0.00    +0.000 A 
ATOM     15  H   UNL     1      42.610   3.968  11.654  0.00  0.00    +0.000 HD
ENDBRANCH   2   5
BRANCH   3  16
ATOM     16  C   UNL     1      47.195   3.917  16.991  0.00  0.00    +0.000 C 
BRANCH  16  17
ATOM     17  C   UNL     1      48.668   4.152  17.088  0.00  0.00    +0.000 A 
ATOM     18  C   UNL     1      49.594   3.143  17.249  0.00  0.00    +0.000 A 
ATOM     19  N   UNL     1      50.924   3.354  17.395  0.00  0.00    +0.000 NA
ATOM     20  C   UNL     1      51.340   4.638  17.384  0.00  0.00    +0.000 A 
ATOM     21  N   UNL     1      50.513   5.695  17.234  0.00  0.00    +0.000 NA
ATOM     22  C   UNL     1      49.200   5.422  17.094  0.00  0.00    +0.000 A 
BRANCH  20  23
ATOM     23  C   UNL     1      52.808   4.939  17.654  0.00  0.00    +0.000 C 
BRANCH  23  24
ATOM     24  N   UNL     1      53.267   5.263  19.018  0.00  0.00    +0.000 NA
ATOM     25  C   UNL     1      54.672   5.682  19.133  0.00  0.00    +0.000 C 
ATOM     26  C   UNL     1      55.681   4.551  19.413  0.00  0.00    +0.000 C 
ATOM     27  O   UNL     1      55.259   3.713  20.496  0.00  0.00    +0.000 OA
ATOM     28  C   UNL     1      53.970   3.153  20.213  0.00  0.00    +0.000 C 
ATOM     29  C   UNL     1      52.927   4.262  20.036  0.00  0.00    +0.000 C 
ENDBRANCH  23  24
ENDBRANCH  20  23
ENDBRANCH  16  17
ENDBRANCH   3  16
TORSDOF 5
ENDMDL
MODEL 6
REMARK VINA RESULT:    -6.421      2.895      7.120
REMARK INTER + INTRA:          -9.117
REMARK INTER:                  -8.303
REMARK INTRA:                  -0.814
REMARK UNBOUND:                -0.819
REMARK  Name = 
REMARK  5 active torsions:
REMARK  status: ('A' for Active; 'I' for Inactive)
REMARK    1  A    between atoms: C_2  and  C_18
REMARK    2  A    between atoms: N_3  and  C_4
REMARK    3  A    between atoms: C_4  and  C_5
REMARK    4  A    between atoms: C_8  and  C_9
REMARK    5  A    between atoms: C_9  and  N_10
REMARK                            x       y       z     vdW  Elec       q    Type
REMARK                         _______ _______ _______ _____ _____    ______ ____
ROOT
ATOM      1  O   UNL     1      48.291   8.173  17.373  0.00  0.00    +0.000 OA
ATOM      2  C   UNL     1      48.698   7.154  16.828  0.00  0.00    +0.000 C 
ATOM      3  N   UNL     1      48.603   6.905  15.475  0.00  0.00    +0.000 N 
ATOM      4  H   UNL     1      49.130   6.128  15.105  0.00  0.00    +0.000 HD
ENDROOT
BRANCH   2   5
ATOM      5  C   UNL     1      49.535   6.158  17.487  0.00  0.00    +0.000 A 
ATOM      6  C   UNL     1      50.698   6.486  18.163  0.00  0.00    +0.000 A 
ATOM      7  S   UNL     1      51.726   5.123  18.360  0.00  0.00    +0.000 S 
ATOM      8  C   UNL     1      50.568   4.077  17.672  0.00  0.00    +0.000 A 
ATOM      9  N   UNL     1      50.830   2.770  17.400  0.00  0.00    +0.000 NA
ATOM     10  C   UNL     1      49.819   2.111  16.936  0.00  0.00    +0.000 A 
ATOM     11  N   UNL     1      48.555   2.628  16.764  0.00  0.00    +0.000 N 
ATOM     12  C   UNL     1      48.240   3.939  17.021  0.00  0.00    +0.000 A 
ATOM     13  O   UNL     1      47.105   4.374  16.907  0.00  0.00    +0.000 OA
ATOM     14  C   UNL     1      49.382   4.735  17.431  0.00  0.00    +0.000 A 
ATOM     15  H   UNL     1      47.789   2.035  16.475  0.00  0.00    +0.000 HD
ENDBRANCH   2   5
BRANCH   3  16
ATOM     16  C   UNL     1      48.198   7.926  14.539  0.00  0.00    +0.000 C 
BRANCH  16  17
ATOM     17  C   UNL     1      47.221   7.376  13.550  0.00  0.00    +0.000 A 
ATOM     18  C   UNL     1      47.280   6.093  13.051  0.00  0.00    +0.000 A 
ATOM     19  N   UNL     1      46.433   5.607  12.112  0.00  0.00    +0.000 NA
ATOM     20  C   UNL     1      45.487   6.453  11.651  0.00  0.00    +0.000 A 
ATOM     21  N   UNL     1      45.348   7.727  12.076  0.00  0.00    +0.000 NA
ATOM     22  C   UNL     1      46.221   8.154  13.010  0.00  0.00    +0.000 A 
BRANCH  20  23
ATOM     23  C   UNL     1      44.579   5.996  10.517  0.00  0.00    +0.000 C 
BRANCH  23  24
ATOM     24  N   UNL     1      43.460   5.071  10.781  0.00  0.00    +0.000 NA
ATOM     25  C   UNL     1      42.748   5.283  12.050  0.00  0.00    +0.000 C 
ATOM     26  C   UNL     1      43.274   4.472  13.250  0.00  0.00    +0.000 C 
ATOM     27  O   UNL     1      43.440   3.085  12.929  0.00  0.00    +0.000 OA
ATOM     28  C   UNL     1      44.332   2.940  11.817  0.00  0.00    +0.000 C 
ATOM     29  C   UNL     1      43.774   3.652  10.580  0.00  0.00    +0.000 C 
ENDBRANCH  23  24
ENDBRANCH  20  23
ENDBRANCH  16  17
ENDBRANCH   3  16
TORSDOF 5
ENDMDL
MODEL 7
REMARK VINA RESULT:    -6.401      1.571      2.069
REMARK INTER + INTRA:          -9.092
REMARK INTER:                  -8.273
REMARK INTRA:                  -0.819
REMARK UNBOUND:                -0.819
REMARK  Name = 
REMARK  5 active torsions:
REMARK  status: ('A' for Active; 'I' for Inactive)
REMARK    1  A    between atoms: C_2  and  C_18
REMARK    2  A    between atoms: N_3  and  C_4
REMARK    3  A    between atoms: C_4  and  C_5
REMARK    4  A    between atoms: C_8  and  C_9
REMARK    5  A    between atoms: C_9  and  N_10
REMARK                            x       y       z     vdW  Elec       q    Type
REMARK                         _______ _______ _______ _____ _____    ______ ____
ROOT
ATOM      1  O   UNL     1      44.800   7.884  11.385  0.00  0.00    +0.000 OA
ATOM      2  C   UNL     1      45.685   7.036  11.371  0.00  0.00    +0.000 C 
ATOM      3  N   UNL     1      46.851   7.118  12.102  0.00  0.00    +0.000 N 
ATOM      4  H   UNL     1      47.423   6.288  12.162  0.00  0.00    +0.000 HD
ENDROOT
BRANCH   2   5
ATOM      5  C   UNL     1      45.541   5.722  10.756  0.00  0.00    +0.000 A 
ATOM      6  C   UNL     1      45.827   5.483   9.422  0.00  0.00    +0.000 A 
ATOM      7  S   UNL     1      45.079   4.045   8.857  0.00  0.00    +0.000 S 
ATOM      8  C   UNL     1      44.489   3.671  10.414  0.00  0.00    +0.000 A 
ATOM      9  N   UNL     1      43.640   2.634  10.646  0.00  0.00    +0.000 NA
ATOM     10  C   UNL     1      43.344   2.460  11.893  0.00  0.00    +0.000 A 
ATOM     11  N   UNL     1      43.858   3.200  12.935  0.00  0.00    +0.000 N 
ATOM     12  C   UNL     1      44.715   4.255  12.752  0.00  0.00    +0.000 A 
ATOM     13  O   UNL     1      45.199   4.874  13.686  0.00  0.00    +0.000 OA
ATOM     14  C   UNL     1      44.975   4.551  11.355  0.00  0.00    +0.000 A 
ATOM     15  H   UNL     1      43.648   2.957  13.893  0.00  0.00    +0.000 HD
ENDBRANCH   2   5
BRANCH   3  16
ATOM     16  C   UNL     1      47.042   8.121  13.122  0.00  0.00    +0.000 C 
BRANCH  16  17
ATOM     17  C   UNL     1      48.102   7.695  14.086  0.00  0.00    +0.000 A 
ATOM     18  C   UNL     1      49.146   8.504  14.480  0.00  0.00    +0.000 A 
ATOM     19  N   UNL     1      50.141   8.104  15.309  0.00  0.00    +0.000 NA
ATOM     20  C   UNL     1      50.085   6.832  15.755  0.00  0.00    +0.000 A 
ATOM     21  N   UNL     1      49.105   5.962  15.426  0.00  0.00    +0.000 NA
ATOM     22  C   UNL     1      48.144   6.417  14.598  0.00  0.00    +0.000 A 
BRANCH  20  23
ATOM     23  C   UNL     1      51.234   6.296  16.599  0.00  0.00    +0.000 C 
BRANCH  23  24
ATOM     24  N   UNL     1      51.130   4.978  17.254  0.00  0.00    +0.000 NA
ATOM     25  C   UNL     1      50.175   4.896  18.369  0.00  0.00    +0.000 C 
ATOM     26  C   UNL     1      50.760   5.182  19.766  0.00  0.00    +0.000 C 
ATOM     27  O   UNL     1      51.962   4.439  20.006  0.00  0.00    +0.000 OA
ATOM     28  C   UNL     1      52.938   4.742  19.001  0.00  0.00    +0.000 C 
ATOM     29  C   UNL     1      52.416   4.365  17.610  0.00  0.00    +0.000 C 
ENDBRANCH  23  24
ENDBRANCH  20  23
ENDBRANCH  16  17
ENDBRANCH   3  16
TORSDOF 5
ENDMDL
MODEL 8
REMARK VINA RESULT:    -6.287      2.917      7.347
REMARK INTER + INTRA:          -8.945
REMARK INTER:                  -8.185
REMARK INTRA:                  -0.760
REMARK UNBOUND:                -0.819
REMARK  Name = 
REMARK  5 active torsions:
REMARK  status: ('A' for Active; 'I' for Inactive)
REMARK    1  A    between atoms: C_2  and  C_18
REMARK    2  A    between atoms: N_3  and  C_4
REMARK    3  A    between atoms: C_4  and  C_5
REMARK    4  A    between atoms: C_8  and  C_9
REMARK    5  A    between atoms: C_9  and  N_10
REMARK                            x       y       z     vdW  Elec       q    Type
REMARK                         _______ _______ _______ _____ _____    ______ ____
ROOT
ATOM      1  O   UNL     1      50.011   6.921  14.878  0.00  0.00    +0.000 OA
ATOM      2  C   UNL     1      49.012   7.063  15.573  0.00  0.00    +0.000 C 
ATOM      3  N   UNL     1      47.963   7.903  15.264  0.00  0.00    +0.000 N 
ATOM      4  H   UNL     1      47.114   7.807  15.802  0.00  0.00    +0.000 HD
ENDROOT
BRANCH   2   5
ATOM      5  C   UNL     1      48.684   6.209  16.708  0.00  0.00    +0.000 A 
ATOM      6  C   UNL     1      48.262   4.898  16.563  0.00  0.00    +0.000 A 
ATOM      7  S   UNL     1      47.455   4.329  17.968  0.00  0.00    +0.000 S 
ATOM      8  C   UNL     1      47.785   5.773  18.814  0.00  0.00    +0.000 A 
ATOM      9  N   UNL     1      47.269   6.036  20.044  0.00  0.00    +0.000 NA
ATOM     10  C   UNL     1      47.673   7.150  20.562  0.00  0.00    +0.000 A 
ATOM     11  N   UNL     1      48.585   8.003  19.982  0.00  0.00    +0.000 N 
ATOM     12  C   UNL     1      49.132   7.783  18.743  0.00  0.00    +0.000 A 
ATOM     13  O   UNL     1      49.974   8.523  18.259  0.00  0.00    +0.000 OA
ATOM     14  C   UNL     1      48.609   6.600  18.085  0.00  0.00    +0.000 A 
ATOM     15  H   UNL     1      48.921   8.816  20.479  0.00  0.00    +0.000 HD
ENDBRANCH   2   5
BRANCH   3  16
ATOM     16  C   UNL     1      47.852   8.540  13.974  0.00  0.00    +0.000 C 
BRANCH  16  17
ATOM     17  C   UNL     1      46.956   7.752  13.073  0.00  0.00    +0.000 A 
ATOM     18  C   UNL     1      47.146   6.417  12.784  0.00  0.00    +0.000 A 
ATOM     19  N   UNL     1      46.373   5.712  11.924  0.00  0.00    +0.000 NA
ATOM     20  C   UNL     1      45.367   6.382  11.324  0.00  0.00    +0.000 A 
ATOM     21  N   UNL     1      45.100   7.688  11.538  0.00  0.00    +0.000 NA
ATOM     22  C   UNL     1      45.904   8.338  12.404  0.00  0.00    +0.000 A 
BRANCH  20  23
ATOM     23  C   UNL     1      44.535   5.669  10.265  0.00  0.00    +0.000 C 
BRANCH  23  24
ATOM     24  N   UNL     1      43.442   4.760  10.660  0.00  0.00    +0.000 NA
ATOM     25  C   UNL     1      42.622   5.209  11.795  0.00  0.00    +0.000 C 
ATOM     26  C   UNL     1      43.088   4.726  13.183  0.00  0.00    +0.000 C 
ATOM     27  O   UNL     1      43.341   3.315  13.201  0.00  0.00    +0.000 OA
ATOM     28  C   UNL     1      44.325   2.978  12.215  0.00  0.00    +0.000 C 
ATOM     29  C   UNL     1      43.835   3.354  10.813  0.00  0.00    +0.000 C 
ENDBRANCH  23  24
ENDBRANCH  20  23
ENDBRANCH  16  17
ENDBRANCH   3  16
TORSDOF 5
ENDMDL
MODEL 9
REMARK VINA RESULT:    -6.180      4.085      8.585
REMARK INTER + INTRA:          -8.806
REMARK INTER:                  -8.618
REMARK INTRA:                  -0.189
REMARK UNBOUND:                -0.819
REMARK  Name = 
REMARK  5 active torsions:
REMARK  status: ('A' for Active; 'I' for Inactive)
REMARK    1  A    between atoms: C_2  and  C_18
REMARK    2  A    between atoms: N_3  and  C_4
REMARK    3  A    between atoms: C_4  and  C_5
REMARK    4  A    between atoms: C_8  and  C_9
REMARK    5  A    between atoms: C_9  and  N_10
REMARK                            x       y       z     vdW  Elec       q    Type
REMARK                         _______ _______ _______ _____ _____    ______ ____
ROOT
ATOM      1  O   UNL     1      49.876   2.935  18.090  0.00  0.00    +0.000 OA
ATOM      2  C   UNL     1      50.768   3.741  17.853  0.00  0.00    +0.000 C 
ATOM      3  N   UNL     1      50.554   5.058  17.507  0.00  0.00    +0.000 N 
ATOM      4  H   UNL     1      51.350   5.679  17.516  0.00  0.00    +0.000 HD
ENDROOT
BRANCH   2   5
ATOM      5  C   UNL     1      52.180   3.490  18.116  0.00  0.00    +0.000 A 
ATOM      6  C   UNL     1      53.048   4.475  18.554  0.00  0.00    +0.000 A 
ATOM      7  S   UNL     1      54.688   4.055  18.265  0.00  0.00    +0.000 S 
ATOM      8  C   UNL     1      54.251   2.511  17.684  0.00  0.00    +0.000 A 
ATOM      9  N   UNL     1      55.151   1.654  17.132  0.00  0.00    +0.000 NA
ATOM     10  C   UNL     1      54.657   0.506  16.801  0.00  0.00    +0.000 A 
ATOM     11  N   UNL     1      53.354   0.119  17.018  0.00  0.00    +0.000 N 
ATOM     12  C   UNL     1      52.408   0.946  17.570  0.00  0.00    +0.000 A 
ATOM     13  O   UNL     1      51.267   0.576  17.799  0.00  0.00    +0.000 OA
ATOM     14  C   UNL     1      52.903   2.283  17.843  0.00  0.00    +0.000 A 
ATOM     15  H   UNL     1      53.054  -0.824  16.811  0.00  0.00    +0.000 HD
ENDBRANCH   2   5
BRANCH   3  16
ATOM     16  C   UNL     1      49.249   5.667  17.597  0.00  0.00    +0.000 C 
BRANCH  16  17
ATOM     17  C   UNL     1      48.484   5.462  16.329  0.00  0.00    +0.000 A 
ATOM     18  C   UNL     1      48.626   6.260  15.214  0.00  0.00    +0.000 A 
ATOM     19  N   UNL     1      47.895   6.115  14.083  0.00  0.00    +0.000 NA
ATOM     20  C   UNL     1      46.976   5.126  14.076  0.00  0.00    +0.000 A 
ATOM     21  N   UNL     1      46.761   4.293  15.117  0.00  0.00    +0.000 NA
ATOM     22  C   UNL     1      47.518   4.487  16.216  0.00  0.00    +0.000 A 
BRANCH  20  23
ATOM     23  C   UNL     1      46.051   4.987  12.874  0.00  0.00    +0.000 C 
BRANCH  23  24
ATOM     24  N   UNL     1      44.880   4.092  12.930  0.00  0.00    +0.000 NA
ATOM     25  C   UNL     1      44.791   3.095  11.854  0.00  0.00    +0.000 C 
ATOM     26  C   UNL     1      43.991   3.530  10.610  0.00  0.00    +0.000 C 
ATOM     27  O   UNL     1      42.718   4.087  10.960  0.00  0.00    +0.000 OA
ATOM     28  C   UNL     1      42.894   5.205  11.839  0.00  0.00    +0.000 C 
ATOM     29  C   UNL     1      43.595   4.772  13.131  0.00  0.00    +0.000 C 
ENDBRANCH  23  24
ENDBRANCH  20  23
ENDBRANCH  16  17
ENDBRANCH   3  16
TORSDOF 5
ENDMDL
