MODEL 1
REMARK VINA RESULT:    -8.531      0.000      0.000
REMARK INTER + INTRA:         -14.790
REMARK INTER:                 -13.768
REMARK INTRA:                  -1.022
REMARK UNBOUND:                -1.022
REMARK  Name = 
REMARK  11 active torsions:
REMARK  status: ('A' for Active; 'I' for Inactive)
REMARK    1  A    between atoms: N_1  and  C_2
REMARK    2  A    between atoms: C_2  and  C_3
REMARK    3  A    between atoms: C_3  and  N_4
REMARK    4  A    between atoms: C_3  and  C_21
REMARK    5  A    between atoms: N_4  and  C_5
REMARK    6  A    between atoms: C_5  and  C_6
REMARK    7  A    between atoms: C_9  and  C_10
REMARK    8  A    between atoms: C_10  and  O_11
REMARK    9  A    between atoms: O_11  and  C_12
REMARK   10  A    between atoms: C_12  and  C_13
REMARK   11  A    between atoms: C_21  and  C_23
REMARK                            x       y       z     vdW  Elec       q    Type
REMARK                         _______ _______ _______ _____ _____    ______ ____
ROOT
ATOM      1  C   UNL     1      47.957   5.133  16.869  0.00  0.00    +0.000 C 
ENDROOT
BRANCH   1   2
ATOM      2  N   UNL     1      47.902   4.548  15.502  0.00  0.00    +0.000 NA
ATOM      3  H   UNL     1      47.018   4.032  15.475  0.00  0.00    +0.000 HD
BRANCH   2   4
ATOM      4  C   UNL     1      47.832   5.559  14.426  0.00  0.00    +0.000 C 
BRANCH   4   5
ATOM      5  C   UNL     1      46.809   5.193  13.361  0.00  0.00    +0.000 A 
ATOM      6  C   UNL     1      46.532   6.076  12.318  0.00  0.00    +0.000 A 
ATOM      7  C   UNL     1      45.576   5.730  11.370  0.00  0.00    +0.000 A 
ATOM      8  C   UNL     1      44.920   4.504  11.472  0.00  0.00    +0.000 A 
ATOM      9  C   UNL     1      45.277   3.669  12.525  0.00  0.00    +0.000 A 
ATOM     10  N   UNL     1      46.199   3.984  13.463  0.00  0.00    +0.000 NA
BRANCH   8  11
ATOM     11  C   UNL     1      43.808   4.130  10.536  0.00  0.00    +0.000 C 
BRANCH  11  12
ATOM     12  O   UNL     1      44.237   3.155   9.585  0.00  0.00    +0.000 OA
BRANCH  12  13
ATOM     13  C   UNL     1      44.724   3.739   8.379  0.00  0.00    +0.000 C 
BRANCH  13  14
ATOM     14  C   UNL     1      45.836   2.880   7.851  0.00  0.00    +0.000 A 
ATOM     15  C   UNL     1      46.799   3.413   6.990  0.00  0.00    +0.000 A 
ATOM     16  C   UNL     1      47.813   2.586   6.535  0.00  0.00    +0.000 A 
ATOM     17  N   UNL     1      47.924   1.283   6.867  0.00  0.00    +0.000 NA
ATOM     18  C   UNL     1      46.971   0.783   7.679  0.00  0.00    +0.000 A 
ATOM     19  C   UNL     1      45.917   1.528   8.190  0.00  0.00    +0.000 A 
ENDBRANCH  13  14
ENDBRANCH  12  13
ENDBRANCH  11  12
ENDBRANCH   8  11
ENDBRANCH   4   5
ENDBRANCH   2   4
ENDBRANCH   1   2
BRANCH   1  20
ATOM     20  C   UNL     1      48.534   4.183  17.933  0.00  0.00    +0.000 C 
ATOM     21  O   UNL     1      47.783   3.474  18.605  0.00  0.00    +0.000 OA
BRANCH  20  22
ATOM     22  C   UNL     1      49.991   4.119  18.147  0.00  0.00    +0.000 A 
ATOM     23  C   UNL     1      50.731   5.082  18.813  0.00  0.00    +0.000 A 
ATOM     24  S   UNL     1      52.353   4.615  19.093  0.00  0.00    +0.000 S 
ATOM     25  C   UNL     1      52.116   3.125  18.305  0.00  0.00    +0.000 A 
ATOM     26  N   UNL     1      53.101   2.189  18.243  0.00  0.00    +0.000 NA
ATOM     27  C   UNL     1      52.758   1.101  17.638  0.00  0.00    +0.000 A 
ATOM     28  N   UNL     1      51.535   0.881  17.049  0.00  0.00    +0.000 N 
ATOM     29  C   UNL     1      50.577   1.863  16.945  0.00  0.00    +0.000 A 
ATOM     30  O   UNL     1      49.655   1.774  16.142  0.00  0.00    +0.000 OA
ATOM     31  C   UNL     1      50.850   3.029  17.765  0.00  0.00    +0.000 A 
ATOM     32  H   UNL     1      51.375   0.052  16.497  0.00  0.00    +0.000 HD
ENDBRANCH  20  22
ENDBRANCH   1  20
BRANCH   1  33
ATOM     33  C   UNL     1      48.673   6.509  16.882  0.00  0.00    +0.000 C 
BRANCH  33  34
ATOM     34  N   UNL     1      48.009   7.456  17.800  0.00  0.00    +0.000 NA
ATOM     35  H   UNL     1      48.714   7.821  18.444  0.00  0.00    +0.000 HD
ATOM     36  H   UNL     1      47.354   6.939  18.388  0.00  0.00    +0.000 HD
ENDBRANCH  33  34
ENDBRANCH   1  33
TORSDOF 11
ENDMDL
MODEL 2
REMARK VINA RESULT:    -8.300      2.078      2.844
REMARK INTER + INTRA:         -14.417
REMARK INTER:                 -13.070
REMARK INTRA:                  -1.347
REMARK UNBOUND:                -1.022
REMARK  Name = 
REMARK  11 active torsions:
REMARK  status: ('A' for Active; 'I' for Inactive)
REMARK    1  A    between atoms: N_1  and  C_2
REMARK    2  A    between atoms: C_2  and  C_3
REMARK    3  A    between atoms: C_3  and  N_4
REMARK    4  A    between atoms: C_3  and  C_21
REMARK    5  A    between atoms: N_4  and  C_5
REMARK    6  A    between atoms: C_5  and  C_6
REMARK    7  A    between atoms: C_9  and  C_10
REMARK    8  A    between atoms: C_10  and  O_11
REMARK    9  A    between atoms: O_11  and  C_12
REMARK   10  A    between atoms: C_12  and  C_13
REMARK   11  A    between atoms: C_21  and  C_23
REMARK                            x       y       z     vdW  Elec       q    Type
REMARK                         _______ _______ _______ _____ _____    ______ ____
ROOT
ATOM      1  C   UNL     1      48.291   4.277  16.464  0.00  0.00    +0.000 C 
ENDROOT
BRANCH   1   2
ATOM      2  N   UNL     1      47.150   4.876  15.720  0.00  0.00    +0.000 NA
ATOM      3  H   UNL     1      46.819   5.637  16.320  0.00  0.00    +0.000 HD
BRANCH   2   4
ATOM      4  C   UNL     1      47.538   5.494  14.434  0.00  0.00    +0.000 C 
BRANCH   4   5
ATOM      5  C   UNL     1      46.560   5.159  13.318  0.00  0.00    +0.000 A 
ATOM      6  C   UNL     1      46.266   6.102  12.334  0.00  0.00    +0.000 A 
ATOM      7  C   UNL     1      45.352   5.780  11.337  0.00  0.00    +0.000 A 
ATOM      8  C   UNL     1      44.754   4.521  11.333  0.00  0.00    +0.000 A 
ATOM      9  C   UNL     1      45.126   3.629  12.333  0.00  0.00    +0.000 A 
ATOM     10  N   UNL     1      46.009   3.918  13.316  0.00  0.00    +0.000 NA
BRANCH   8  11
ATOM     11  C   UNL     1      43.686   4.164  10.342  0.00  0.00    +0.000 C 
BRANCH  11  12
ATOM     12  O   UNL     1      44.165   3.228   9.376  0.00  0.00    +0.000 OA
BRANCH  12  13
ATOM     13  C   UNL     1      44.806   3.858   8.269  0.00  0.00    +0.000 C 
BRANCH  13  14
ATOM     14  C   UNL     1      45.864   2.932   7.743  0.00  0.00    +0.000 A 
ATOM     15  C   UNL     1      45.970   1.625   8.229  0.00  0.00    +0.000 A 
ATOM     16  C   UNL     1      46.956   0.802   7.707  0.00  0.00    +0.000 A 
ATOM     17  N   UNL     1      47.833   1.190   6.758  0.00  0.00    +0.000 NA
ATOM     18  C   UNL     1      47.727   2.461   6.321  0.00  0.00    +0.000 A 
ATOM     19  C   UNL     1      46.775   3.363   6.777  0.00  0.00    +0.000 A 
ENDBRANCH  13  14
ENDBRANCH  12  13
ENDBRANCH  11  12
ENDBRANCH   8  11
ENDBRANCH   4   5
ENDBRANCH   2   4
ENDBRANCH   1   2
BRANCH   1  20
ATOM     20  C   UNL     1      48.892   5.202  17.537  0.00  0.00    +0.000 C 
ATOM     21  O   UNL     1      48.155   5.880  18.254  0.00  0.00    +0.000 OA
BRANCH  20  22
ATOM     22  C   UNL     1      50.354   5.274  17.709  0.00  0.00    +0.000 A 
ATOM     23  C   UNL     1      51.074   4.536  18.634  0.00  0.00    +0.000 A 
ATOM     24  S   UNL     1      52.768   4.672  18.436  0.00  0.00    +0.000 S 
ATOM     25  C   UNL     1      52.583   5.745  17.128  0.00  0.00    +0.000 A 
ATOM     26  N   UNL     1      53.655   6.209  16.431  0.00  0.00    +0.000 NA
ATOM     27  C   UNL     1      53.349   6.990  15.449  0.00  0.00    +0.000 A 
ATOM     28  N   UNL     1      52.073   7.387  15.129  0.00  0.00    +0.000 N 
ATOM     29  C   UNL     1      50.984   7.075  15.910  0.00  0.00    +0.000 A 
ATOM     30  O   UNL     1      49.932   7.698  15.817  0.00  0.00    +0.000 OA
ATOM     31  C   UNL     1      51.257   6.058  16.907  0.00  0.00    +0.000 A 
ATOM     32  H   UNL     1      51.918   8.087  14.419  0.00  0.00    +0.000 HD
ENDBRANCH  20  22
ENDBRANCH   1  20
BRANCH   1  33
ATOM     33  C   UNL     1      47.937   2.883  17.043  0.00  0.00    +0.000 C 
BRANCH  33  34
ATOM     34  N   UNL     1      46.648   2.907  17.762  0.00  0.00    +0.000 NA
ATOM     35  H   UNL     1      46.150   2.040  17.550  0.00  0.00    +0.000 HD
ATOM     36  H   UNL     1      46.068   3.651  17.371  0.00  0.00    +0.000 HD
ENDBRANCH  33  34
ENDBRANCH   1  33
TORSDOF 11
ENDMDL
MODEL 3
REMARK VINA RESULT:    -8.224      2.936      4.373
REMARK INTER + INTRA:         -14.293
REMARK INTER:                 -12.600
REMARK INTRA:                  -1.693
REMARK UNBOUND:                -1.022
REMARK  Name = 
REMARK  11 active torsions:
REMARK  status: ('A' for Active; 'I' for Inactive)
REMARK    1  A    between atoms: N_1  and  C_2
REMARK    2  A    between atoms: C_2  and  C_3
REMARK    3  A    between atoms: C_3  and  N_4
REMARK    4  A    between atoms: C_3  and  C_21
REMARK    5  A    between atoms: N_4  and  C_5
REMARK    6  A    between atoms: C_5  and  C_6
REMARK    7  A    between atoms: C_9  and  C_10
REMARK    8  A    between atoms: C_10  and  O_11
REMARK    9  A    between atoms: O_11  and  C_12
REMARK   10  A    between atoms: C_12  and  C_13
REMARK   11  A    between atoms: C_21  and  C_23
REMARK                            x       y       z     vdW  Elec       q    Type
REMARK                         _______ _______ _______ _____ _____    ______ ____
ROOT
ATOM      1  C   UNL     1      48.444   4.912  16.782  0.00  0.00    +0.000 C 
ENDROOT
BRANCH   1   2
ATOM      2  N   UNL     1      47.326   5.003  15.805  0.00  0.00    +0.000 NA
ATOM      3  H   UNL     1      47.591   5.768  15.177  0.00  0.00    +0.000 HD
BRANCH   2   4
ATOM      4  C   UNL     1      47.176   3.800  14.960  0.00  0.00    +0.000 C 
BRANCH   4   5
ATOM      5  C   UNL     1      46.324   4.065  13.728  0.00  0.00    +0.000 A 
ATOM      6  C   UNL     1      45.951   5.368  13.398  0.00  0.00    +0.000 A 
ATOM      7  C   UNL     1      45.153   5.584  12.280  0.00  0.00    +0.000 A 
ATOM      8  C   UNL     1      44.749   4.498  11.505  0.00  0.00    +0.000 A 
ATOM      9  C   UNL     1      45.190   3.236  11.886  0.00  0.00    +0.000 A 
ATOM     10  N   UNL     1      45.963   2.998  12.971  0.00  0.00    +0.000 NA
BRANCH   8  11
ATOM     11  C   UNL     1      43.804   4.667  10.352  0.00  0.00    +0.000 C 
BRANCH  11  12
ATOM     12  O   UNL     1      44.124   3.776   9.282  0.00  0.00    +0.000 OA
BRANCH  12  13
ATOM     13  C   UNL     1      45.141   4.289   8.424  0.00  0.00    +0.000 C 
BRANCH  13  14
ATOM     14  C   UNL     1      45.955   3.137   7.912  0.00  0.00    +0.000 A 
ATOM     15  C   UNL     1      45.757   1.848   8.414  0.00  0.00    +0.000 A 
ATOM     16  C   UNL     1      46.524   0.812   7.905  0.00  0.00    +0.000 A 
ATOM     17  N   UNL     1      47.466   0.974   6.952  0.00  0.00    +0.000 NA
ATOM     18  C   UNL     1      47.656   2.230   6.498  0.00  0.00    +0.000 A 
ATOM     19  C   UNL     1      46.940   3.333   6.942  0.00  0.00    +0.000 A 
ENDBRANCH  13  14
ENDBRANCH  12  13
ENDBRANCH  11  12
ENDBRANCH   8  11
ENDBRANCH   4   5
ENDBRANCH   2   4
ENDBRANCH   1   2
BRANCH   1  20
ATOM     20  C   UNL     1      49.506   6.014  16.621  0.00  0.00    +0.000 C 
ATOM     21  O   UNL     1      50.705   5.729  16.652  0.00  0.00    +0.000 OA
BRANCH  20  22
ATOM     22  C   UNL     1      49.088   7.414  16.427  0.00  0.00    +0.000 A 
ATOM     23  C   UNL     1      48.720   8.273  17.449  0.00  0.00    +0.000 A 
ATOM     24  S   UNL     1      48.506   9.889  16.929  0.00  0.00    +0.000 S 
ATOM     25  C   UNL     1      48.869   9.476  15.318  0.00  0.00    +0.000 A 
ATOM     26  N   UNL     1      48.934  10.418  14.340  0.00  0.00    +0.000 NA
ATOM     27  C   UNL     1      49.249   9.950  13.177  0.00  0.00    +0.000 A 
ATOM     28  N   UNL     1      49.459   8.621  12.895  0.00  0.00    +0.000 N 
ATOM     29  C   UNL     1      49.237   7.626  13.818  0.00  0.00    +0.000 A 
ATOM     30  O   UNL     1      49.094   6.457  13.474  0.00  0.00    +0.000 OA
ATOM     31  C   UNL     1      49.062   8.117  15.171  0.00  0.00    +0.000 A 
ATOM     32  H   UNL     1      49.592   8.316  11.942  0.00  0.00    +0.000 HD
ENDBRANCH  20  22
ENDBRANCH   1  20
BRANCH   1  33
ATOM     33  C   UNL     1      47.931   4.821  18.243  0.00  0.00    +0.000 C 
BRANCH  33  34
ATOM     34  N   UNL     1      46.491   5.132  18.331  0.00  0.00    +0.000 NA
ATOM     35  H   UNL     1      46.051   4.435  18.936  0.00  0.00    +0.000 HD
ATOM     36  H   UNL     1      46.068   4.994  17.412  0.00  0.00    +0.000 HD
ENDBRANCH  33  34
ENDBRANCH   1  33
TORSDOF 11
ENDMDL
MODEL 4
REMARK VINA RESULT:    -7.938      1.798      2.374
REMARK INTER + INTRA:         -13.832
REMARK INTER:                 -12.353
REMARK INTRA:                  -1.479
REMARK UNBOUND:                -1.022
REMARK  Name = 
REMARK  11 active torsions:
REMARK  status: ('A' for Active; 'I' for Inactive)
REMARK    1  A    between atoms: N_1  and  C_2
REMARK    2  A    between atoms: C_2  and  C_3
REMARK    3  A    between atoms: C_3  and  N_4
REMARK    4  A    between atoms: C_3  and  C_21
REMARK    5  A    between atoms: N_4  and  C_5
REMARK    6  A    between atoms: C_5  and  C_6
REMARK    7  A    between atoms: C_9  and  C_10
REMARK    8  A    between atoms: C_10  and  O_11
REMARK    9  A    between atoms: O_11  and  C_12
REMARK   10  A    between atoms: C_12  and  C_13
REMARK   11  A    between atoms: C_21  and  C_23
REMARK                            x       y       z     vdW  Elec       q    Type
REMARK                         _______ _______ _______ _____ _____    ______ ____
ROOT
ATOM      1  C   UNL     1      47.885   4.007  16.917  0.00  0.00    +0.000 C 
ENDROOT
BRANCH   1   2
ATOM      2  N   UNL     1      46.807   4.379  15.961  0.00  0.00    +0.000 NA
ATOM      3  H   UNL     1      46.304   5.143  16.421  0.00  0.00    +0.000 HD
BRANCH   2   4
ATOM      4  C   UNL     1      47.310   4.918  14.680  0.00  0.00    +0.000 C 
BRANCH   4   5
ATOM      5  C   UNL     1      46.318   4.718  13.544  0.00  0.00    +0.000 A 
ATOM      6  C   UNL     1      46.130   3.452  12.989  0.00  0.00    +0.000 A 
ATOM      7  C   UNL     1      45.235   3.298  11.936  0.00  0.00    +0.000 A 
ATOM      8  C   UNL     1      44.536   4.407  11.461  0.00  0.00    +0.000 A 
ATOM      9  C   UNL     1      44.760   5.626  12.091  0.00  0.00    +0.000 A 
ATOM     10  N   UNL     1      45.627   5.804  13.113  0.00  0.00    +0.000 NA
BRANCH   8  11
ATOM     11  C   UNL     1      43.639   4.313  10.262  0.00  0.00    +0.000 C 
BRANCH  11  12
ATOM     12  O   UNL     1      44.165   3.407   9.291  0.00  0.00    +0.000 OA
BRANCH  12  13
ATOM     13  C   UNL     1      44.991   4.054   8.325  0.00  0.00    +0.000 C 
BRANCH  13  14
ATOM     14  C   UNL     1      45.946   3.041   7.763  0.00  0.00    +0.000 A 
ATOM     15  C   UNL     1      46.796   3.377   6.706  0.00  0.00    +0.000 A 
ATOM     16  C   UNL     1      47.669   2.413   6.225  0.00  0.00    +0.000 A 
ATOM     17  N   UNL     1      47.742   1.157   6.712  0.00  0.00    +0.000 NA
ATOM     18  C   UNL     1      46.896   0.848   7.716  0.00  0.00    +0.000 A 
ATOM     19  C   UNL     1      45.987   1.740   8.268  0.00  0.00    +0.000 A 
ENDBRANCH  13  14
ENDBRANCH  12  13
ENDBRANCH  11  12
ENDBRANCH   8  11
ENDBRANCH   4   5
ENDBRANCH   2   4
ENDBRANCH   1   2
BRANCH   1  20
ATOM     20  C   UNL     1      48.537   5.209  17.623  0.00  0.00    +0.000 C 
ATOM     21  O   UNL     1      48.051   5.654  18.665  0.00  0.00    +0.000 OA
BRANCH  20  22
ATOM     22  C   UNL     1      49.746   5.827  17.053  0.00  0.00    +0.000 A 
ATOM     23  C   UNL     1      49.768   7.037  16.378  0.00  0.00    +0.000 A 
ATOM     24  S   UNL     1      51.349   7.593  16.036  0.00  0.00    +0.000 S 
ATOM     25  C   UNL     1      52.046   6.216  16.754  0.00  0.00    +0.000 A 
ATOM     26  N   UNL     1      53.394   6.079  16.869  0.00  0.00    +0.000 NA
ATOM     27  C   UNL     1      53.766   4.994  17.463  0.00  0.00    +0.000 A 
ATOM     28  N   UNL     1      52.915   4.012  17.911  0.00  0.00    +0.000 N 
ATOM     29  C   UNL     1      51.562   4.037  17.663  0.00  0.00    +0.000 A 
ATOM     30  O   UNL     1      50.877   3.024  17.758  0.00  0.00    +0.000 OA
ATOM     31  C   UNL     1      51.087   5.314  17.166  0.00  0.00    +0.000 A 
ATOM     32  H   UNL     1      53.281   3.141  18.265  0.00  0.00    +0.000 HD
ENDBRANCH  20  22
ENDBRANCH   1  20
BRANCH   1  33
ATOM     33  C   UNL     1      47.413   2.934  17.932  0.00  0.00    +0.000 C 
BRANCH  33  34
ATOM     34  N   UNL     1      48.288   2.892  19.121  0.00  0.00    +0.000 NA
ATOM     35  H   UNL     1      47.693   2.839  19.951  0.00  0.00    +0.000 HD
ATOM     36  H   UNL     1      48.778   3.784  19.200  0.00  0.00    +0.000 HD
ENDBRANCH  33  34
ENDBRANCH   1  33
TORSDOF 11
ENDMDL
MODEL 5
REMARK VINA RESULT:    -7.782      2.550      3.909
REMARK INTER + INTRA:         -13.580
REMARK INTER:                 -12.020
REMARK INTRA:                  -1.560
REMARK UNBOUND:                -1.022
REMARK  Name = 
REMARK  11 active torsions:
REMARK  status: ('A' for Active; 'I' for Inactive)
REMARK    1  A    between atoms: N_1  and  C_2
REMARK    2  A    between atoms: C_2  and  C_3
REMARK    3  A    between atoms: C_3  and  N_4
REMARK    4  A    between atoms: C_3  and  C_21
REMARK    5  A    between atoms: N_4  and  C_5
REMARK    6  A    between atoms: C_5  and  C_6
REMARK    7  A    between atoms: C_9  and  C_10
REMARK    8  A    between atoms: C_10  and  O_11
REMARK    9  A    between atoms: O_11  and  C_12
REMARK   10  A    between atoms: C_12  and  C_13
REMARK   11  A    between atoms: C_21  and  C_23
REMARK                            x       y       z     vdW  Elec       q    Type
REMARK                         _______ _______ _______ _____ _____    ______ ____
ROOT
ATOM      1  C   UNL     1      48.276   4.307  16.487  0.00  0.00    +0.000 C 
ENDROOT
BRANCH   1   2
ATOM      2  N   UNL     1      47.223   5.110  15.806  0.00  0.00    +0.000 NA
ATOM      3  H   UNL     1      47.127   5.952  16.381  0.00  0.00    +0.000 HD
BRANCH   2   4
ATOM      4  C   UNL     1      47.606   5.566  14.453  0.00  0.00    +0.000 C 
BRANCH   4   5
ATOM      5  C   UNL     1      46.563   5.199  13.408  0.00  0.00    +0.000 A 
ATOM      6  C   UNL     1      46.232   3.863  13.184  0.00  0.00    +0.000 A 
ATOM      7  C   UNL     1      45.293   3.551  12.207  0.00  0.00    +0.000 A 
ATOM      8  C   UNL     1      44.693   4.576  11.478  0.00  0.00    +0.000 A 
ATOM      9  C   UNL     1      45.058   5.882  11.786  0.00  0.00    +0.000 A 
ATOM     10  N   UNL     1      45.971   6.213  12.727  0.00  0.00    +0.000 NA
BRANCH   8  11
ATOM     11  C   UNL     1      43.754   4.286  10.345  0.00  0.00    +0.000 C 
BRANCH  11  12
ATOM     12  O   UNL     1      44.330   3.367   9.415  0.00  0.00    +0.000 OA
BRANCH  12  13
ATOM     13  C   UNL     1      44.968   4.020   8.319  0.00  0.00    +0.000 C 
BRANCH  13  14
ATOM     14  C   UNL     1      45.933   3.058   7.690  0.00  0.00    +0.000 A 
ATOM     15  C   UNL     1      46.138   1.791   8.245  0.00  0.00    +0.000 A 
ATOM     16  C   UNL     1      47.031   0.932   7.625  0.00  0.00    +0.000 A 
ATOM     17  N   UNL     1      47.729   1.249   6.515  0.00  0.00    +0.000 NA
ATOM     18  C   UNL     1      47.534   2.483   6.010  0.00  0.00    +0.000 A 
ATOM     19  C   UNL     1      46.662   3.416   6.554  0.00  0.00    +0.000 A 
ENDBRANCH  13  14
ENDBRANCH  12  13
ENDBRANCH  11  12
ENDBRANCH   8  11
ENDBRANCH   4   5
ENDBRANCH   2   4
ENDBRANCH   1   2
BRANCH   1  20
ATOM     20  C   UNL     1      48.898   5.002  17.711  0.00  0.00    +0.000 C 
ATOM     21  O   UNL     1      49.658   4.381  18.457  0.00  0.00    +0.000 OA
BRANCH  20  22
ATOM     22  C   UNL     1      48.585   6.415  17.991  0.00  0.00    +0.000 A 
ATOM     23  C   UNL     1      47.547   6.845  18.800  0.00  0.00    +0.000 A 
ATOM     24  S   UNL     1      47.582   8.528  19.108  0.00  0.00    +0.000 S 
ATOM     25  C   UNL     1      48.969   8.730  18.142  0.00  0.00    +0.000 A 
ATOM     26  N   UNL     1      49.582   9.938  18.023  0.00  0.00    +0.000 NA
ATOM     27  C   UNL     1      50.638   9.922  17.280  0.00  0.00    +0.000 A 
ATOM     28  N   UNL     1      51.110   8.820  16.607  0.00  0.00    +0.000 N 
ATOM     29  C   UNL     1      50.424   7.628  16.569  0.00  0.00    +0.000 A 
ATOM     30  O   UNL     1      50.663   6.782  15.714  0.00  0.00    +0.000 OA
ATOM     31  C   UNL     1      49.341   7.550  17.530  0.00  0.00    +0.000 A 
ATOM     32  H   UNL     1      51.876   8.907  15.957  0.00  0.00    +0.000 HD
ENDBRANCH  20  22
ENDBRANCH   1  20
BRANCH   1  33
ATOM     33  C   UNL     1      47.784   2.878  16.829  0.00  0.00    +0.000 C 
BRANCH  33  34
ATOM     34  N   UNL     1      46.902   2.878  18.014  0.00  0.00    +0.000 NA
ATOM     35  H   UNL     1      47.034   1.993  18.508  0.00  0.00    +0.000 HD
ATOM     36  H   UNL     1      45.930   2.866  17.699  0.00  0.00    +0.000 HD
ENDBRANCH  33  34
ENDBRANCH   1  33
TORSDOF 11
ENDMDL
MODEL 6
REMARK VINA RESULT:    -7.748      2.179      3.111
REMARK INTER + INTRA:         -13.526
REMARK INTER:                 -12.056
REMARK INTRA:                  -1.469
REMARK UNBOUND:                -1.022
REMARK  Name = 
REMARK  11 active torsions:
REMARK  status: ('A' for Active; 'I' for Inactive)
REMARK    1  A    between atoms: N_1  and  C_2
REMARK    2  A    between atoms: C_2  and  C_3
REMARK    3  A    between atoms: C_3  and  N_4
REMARK    4  A    between atoms: C_3  and  C_21
REMARK    5  A    between atoms: N_4  and  C_5
REMARK    6  A    between atoms: C_5  and  C_6
REMARK    7  A    between atoms: C_9  and  C_10
REMARK    8  A    between atoms: C_10  and  O_11
REMARK    9  A    between atoms: O_11  and  C_12
REMARK   10  A    between atoms: C_12  and  C_13
REMARK   11  A    between atoms: C_21  and  C_23
REMARK                            x       y       z     vdW  Elec       q    Type
REMARK                         _______ _______ _______ _____ _____    ______ ____
ROOT
ATOM      1  C   UNL     1      48.937   7.149  14.777  0.00  0.00    +0.000 C 
ENDROOT
BRANCH   1   2
ATOM      2  N   UNL     1      48.593   5.818  14.207  0.00  0.00    +0.000 NA
ATOM      3  H   UNL     1      49.330   5.192  14.544  0.00  0.00    +0.000 HD
BRANCH   2   4
ATOM      4  C   UNL     1      47.315   5.270  14.707  0.00  0.00    +0.000 C 
BRANCH   4   5
ATOM      5  C   UNL     1      46.353   4.935  13.578  0.00  0.00    +0.000 A 
ATOM      6  C   UNL     1      45.741   5.955  12.849  0.00  0.00    +0.000 A 
ATOM      7  C   UNL     1      44.847   5.624  11.837  0.00  0.00    +0.000 A 
ATOM      8  C   UNL     1      44.587   4.282  11.561  0.00  0.00    +0.000 A 
ATOM      9  C   UNL     1      45.262   3.328  12.314  0.00  0.00    +0.000 A 
ATOM     10  N   UNL     1      46.133   3.623  13.307  0.00  0.00    +0.000 NA
BRANCH   8  11
ATOM     11  C   UNL     1      43.554   3.876  10.551  0.00  0.00    +0.000 C 
BRANCH  11  12
ATOM     12  O   UNL     1      44.134   3.110   9.494  0.00  0.00    +0.000 OA
BRANCH  12  13
ATOM     13  C   UNL     1      44.972   3.891   8.645  0.00  0.00    +0.000 C 
BRANCH  13  14
ATOM     14  C   UNL     1      45.952   2.973   7.972  0.00  0.00    +0.000 A 
ATOM     15  C   UNL     1      46.015   1.622   8.322  0.00  0.00    +0.000 A 
ATOM     16  C   UNL     1      46.928   0.809   7.668  0.00  0.00    +0.000 A 
ATOM     17  N   UNL     1      47.773   1.249   6.712  0.00  0.00    +0.000 NA
ATOM     18  C   UNL     1      47.711   2.561   6.407  0.00  0.00    +0.000 A 
ATOM     19  C   UNL     1      46.833   3.456   7.002  0.00  0.00    +0.000 A 
ENDBRANCH  13  14
ENDBRANCH  12  13
ENDBRANCH  11  12
ENDBRANCH   8  11
ENDBRANCH   4   5
ENDBRANCH   2   4
ENDBRANCH   1   2
BRANCH   1  20
ATOM     20  C   UNL     1      49.997   7.095  15.892  0.00  0.00    +0.000 C 
ATOM     21  O   UNL     1      51.196   7.061  15.607  0.00  0.00    +0.000 OA
BRANCH  20  22
ATOM     22  C   UNL     1      49.577   7.088  17.304  0.00  0.00    +0.000 A 
ATOM     23  C   UNL     1      49.207   8.215  18.020  0.00  0.00    +0.000 A 
ATOM     24  S   UNL     1      48.558   7.853  19.561  0.00  0.00    +0.000 S 
ATOM     25  C   UNL     1      48.781   6.183  19.324  0.00  0.00    +0.000 A 
ATOM     26  N   UNL     1      48.367   5.272  20.244  0.00  0.00    +0.000 NA
ATOM     27  C   UNL     1      48.581   4.044  19.905  0.00  0.00    +0.000 A 
ATOM     28  N   UNL     1      49.214   3.646  18.751  0.00  0.00    +0.000 N 
ATOM     29  C   UNL     1      49.794   4.539  17.881  0.00  0.00    +0.000 A 
ATOM     30  O   UNL     1      50.630   4.179  17.059  0.00  0.00    +0.000 OA
ATOM     31  C   UNL     1      49.419   5.919  18.129  0.00  0.00    +0.000 A 
ATOM     32  H   UNL     1      49.446   2.675  18.604  0.00  0.00    +0.000 HD
ENDBRANCH  20  22
ENDBRANCH   1  20
BRANCH   1  33
ATOM     33  C   UNL     1      49.317   8.171  13.675  0.00  0.00    +0.000 C 
BRANCH  33  34
ATOM     34  N   UNL     1      50.429   7.677  12.838  0.00  0.00    +0.000 NA
ATOM     35  H   UNL     1      50.067   7.502  11.899  0.00  0.00    +0.000 HD
ATOM     36  H   UNL     1      50.721   6.763  13.187  0.00  0.00    +0.000 HD
ENDBRANCH  33  34
ENDBRANCH   1  33
TORSDOF 11
ENDMDL
MODEL 7
REMARK VINA RESULT:    -7.600      1.950      2.519
REMARK INTER + INTRA:         -13.287
REMARK INTER:                 -12.016
REMARK INTRA:                  -1.271
REMARK UNBOUND:                -1.022
REMARK  Name = 
REMARK  11 active torsions:
REMARK  status: ('A' for Active; 'I' for Inactive)
REMARK    1  A    between atoms: N_1  and  C_2
REMARK    2  A    between atoms: C_2  and  C_3
REMARK    3  A    between atoms: C_3  and  N_4
REMARK    4  A    between atoms: C_3  and  C_21
REMARK    5  A    between atoms: N_4  and  C_5
REMARK    6  A    between atoms: C_5  and  C_6
REMARK    7  A    between atoms: C_9  and  C_10
REMARK    8  A    between atoms: C_10  and  O_11
REMARK    9  A    between atoms: O_11  and  C_12
REMARK   10  A    between atoms: C_12  and  C_13
REMARK   11  A    between atoms: C_21  and  C_23
REMARK                            x       y       z     vdW  Elec       q    Type
REMARK                         _______ _______ _______ _____ _____    ______ ____
ROOT
ATOM      1  C   UNL     1      48.372   7.597  15.169  0.00  0.00    +0.000 C 
ENDROOT
BRANCH   1   2
ATOM      2  N   UNL     1      48.539   6.415  14.280  0.00  0.00    +0.000 NA
ATOM      3  H   UNL     1      49.483   6.072  14.478  0.00  0.00    +0.000 HD
BRANCH   2   4
ATOM      4  C   UNL     1      47.615   5.304  14.590  0.00  0.00    +0.000 C 
BRANCH   4   5
ATOM      5  C   UNL     1      46.645   5.029  13.451  0.00  0.00    +0.000 A 
ATOM      6  C   UNL     1      46.505   5.945  12.409  0.00  0.00    +0.000 A 
ATOM      7  C   UNL     1      45.596   5.682  11.391  0.00  0.00    +0.000 A 
ATOM      8  C   UNL     1      44.849   4.505  11.423  0.00  0.00    +0.000 A 
ATOM      9  C   UNL     1      45.072   3.632  12.481  0.00  0.00    +0.000 A 
ATOM     10  N   UNL     1      45.947   3.865  13.486  0.00  0.00    +0.000 NA
BRANCH   8  11
ATOM     11  C   UNL     1      43.783   4.227  10.405  0.00  0.00    +0.000 C 
BRANCH  11  12
ATOM     12  O   UNL     1      44.231   3.286   9.428  0.00  0.00    +0.000 OA
BRANCH  12  13
ATOM     13  C   UNL     1      44.870   3.910   8.316  0.00  0.00    +0.000 C 
BRANCH  13  14
ATOM     14  C   UNL     1      45.905   2.968   7.774  0.00  0.00    +0.000 A 
ATOM     15  C   UNL     1      45.978   1.650   8.235  0.00  0.00    +0.000 A 
ATOM     16  C   UNL     1      46.943   0.812   7.699  0.00  0.00    +0.000 A 
ATOM     17  N   UNL     1      47.830   1.195   6.758  0.00  0.00    +0.000 NA
ATOM     18  C   UNL     1      47.757   2.477   6.345  0.00  0.00    +0.000 A 
ATOM     19  C   UNL     1      46.828   3.394   6.817  0.00  0.00    +0.000 A 
ENDBRANCH  13  14
ENDBRANCH  12  13
ENDBRANCH  11  12
ENDBRANCH   8  11
ENDBRANCH   4   5
ENDBRANCH   2   4
ENDBRANCH   1   2
BRANCH   1  20
ATOM     20  C   UNL     1      49.210   7.532  16.458  0.00  0.00    +0.000 C 
ATOM     21  O   UNL     1      48.769   8.001  17.509  0.00  0.00    +0.000 OA
BRANCH  20  22
ATOM     22  C   UNL     1      50.544   6.906  16.435  0.00  0.00    +0.000 A 
ATOM     23  C   UNL     1      51.664   7.464  15.841  0.00  0.00    +0.000 A 
ATOM     24  S   UNL     1      53.106   6.606  16.177  0.00  0.00    +0.000 S 
ATOM     25  C   UNL     1      52.266   5.450  17.101  0.00  0.00    +0.000 A 
ATOM     26  N   UNL     1      52.918   4.449  17.751  0.00  0.00    +0.000 NA
ATOM     27  C   UNL     1      52.145   3.671  18.433  0.00  0.00    +0.000 A 
ATOM     28  N   UNL     1      50.775   3.773  18.485  0.00  0.00    +0.000 N 
ATOM     29  C   UNL     1      50.070   4.665  17.709  0.00  0.00    +0.000 A 
ATOM     30  O   UNL     1      48.869   4.523  17.506  0.00  0.00    +0.000 OA
ATOM     31  C   UNL     1      50.904   5.669  17.077  0.00  0.00    +0.000 A 
ATOM     32  H   UNL     1      50.226   3.064  18.947  0.00  0.00    +0.000 HD
ENDBRANCH  20  22
ENDBRANCH   1  20
BRANCH   1  33
ATOM     33  C   UNL     1      48.594   8.929  14.408  0.00  0.00    +0.000 C 
BRANCH  33  34
ATOM     34  N   UNL     1      47.383   9.339  13.668  0.00  0.00    +0.000 NA
ATOM     35  H   UNL     1      46.730   9.757  14.334  0.00  0.00    +0.000 HD
ATOM     36  H   UNL     1      46.912   8.503  13.321  0.00  0.00    +0.000 HD
ENDBRANCH  33  34
ENDBRANCH   1  33
TORSDOF 11
ENDMDL
MODEL 8
REMARK VINA RESULT:    -7.505      1.974      2.634
REMARK INTER + INTRA:         -13.134
REMARK INTER:                 -11.506
REMARK INTRA:                  -1.627
REMARK UNBOUND:                -1.022
REMARK  Name = 
REMARK  11 active torsions:
REMARK  status: ('A' for Active; 'I' for Inactive)
REMARK    1  A    between atoms: N_1  and  C_2
REMARK    2  A    between atoms: C_2  and  C_3
REMARK    3  A    between atoms: C_3  and  N_4
REMARK    4  A    between atoms: C_3  and  C_21
REMARK    5  A    between atoms: N_4  and  C_5
REMARK    6  A    between atoms: C_5  and  C_6
REMARK    7  A    between atoms: C_9  and  C_10
REMARK    8  A    between atoms: C_10  and  O_11
REMARK    9  A    between atoms: O_11  and  C_12
REMARK   10  A    between atoms: C_12  and  C_13
REMARK   11  A    between atoms: C_21  and  C_23
REMARK                            x       y       z     vdW  Elec       q    Type
REMARK                         _______ _______ _______ _____ _____    ______ ____
ROOT
ATOM      1  C   UNL     1      49.199   7.408  16.054  0.00  0.00    +0.000 C 
ENDROOT
BRANCH   1   2
ATOM      2  N   UNL     1      48.735   6.776  14.788  0.00  0.00    +0.000 NA
ATOM      3  H   UNL     1      48.135   6.003  15.089  0.00  0.00    +0.000 HD
BRANCH   2   4
ATOM      4  C   UNL     1      47.895   7.662  13.956  0.00  0.00    +0.000 C 
BRANCH   4   5
ATOM      5  C   UNL     1      46.903   6.881  13.107  0.00  0.00    +0.000 A 
ATOM      6  C   UNL     1      46.757   5.506  13.283  0.00  0.00    +0.000 A 
ATOM      7  C   UNL     1      45.861   4.810  12.479  0.00  0.00    +0.000 A 
ATOM      8  C   UNL     1      45.118   5.499  11.521  0.00  0.00    +0.000 A 
ATOM      9  C   UNL     1      45.302   6.874  11.433  0.00  0.00    +0.000 A 
ATOM     10  N   UNL     1      46.170   7.574  12.199  0.00  0.00    +0.000 NA
BRANCH   8  11
ATOM     11  C   UNL     1      44.218   4.779  10.562  0.00  0.00    +0.000 C 
BRANCH  11  12
ATOM     12  O   UNL     1      44.873   3.649   9.983  0.00  0.00    +0.000 OA
BRANCH  12  13
ATOM     13  C   UNL     1      44.670   3.557   8.574  0.00  0.00    +0.000 C 
BRANCH  13  14
ATOM     14  C   UNL     1      45.821   2.802   7.977  0.00  0.00    +0.000 A 
ATOM     15  C   UNL     1      45.944   1.423   8.171  0.00  0.00    +0.000 A 
ATOM     16  C   UNL     1      47.018   0.765   7.593  0.00  0.00    +0.000 A 
ATOM     17  N   UNL     1      47.966   1.380   6.856  0.00  0.00    +0.000 NA
ATOM     18  C   UNL     1      47.841   2.714   6.702  0.00  0.00    +0.000 A 
ATOM     19  C   UNL     1      46.803   3.464   7.238  0.00  0.00    +0.000 A 
ENDBRANCH  13  14
ENDBRANCH  12  13
ENDBRANCH  11  12
ENDBRANCH   8  11
ENDBRANCH   4   5
ENDBRANCH   2   4
ENDBRANCH   1   2
BRANCH   1  20
ATOM     20  C   UNL     1      48.788   6.639  17.323  0.00  0.00    +0.000 C 
ATOM     21  O   UNL     1      48.536   7.250  18.363  0.00  0.00    +0.000 OA
BRANCH  20  22
ATOM     22  C   UNL     1      48.694   5.169  17.292  0.00  0.00    +0.000 A 
ATOM     23  C   UNL     1      47.550   4.461  16.964  0.00  0.00    +0.000 A 
ATOM     24  S   UNL     1      47.819   2.780  16.799  0.00  0.00    +0.000 S 
ATOM     25  C   UNL     1      49.467   2.950  17.190  0.00  0.00    +0.000 A 
ATOM     26  N   UNL     1      50.317   1.889  17.166  0.00  0.00    +0.000 NA
ATOM     27  C   UNL     1      51.539   2.186  17.458  0.00  0.00    +0.000 A 
ATOM     28  N   UNL     1      51.980   3.437  17.817  0.00  0.00    +0.000 N 
ATOM     29  C   UNL     1      51.123   4.495  18.016  0.00  0.00    +0.000 A 
ATOM     30  O   UNL     1      51.467   5.486  18.651  0.00  0.00    +0.000 OA
ATOM     31  C   UNL     1      49.779   4.252  17.525  0.00  0.00    +0.000 A 
ATOM     32  H   UNL     1      52.927   3.573  18.140  0.00  0.00    +0.000 HD
ENDBRANCH  20  22
ENDBRANCH   1  20
BRANCH   1  33
ATOM     33  C   UNL     1      50.721   7.702  16.031  0.00  0.00    +0.000 C 
BRANCH  33  34
ATOM     34  N   UNL     1      51.209   8.133  17.356  0.00  0.00    +0.000 NA
ATOM     35  H   UNL     1      52.192   7.865  17.435  0.00  0.00    +0.000 HD
ATOM     36  H   UNL     1      50.727   7.592  18.076  0.00  0.00    +0.000 HD
ENDBRANCH  33  34
ENDBRANCH   1  33
TORSDOF 11
ENDMDL
MODEL 9
REMARK VINA RESULT:    -7.167      2.989      9.249
REMARK INTER + INTRA:         -12.588
REMARK INTER:                 -11.402
REMARK INTRA:                  -1.186
REMARK UNBOUND:                -1.022
REMARK  Name = 
REMARK  11 active torsions:
REMARK  status: ('A' for Active; 'I' for Inactive)
REMARK    1  A    between atoms: N_1  and  C_2
REMARK    2  A    between atoms: C_2  and  C_3
REMARK    3  A    between atoms: C_3  and  N_4
REMARK    4  A    between atoms: C_3  and  C_21
REMARK    5  A    between atoms: N_4  and  C_5
REMARK    6  A    between atoms: C_5  and  C_6
REMARK    7  A    between atoms: C_9  and  C_10
REMARK    8  A    between atoms: C_10  and  O_11
REMARK    9  A    between atoms: O_11  and  C_12
REMARK   10  A    between atoms: C_12  and  C_13
REMARK   11  A    between atoms: C_21  and  C_23
REMARK                            x       y       z     vdW  Elec       q    Type
REMARK                         _______ _______ _______ _____ _____    ______ ____
ROOT
ATOM      1  C   UNL     1      45.721   7.365  11.782  0.00  0.00    +0.000 C 
ENDROOT
BRANCH   1   2
ATOM      2  N   UNL     1      46.817   6.382  12.000  0.00  0.00    +0.000 NA
ATOM      3  H   UNL     1      47.175   6.180  11.062  0.00  0.00    +0.000 HD
BRANCH   2   4
ATOM      4  C   UNL     1      47.953   6.923  12.775  0.00  0.00    +0.000 C 
BRANCH   4   5
ATOM      5  C   UNL     1      48.053   6.298  14.158  0.00  0.00    +0.000 A 
ATOM      6  C   UNL     1      48.715   6.967  15.187  0.00  0.00    +0.000 A 
ATOM      7  C   UNL     1      48.813   6.365  16.437  0.00  0.00    +0.000 A 
ATOM      8  C   UNL     1      48.241   5.110  16.641  0.00  0.00    +0.000 A 
ATOM      9  C   UNL     1      47.573   4.525  15.571  0.00  0.00    +0.000 A 
ATOM     10  N   UNL     1      47.466   5.087  14.345  0.00  0.00    +0.000 NA
BRANCH   8  11
ATOM     11  C   UNL     1      48.409   4.374  17.938  0.00  0.00    +0.000 C 
BRANCH  11  12
ATOM     12  O   UNL     1      49.415   3.365  17.836  0.00  0.00    +0.000 OA
BRANCH  12  13
ATOM     13  C   UNL     1      50.705   3.899  17.551  0.00  0.00    +0.000 C 
BRANCH  13  14
ATOM     14  C   UNL     1      51.734   2.854  17.871  0.00  0.00    +0.000 A 
ATOM     15  C   UNL     1      51.555   1.531  17.456  0.00  0.00    +0.000 A 
ATOM     16  C   UNL     1      52.535   0.601  17.766  0.00  0.00    +0.000 A 
ATOM     17  N   UNL     1      53.656   0.894  18.457  0.00  0.00    +0.000 NA
ATOM     18  C   UNL     1      53.796   2.171  18.867  0.00  0.00    +0.000 A 
ATOM     19  C   UNL     1      52.875   3.176  18.608  0.00  0.00    +0.000 A 
ENDBRANCH  13  14
ENDBRANCH  12  13
ENDBRANCH  11  12
ENDBRANCH   8  11
ENDBRANCH   4   5
ENDBRANCH   2   4
ENDBRANCH   1   2
BRANCH   1  20
ATOM     20  C   UNL     1      44.369   6.723  11.420  0.00  0.00    +0.000 C 
ATOM     21  O   UNL     1      43.406   7.432  11.124  0.00  0.00    +0.000 OA
BRANCH  20  22
ATOM     22  C   UNL     1      44.229   5.256  11.427  0.00  0.00    +0.000 A 
ATOM     23  C   UNL     1      43.659   4.526  12.456  0.00  0.00    +0.000 A 
ATOM     24  S   UNL     1      43.438   2.873  12.071  0.00  0.00    +0.000 S 
ATOM     25  C   UNL     1      44.125   3.086  10.528  0.00  0.00    +0.000 A 
ATOM     26  N   UNL     1      44.185   2.066   9.630  0.00  0.00    +0.000 NA
ATOM     27  C   UNL     1      44.708   2.393   8.495  0.00  0.00    +0.000 A 
ATOM     28  N   UNL     1      45.219   3.633   8.193  0.00  0.00    +0.000 N 
ATOM     29  C   UNL     1      45.328   4.636   9.128  0.00  0.00    +0.000 A 
ATOM     30  O   UNL     1      46.076   5.592   8.955  0.00  0.00    +0.000 OA
ATOM     31  C   UNL     1      44.592   4.372  10.350  0.00  0.00    +0.000 A 
ATOM     32  H   UNL     1      45.712   3.786   7.326  0.00  0.00    +0.000 HD
ENDBRANCH  20  22
ENDBRANCH   1  20
BRANCH   1  33
ATOM     33  C   UNL     1      45.585   8.354  12.968  0.00  0.00    +0.000 C 
BRANCH  33  34
ATOM     34  N   UNL     1      44.787   9.540  12.596  0.00  0.00    +0.000 NA
ATOM     35  H   UNL     1      44.147   9.746  13.365  0.00  0.00    +0.000 HD
ATOM     36  H   UNL     1      44.187   9.297  11.806  0.00  0.00    +0.000 HD
ENDBRANCH  33  34
ENDBRANCH   1  33
TORSDOF 11
ENDMDL
