MODEL 1
REMARK VINA RESULT:    -7.425      0.000      0.000
REMARK INTER + INTRA:         -10.028
REMARK INTER:                  -9.595
REMARK INTRA:                  -0.434
REMARK UNBOUND:                -0.434
REMARK  Name = 
REMARK  6 active torsions:
REMARK  status: ('A' for Active; 'I' for Inactive)
REMARK    1  A    between atoms: N_1  and  C_2
REMARK    2  A    between atoms: C_2  and  C_3
REMARK    3  A    between atoms: C_6  and  O_7
REMARK    4  A    between atoms: O_7  and  C_8
REMARK    5  A    between atoms: C_8  and  C_9
REMARK    6  A    between atoms: C_11  and  N_12
REMARK                            x       y       z     vdW  Elec       q    Type
REMARK                         _______ _______ _______ _____ _____    ______ ____
ROOT
ATOM      1  O   UNL     1      43.779   3.990  10.153  0.00  0.00    +0.000 OA
ENDROOT
BRANCH   1   5
ATOM      2  C   UNL     1      46.590   2.318   7.546  0.00  0.00    +0.000 A 
ATOM      3  C   UNL     1      46.402   3.708   7.552  0.00  0.00    +0.000 A 
ATOM      4  C   UNL     1      45.467   4.304   8.403  0.00  0.00    +0.000 A 
ATOM      5  C   UNL     1      44.700   3.517   9.259  0.00  0.00    +0.000 A 
ATOM      6  C   UNL     1      44.896   2.134   9.276  0.00  0.00    +0.000 A 
ATOM      7  C   UNL     1      45.826   1.536   8.421  0.00  0.00    +0.000 A 
BRANCH   2   8
ATOM      8  C   UNL     1      47.581   1.686   6.602  0.00  0.00    +0.000 C 
BRANCH   8   9
ATOM      9  N   UNL     1      48.700   2.576   6.318  0.00  0.00    +0.000 NA
ATOM     10  H   UNL     1      49.267   2.171   5.576  0.00  0.00    +0.000 HD
ATOM     11  H   UNL     1      49.296   2.625   7.143  0.00  0.00    +0.000 HD
ENDBRANCH   8   9
ENDBRANCH   2   8
ENDBRANCH   1   5
BRANCH   1  12
ATOM     12  C   UNL     1      43.814   3.387  11.451  0.00  0.00    +0.000 C 
BRANCH  12  13
ATOM     13  C   UNL     1      44.902   4.046  12.267  0.00  0.00    +0.000 A 
ATOM     14  C   UNL     1      44.965   5.427  12.344  0.00  0.00    +0.000 A 
ATOM     15  C   UNL     1      45.972   5.964  13.114  0.00  0.00    +0.000 A 
ATOM     16  N   UNL     1      46.849   5.213  13.785  0.00  0.00    +0.000 NA
ATOM     17  C   UNL     1      46.706   3.884  13.655  0.00  0.00    +0.000 A 
ATOM     18  N   UNL     1      45.774   3.253  12.927  0.00  0.00    +0.000 NA
BRANCH  15  19
ATOM     19  N   UNL     1      46.072   7.344  13.277  0.00  0.00    +0.000 N 
ATOM     20  H   UNL     1      45.451   7.691  13.998  0.00  0.00    +0.000 HD
ATOM     21  H   UNL     1      45.890   7.773  12.372  0.00  0.00    +0.000 HD
ENDBRANCH  15  19
ENDBRANCH  12  13
ENDBRANCH   1  12
TORSDOF 6
ENDMDL
MODEL 2
REMARK VINA RESULT:    -7.076      1.086      1.967
REMARK INTER + INTRA:          -9.578
REMARK INTER:                  -9.192
REMARK INTRA:                  -0.386
REMARK UNBOUND:                -0.434
REMARK  Name = 
REMARK  6 active torsions:
REMARK  status: ('A' for Active; 'I' for Inactive)
REMARK    1  A    between atoms: N_1  and  C_2
REMARK    2  A    between atoms: C_2  and  C_3
REMARK    3  A    between atoms: C_6  and  O_7
REMARK    4  A    between atoms: O_7  and  C_8
REMARK    5  A    between atoms: C_8  and  C_9
REMARK    6  A    between atoms: C_11  and  N_12
REMARK                            x       y       z     vdW  Elec       q    Type
REMARK                         _______ _______ _______ _____ _____    ______ ____
ROOT
ATOM      1  O   UNL     1      43.656   3.295   9.793  0.00  0.00    +0.000 OA
ENDROOT
BRANCH   1   5
ATOM      2  C   UNL     1      46.965   2.434   7.385  0.00  0.00    +0.000 A 
ATOM      3  C   UNL     1      46.347   1.396   8.098  0.00  0.00    +0.000 A 
ATOM      4  C   UNL     1      45.244   1.645   8.920  0.00  0.00    +0.000 A 
ATOM      5  C   UNL     1      44.744   2.939   9.045  0.00  0.00    +0.000 A 
ATOM      6  C   UNL     1      45.338   3.975   8.321  0.00  0.00    +0.000 A 
ATOM      7  C   UNL     1      46.445   3.729   7.504  0.00  0.00    +0.000 A 
BRANCH   2   8
ATOM      8  C   UNL     1      48.171   2.157   6.526  0.00  0.00    +0.000 C 
BRANCH   8   9
ATOM      9  N   UNL     1      48.023   2.718   5.188  0.00  0.00    +0.000 NA
ATOM     10  H   UNL     1      48.510   2.122   4.522  0.00  0.00    +0.000 HD
ATOM     11  H   UNL     1      48.490   3.623   5.161  0.00  0.00    +0.000 HD
ENDBRANCH   8   9
ENDBRANCH   2   8
ENDBRANCH   1   5
BRANCH   1  12
ATOM     12  C   UNL     1      43.793   3.113  11.206  0.00  0.00    +0.000 C 
BRANCH  12  13
ATOM     13  C   UNL     1      44.424   4.352  11.800  0.00  0.00    +0.000 A 
ATOM     14  C   UNL     1      45.344   4.231  12.827  0.00  0.00    +0.000 A 
ATOM     15  C   UNL     1      45.892   5.396  13.315  0.00  0.00    +0.000 A 
ATOM     16  N   UNL     1      45.584   6.601  12.827  0.00  0.00    +0.000 NA
ATOM     17  C   UNL     1      44.686   6.619  11.829  0.00  0.00    +0.000 A 
ATOM     18  N   UNL     1      44.083   5.553  11.283  0.00  0.00    +0.000 NA
BRANCH  15  19
ATOM     19  N   UNL     1      46.859   5.353  14.316  0.00  0.00    +0.000 N 
ATOM     20  H   UNL     1      47.724   4.933  13.996  0.00  0.00    +0.000 HD
ATOM     21  H   UNL     1      46.459   4.854  15.108  0.00  0.00    +0.000 HD
ENDBRANCH  15  19
ENDBRANCH  12  13
ENDBRANCH   1  12
TORSDOF 6
ENDMDL
MODEL 3
REMARK VINA RESULT:    -6.983      1.520      6.012
REMARK INTER + INTRA:          -9.458
REMARK INTER:                  -9.052
REMARK INTRA:                  -0.406
REMARK UNBOUND:                -0.434
REMARK  Name = 
REMARK  6 active torsions:
REMARK  status: ('A' for Active; 'I' for Inactive)
REMARK    1  A    between atoms: N_1  and  C_2
REMARK    2  A    between atoms: C_2  and  C_3
REMARK    3  A    between atoms: C_6  and  O_7
REMARK    4  A    between atoms: O_7  and  C_8
REMARK    5  A    between atoms: C_8  and  C_9
REMARK    6  A    between atoms: C_11  and  N_12
REMARK                            x       y       z     vdW  Elec       q    Type
REMARK                         _______ _______ _______ _____ _____    ______ ____
ROOT
ATOM      1  O   UNL     1      44.191   3.577   9.829  0.00  0.00    +0.000 OA
ENDROOT
BRANCH   1   5
ATOM      2  C   UNL     1      46.435   5.439  12.829  0.00  0.00    +0.000 A 
ATOM      3  C   UNL     1      45.965   4.133  13.034  0.00  0.00    +0.000 A 
ATOM      4  C   UNL     1      45.205   3.480  12.059  0.00  0.00    +0.000 A 
ATOM      5  C   UNL     1      44.899   4.126  10.864  0.00  0.00    +0.000 A 
ATOM      6  C   UNL     1      45.381   5.417  10.641  0.00  0.00    +0.000 A 
ATOM      7  C   UNL     1      46.135   6.074  11.617  0.00  0.00    +0.000 A 
BRANCH   2   8
ATOM      8  C   UNL     1      47.228   6.142  13.899  0.00  0.00    +0.000 C 
BRANCH   8   9
ATOM      9  N   UNL     1      47.584   5.241  14.989  0.00  0.00    +0.000 NA
ATOM     10  H   UNL     1      47.655   4.292  14.626  0.00  0.00    +0.000 HD
ATOM     11  H   UNL     1      46.825   5.235  15.669  0.00  0.00    +0.000 HD
ENDBRANCH   8   9
ENDBRANCH   2   8
ENDBRANCH   1   5
BRANCH   1  12
ATOM     12  C   UNL     1      44.639   3.934   8.518  0.00  0.00    +0.000 C 
BRANCH  12  13
ATOM     13  C   UNL     1      45.616   2.887   8.033  0.00  0.00    +0.000 A 
ATOM     14  C   UNL     1      46.642   3.248   7.176  0.00  0.00    +0.000 A 
ATOM     15  C   UNL     1      47.506   2.251   6.782  0.00  0.00    +0.000 A 
ATOM     16  N   UNL     1      47.396   0.989   7.206  0.00  0.00    +0.000 NA
ATOM     17  C   UNL     1      46.374   0.735   8.039  0.00  0.00    +0.000 A 
ATOM     18  N   UNL     1      45.470   1.621   8.480  0.00  0.00    +0.000 NA
BRANCH  15  19
ATOM     19  N   UNL     1      48.590   2.545   5.958  0.00  0.00    +0.000 N 
ATOM     20  H   UNL     1      48.551   2.043   5.079  0.00  0.00    +0.000 HD
ATOM     21  H   UNL     1      49.437   2.340   6.482  0.00  0.00    +0.000 HD
ENDBRANCH  15  19
ENDBRANCH  12  13
ENDBRANCH   1  12
TORSDOF 6
ENDMDL
MODEL 4
REMARK VINA RESULT:    -6.659      1.601      6.049
REMARK INTER + INTRA:          -9.039
REMARK INTER:                  -8.592
REMARK INTRA:                  -0.447
REMARK UNBOUND:                -0.434
REMARK  Name = 
REMARK  6 active torsions:
REMARK  status: ('A' for Active; 'I' for Inactive)
REMARK    1  A    between atoms: N_1  and  C_2
REMARK    2  A    between atoms: C_2  and  C_3
REMARK    3  A    between atoms: C_6  and  O_7
REMARK    4  A    between atoms: O_7  and  C_8
REMARK    5  A    between atoms: C_8  and  C_9
REMARK    6  A    between atoms: C_11  and  N_12
REMARK                            x       y       z     vdW  Elec       q    Type
REMARK                         _______ _______ _______ _____ _____    ______ ____
ROOT
ATOM      1  O   UNL     1      44.373   3.555   9.694  0.00  0.00    +0.000 OA
ENDROOT
BRANCH   1   5
ATOM      2  C   UNL     1      46.419   5.314  12.891  0.00  0.00    +0.000 A 
ATOM      3  C   UNL     1      46.237   6.045  11.708  0.00  0.00    +0.000 A 
ATOM      4  C   UNL     1      45.566   5.489  10.614  0.00  0.00    +0.000 A 
ATOM      5  C   UNL     1      45.069   4.190  10.686  0.00  0.00    +0.000 A 
ATOM      6  C   UNL     1      45.226   3.462  11.868  0.00  0.00    +0.000 A 
ATOM      7  C   UNL     1      45.902   4.013  12.959  0.00  0.00    +0.000 A 
BRANCH   2   8
ATOM      8  C   UNL     1      47.170   5.914  14.051  0.00  0.00    +0.000 C 
BRANCH   8   9
ATOM      9  N   UNL     1      47.432   4.928  15.093  0.00  0.00    +0.000 NA
ATOM     10  H   UNL     1      47.889   4.119  14.678  0.00  0.00    +0.000 HD
ATOM     11  H   UNL     1      46.541   4.599  15.463  0.00  0.00    +0.000 HD
ENDBRANCH   8   9
ENDBRANCH   2   8
ENDBRANCH   1   5
BRANCH   1  12
ATOM     12  C   UNL     1      44.733   3.920   8.358  0.00  0.00    +0.000 C 
BRANCH  12  13
ATOM     13  C   UNL     1      45.844   3.011   7.884  0.00  0.00    +0.000 A 
ATOM     14  C   UNL     1      45.759   1.648   8.107  0.00  0.00    +0.000 A 
ATOM     15  C   UNL     1      46.798   0.874   7.639  0.00  0.00    +0.000 A 
ATOM     16  N   UNL     1      47.841   1.384   6.979  0.00  0.00    +0.000 NA
ATOM     17  C   UNL     1      47.833   2.715   6.806  0.00  0.00    +0.000 A 
ATOM     18  N   UNL     1      46.885   3.565   7.226  0.00  0.00    +0.000 NA
BRANCH  15  19
ATOM     19  N   UNL     1      46.762  -0.512   7.784  0.00  0.00    +0.000 N 
ATOM     20  H   UNL     1      47.492  -0.972   7.253  0.00  0.00    +0.000 HD
ATOM     21  H   UNL     1      45.832  -0.824   7.511  0.00  0.00    +0.000 HD
ENDBRANCH  15  19
ENDBRANCH  12  13
ENDBRANCH   1  12
TORSDOF 6
ENDMDL
MODEL 5
REMARK VINA RESULT:    -6.360      1.888      6.272
REMARK INTER + INTRA:          -8.653
REMARK INTER:                  -8.262
REMARK INTRA:                  -0.391
REMARK UNBOUND:                -0.434
REMARK  Name = 
REMARK  6 active torsions:
REMARK  status: ('A' for Active; 'I' for Inactive)
REMARK    1  A    between atoms: N_1  and  C_2
REMARK    2  A    between atoms: C_2  and  C_3
REMARK    3  A    between atoms: C_6  and  O_7
REMARK    4  A    between atoms: O_7  and  C_8
REMARK    5  A    between atoms: C_8  and  C_9
REMARK    6  A    between atoms: C_11  and  N_12
REMARK                            x       y       z     vdW  Elec       q    Type
REMARK                         _______ _______ _______ _____ _____    ______ ____
ROOT
ATOM      1  O   UNL     1      44.712   3.574  11.223  0.00  0.00    +0.000 OA
ENDROOT
BRANCH   1   5
ATOM      2  C   UNL     1      45.667   7.429  12.534  0.00  0.00    +0.000 A 
ATOM      3  C   UNL     1      46.414   6.340  13.006  0.00  0.00    +0.000 A 
ATOM      4  C   UNL     1      46.121   5.035  12.598  0.00  0.00    +0.000 A 
ATOM      5  C   UNL     1      45.071   4.800  11.713  0.00  0.00    +0.000 A 
ATOM      6  C   UNL     1      44.336   5.880  11.220  0.00  0.00    +0.000 A 
ATOM      7  C   UNL     1      44.623   7.184  11.633  0.00  0.00    +0.000 A 
BRANCH   2   8
ATOM      8  C   UNL     1      45.975   8.827  13.005  0.00  0.00    +0.000 C 
BRANCH   8   9
ATOM      9  N   UNL     1      46.804   8.823  14.204  0.00  0.00    +0.000 NA
ATOM     10  H   UNL     1      46.248   8.496  14.992  0.00  0.00    +0.000 HD
ATOM     11  H   UNL     1      47.073   9.783  14.418  0.00  0.00    +0.000 HD
ENDBRANCH   8   9
ENDBRANCH   2   8
ENDBRANCH   1   5
BRANCH   1  12
ATOM     12  C   UNL     1      44.112   3.581   9.924  0.00  0.00    +0.000 C 
BRANCH  12  13
ATOM     13  C   UNL     1      45.150   3.173   8.903  0.00  0.00    +0.000 A 
ATOM     14  C   UNL     1      45.529   1.846   8.799  0.00  0.00    +0.000 A 
ATOM     15  C   UNL     1      46.469   1.538   7.841  0.00  0.00    +0.000 A 
ATOM     16  N   UNL     1      46.992   2.453   7.021  0.00  0.00    +0.000 NA
ATOM     17  C   UNL     1      46.560   3.712   7.191  0.00  0.00    +0.000 A 
ATOM     18  N   UNL     1      45.660   4.127   8.095  0.00  0.00    +0.000 NA
BRANCH  15  19
ATOM     19  N   UNL     1      46.867   0.217   7.645  0.00  0.00    +0.000 N 
ATOM     20  H   UNL     1      46.466  -0.410   8.332  0.00  0.00    +0.000 HD
ATOM     21  H   UNL     1      47.884   0.199   7.655  0.00  0.00    +0.000 HD
ENDBRANCH  15  19
ENDBRANCH  12  13
ENDBRANCH   1  12
TORSDOF 6
ENDMDL
MODEL 6
REMARK VINA RESULT:    -5.900      3.977      7.836
REMARK INTER + INTRA:          -8.059
REMARK INTER:                  -7.756
REMARK INTRA:                  -0.303
REMARK UNBOUND:                -0.434
REMARK  Name = 
REMARK  6 active torsions:
REMARK  status: ('A' for Active; 'I' for Inactive)
REMARK    1  A    between atoms: N_1  and  C_2
REMARK    2  A    between atoms: C_2  and  C_3
REMARK    3  A    between atoms: C_6  and  O_7
REMARK    4  A    between atoms: O_7  and  C_8
REMARK    5  A    between atoms: C_8  and  C_9
REMARK    6  A    between atoms: C_11  and  N_12
REMARK                            x       y       z     vdW  Elec       q    Type
REMARK                         _______ _______ _______ _____ _____    ______ ____
ROOT
ATOM      1  O   UNL     1      46.941   3.650  14.641  0.00  0.00    +0.000 OA
ENDROOT
BRANCH   1   5
ATOM      2  C   UNL     1      48.586   4.415  18.410  0.00  0.00    +0.000 A 
ATOM      3  C   UNL     1      48.138   3.121  18.107  0.00  0.00    +0.000 A 
ATOM      4  C   UNL     1      47.575   2.827  16.861  0.00  0.00    +0.000 A 
ATOM      5  C   UNL     1      47.447   3.826  15.900  0.00  0.00    +0.000 A 
ATOM      6  C   UNL     1      47.911   5.112  16.184  0.00  0.00    +0.000 A 
ATOM      7  C   UNL     1      48.467   5.409  17.431  0.00  0.00    +0.000 A 
BRANCH   2   8
ATOM      8  C   UNL     1      49.163   4.725  19.766  0.00  0.00    +0.000 C 
BRANCH   8   9
ATOM      9  N   UNL     1      48.554   3.912  20.812  0.00  0.00    +0.000 NA
ATOM     10  H   UNL     1      49.287   3.422  21.322  0.00  0.00    +0.000 HD
ATOM     11  H   UNL     1      47.978   3.195  20.374  0.00  0.00    +0.000 HD
ENDBRANCH   8   9
ENDBRANCH   2   8
ENDBRANCH   1   5
BRANCH   1  12
ATOM     12  C   UNL     1      46.490   4.839  13.985  0.00  0.00    +0.000 C 
BRANCH  12  13
ATOM     13  C   UNL     1      45.243   4.519  13.193  0.00  0.00    +0.000 A 
ATOM     14  C   UNL     1      44.323   5.517  12.924  0.00  0.00    +0.000 A 
ATOM     15  C   UNL     1      43.216   5.163  12.186  0.00  0.00    +0.000 A 
ATOM     16  N   UNL     1      43.021   3.927  11.720  0.00  0.00    +0.000 NA
ATOM     17  C   UNL     1      43.969   3.027  12.026  0.00  0.00    +0.000 A 
ATOM     18  N   UNL     1      45.080   3.256  12.743  0.00  0.00    +0.000 NA
BRANCH  15  19
ATOM     19  N   UNL     1      42.269   6.123  11.836  0.00  0.00    +0.000 N 
ATOM     20  H   UNL     1      42.612   7.067  11.968  0.00  0.00    +0.000 HD
ATOM     21  H   UNL     1      41.429   5.938  12.380  0.00  0.00    +0.000 HD
ENDBRANCH  15  19
ENDBRANCH  12  13
ENDBRANCH   1  12
TORSDOF 6
ENDMDL
MODEL 7
REMARK VINA RESULT:    -5.799      2.120      2.687
REMARK INTER + INTRA:          -7.928
REMARK INTER:                  -7.564
REMARK INTRA:                  -0.364
REMARK UNBOUND:                -0.434
REMARK  Name = 
REMARK  6 active torsions:
REMARK  status: ('A' for Active; 'I' for Inactive)
REMARK    1  A    between atoms: N_1  and  C_2
REMARK    2  A    between atoms: C_2  and  C_3
REMARK    3  A    between atoms: C_6  and  O_7
REMARK    4  A    between atoms: O_7  and  C_8
REMARK    5  A    between atoms: C_8  and  C_9
REMARK    6  A    between atoms: C_11  and  N_12
REMARK                            x       y       z     vdW  Elec       q    Type
REMARK                         _______ _______ _______ _____ _____    ______ ____
ROOT
ATOM      1  O   UNL     1      44.993   5.340   9.382  0.00  0.00    +0.000 OA
ENDROOT
BRANCH   1   5
ATOM      2  C   UNL     1      46.537   1.881   7.607  0.00  0.00    +0.000 A 
ATOM      3  C   UNL     1      45.633   1.760   8.672  0.00  0.00    +0.000 A 
ATOM      4  C   UNL     1      45.101   2.892   9.297  0.00  0.00    +0.000 A 
ATOM      5  C   UNL     1      45.470   4.165   8.868  0.00  0.00    +0.000 A 
ATOM      6  C   UNL     1      46.352   4.295   7.793  0.00  0.00    +0.000 A 
ATOM      7  C   UNL     1      46.890   3.165   7.172  0.00  0.00    +0.000 A 
BRANCH   2   8
ATOM      8  C   UNL     1      47.126   0.654   6.961  0.00  0.00    +0.000 C 
BRANCH   8   9
ATOM      9  N   UNL     1      46.777  -0.560   7.690  0.00  0.00    +0.000 NA
ATOM     10  H   UNL     1      46.265  -1.185   7.070  0.00  0.00    +0.000 HD
ATOM     11  H   UNL     1      46.138  -0.315   8.445  0.00  0.00    +0.000 HD
ENDBRANCH   8   9
ENDBRANCH   2   8
ENDBRANCH   1   5
BRANCH   1  12
ATOM     12  C   UNL     1      44.628   5.304  10.766  0.00  0.00    +0.000 C 
BRANCH  12  13
ATOM     13  C   UNL     1      45.443   6.335  11.513  0.00  0.00    +0.000 A 
ATOM     14  C   UNL     1      46.801   6.447  11.272  0.00  0.00    +0.000 A 
ATOM     15  C   UNL     1      47.482   7.415  11.975  0.00  0.00    +0.000 A 
ATOM     16  N   UNL     1      46.884   8.236  12.842  0.00  0.00    +0.000 NA
ATOM     17  C   UNL     1      45.564   8.056  13.007  0.00  0.00    +0.000 A 
ATOM     18  N   UNL     1      44.802   7.143  12.386  0.00  0.00    +0.000 NA
BRANCH  15  19
ATOM     19  N   UNL     1      48.842   7.619  11.752  0.00  0.00    +0.000 N 
ATOM     20  H   UNL     1      49.014   8.257  10.984  0.00  0.00    +0.000 HD
ATOM     21  H   UNL     1      49.268   6.708  11.598  0.00  0.00    +0.000 HD
ENDBRANCH  15  19
ENDBRANCH  12  13
ENDBRANCH   1  12
TORSDOF 6
ENDMDL
MODEL 8
REMARK VINA RESULT:    -5.443      2.573      6.299
REMARK INTER + INTRA:          -7.468
REMARK INTER:                  -7.056
REMARK INTRA:                  -0.412
REMARK UNBOUND:                -0.434
REMARK  Name = 
REMARK  6 active torsions:
REMARK  status: ('A' for Active; 'I' for Inactive)
REMARK    1  A    between atoms: N_1  and  C_2
REMARK    2  A    between atoms: C_2  and  C_3
REMARK    3  A    between atoms: C_6  and  O_7
REMARK    4  A    between atoms: O_7  and  C_8
REMARK    5  A    between atoms: C_8  and  C_9
REMARK    6  A    between atoms: C_11  and  N_12
REMARK                            x       y       z     vdW  Elec       q    Type
REMARK                         _______ _______ _______ _____ _____    ______ ____
ROOT
ATOM      1  O   UNL     1      45.183   5.209  11.863  0.00  0.00    +0.000 OA
ENDROOT
BRANCH   1   5
ATOM      2  C   UNL     1      47.017   8.937  12.346  0.00  0.00    +0.000 A 
ATOM      3  C   UNL     1      45.644   8.811  12.599  0.00  0.00    +0.000 A 
ATOM      4  C   UNL     1      44.992   7.584  12.442  0.00  0.00    +0.000 A 
ATOM      5  C   UNL     1      45.706   6.463  12.023  0.00  0.00    +0.000 A 
ATOM      6  C   UNL     1      47.078   6.574  11.790  0.00  0.00    +0.000 A 
ATOM      7  C   UNL     1      47.729   7.801  11.940  0.00  0.00    +0.000 A 
BRANCH   2   8
ATOM      8  C   UNL     1      47.701  10.272  12.491  0.00  0.00    +0.000 C 
BRANCH   8   9
ATOM      9  N   UNL     1      46.751  11.376  12.422  0.00  0.00    +0.000 NA
ATOM     10  H   UNL     1      45.825  11.006  12.215  0.00  0.00    +0.000 HD
ATOM     11  H   UNL     1      47.005  11.976  11.639  0.00  0.00    +0.000 HD
ENDBRANCH   8   9
ENDBRANCH   2   8
ENDBRANCH   1   5
BRANCH   1  12
ATOM     12  C   UNL     1      44.254   5.062  10.785  0.00  0.00    +0.000 C 
BRANCH  12  13
ATOM     13  C   UNL     1      44.824   4.090   9.777  0.00  0.00    +0.000 A 
ATOM     14  C   UNL     1      45.633   4.555   8.754  0.00  0.00    +0.000 A 
ATOM     15  C   UNL     1      46.132   3.617   7.877  0.00  0.00    +0.000 A 
ATOM     16  N   UNL     1      45.880   2.311   7.995  0.00  0.00    +0.000 NA
ATOM     17  C   UNL     1      45.091   1.954   9.020  0.00  0.00    +0.000 A 
ATOM     18  N   UNL     1      44.544   2.777   9.926  0.00  0.00    +0.000 NA
BRANCH  15  19
ATOM     19  N   UNL     1      46.990   4.003   6.850  0.00  0.00    +0.000 N 
ATOM     20  H   UNL     1      46.499   4.164   5.979  0.00  0.00    +0.000 HD
ATOM     21  H   UNL     1      47.704   3.283   6.762  0.00  0.00    +0.000 HD
ENDBRANCH  15  19
ENDBRANCH  12  13
ENDBRANCH   1  12
TORSDOF 6
ENDMDL
MODEL 9
REMARK VINA RESULT:    -5.350      3.455      5.799
REMARK INTER + INTRA:          -7.348
REMARK INTER:                  -6.978
REMARK INTRA:                  -0.370
REMARK UNBOUND:                -0.434
REMARK  Name = 
REMARK  6 active torsions:
REMARK  status: ('A' for Active; 'I' for Inactive)
REMARK    1  A    between atoms: N_1  and  C_2
REMARK    2  A    between atoms: C_2  and  C_3
REMARK    3  A    between atoms: C_6  and  O_7
REMARK    4  A    between atoms: O_7  and  C_8
REMARK    5  A    between atoms: C_8  and  C_9
REMARK    6  A    between atoms: C_11  and  N_12
REMARK                            x       y       z     vdW  Elec       q    Type
REMARK                         _______ _______ _______ _____ _____    ______ ____
ROOT
ATOM      1  O   UNL     1      45.840   6.854  12.925  0.00  0.00    +0.000 OA
ENDROOT
BRANCH   1   5
ATOM      2  C   UNL     1      49.594   8.399  11.917  0.00  0.00    +0.000 A 
ATOM      3  C   UNL     1      48.462   9.219  11.800  0.00  0.00    +0.000 A 
ATOM      4  C   UNL     1      47.189   8.737  12.120  0.00  0.00    +0.000 A 
ATOM      5  C   UNL     1      47.028   7.424  12.557  0.00  0.00    +0.000 A 
ATOM      6  C   UNL     1      48.152   6.608  12.698  0.00  0.00    +0.000 A 
ATOM      7  C   UNL     1      49.425   7.086  12.372  0.00  0.00    +0.000 A 
BRANCH   2   8
ATOM      8  C   UNL     1      50.956   8.922  11.541  0.00  0.00    +0.000 C 
BRANCH   8   9
ATOM      9  N   UNL     1      52.023   8.067  12.049  0.00  0.00    +0.000 NA
ATOM     10  H   UNL     1      52.807   8.648  12.336  0.00  0.00    +0.000 HD
ATOM     11  H   UNL     1      52.361   7.480  11.287  0.00  0.00    +0.000 HD
ENDBRANCH   8   9
ENDBRANCH   2   8
ENDBRANCH   1   5
BRANCH   1  12
ATOM     12  C   UNL     1      45.911   5.481  13.322  0.00  0.00    +0.000 C 
BRANCH  12  13
ATOM     13  C   UNL     1      45.015   4.664  12.419  0.00  0.00    +0.000 A 
ATOM     14  C   UNL     1      44.986   4.923  11.060  0.00  0.00    +0.000 A 
ATOM     15  C   UNL     1      44.159   4.134  10.292  0.00  0.00    +0.000 A 
ATOM     16  N   UNL     1      43.423   3.144  10.803  0.00  0.00    +0.000 NA
ATOM     17  C   UNL     1      43.520   2.964  12.130  0.00  0.00    +0.000 A 
ATOM     18  N   UNL     1      44.282   3.675  12.975  0.00  0.00    +0.000 NA
BRANCH  15  19
ATOM     19  N   UNL     1      44.111   4.304   8.910  0.00  0.00    +0.000 N 
ATOM     20  H   UNL     1      44.685   5.078   8.598  0.00  0.00    +0.000 HD
ATOM     21  H   UNL     1      43.134   4.419   8.649  0.00  0.00    +0.000 HD
ENDBRANCH  15  19
ENDBRANCH  12  13
ENDBRANCH   1  12
TORSDOF 6
ENDMDL
