MODEL 1
REMARK VINA RESULT:    -7.302      0.000      0.000
REMARK INTER + INTRA:          -8.604
REMARK INTER:                  -8.582
REMARK INTRA:                  -0.022
REMARK UNBOUND:                -0.022
REMARK  Name = 
REMARK  3 active torsions:
REMARK  status: ('A' for Active; 'I' for Inactive)
REMARK    1  A    between atoms: C_2  and  C_3
REMARK    2  A    between atoms: N_7  and  C_8
REMARK    3  A    between atoms: C_8  and  C_9
REMARK                            x       y       z     vdW  Elec       q    Type
REMARK                         _______ _______ _______ _____ _____    ______ ____
ROOT
ATOM      1  C   UNL     1      46.395   2.476   7.692  0.00  0.00    +0.000 A 
ATOM      2  C   UNL     1      45.723   1.505   8.389  0.00  0.00    +0.000 A 
ATOM      3  N   UNL     1      44.825   1.772   9.363  0.00  0.00    +0.000 NA
ATOM      4  C   UNL     1      44.578   3.066   9.629  0.00  0.00    +0.000 A 
ATOM      5  N   UNL     1      43.786   3.333  10.743  0.00  0.00    +0.000 N 
ATOM      6  N   UNL     1      45.130   4.075   8.936  0.00  0.00    +0.000 NA
ATOM      7  C   UNL     1      46.048   3.767   8.002  0.00  0.00    +0.000 A 
ATOM      8  H   UNL     1      43.646   2.466  11.249  0.00  0.00    +0.000 HD
ENDROOT
BRANCH   5   9
ATOM      9  C   UNL     1      43.900   4.596  11.486  0.00  0.00    +0.000 C 
ATOM     10  C   UNL     1      42.772   5.164  12.347  0.00  0.00    +0.000 C 
ATOM     11  C   UNL     1      43.043   5.768  11.015  0.00  0.00    +0.000 C 
BRANCH   9  12
ATOM     12  C   UNL     1      45.294   4.884  12.020  0.00  0.00    +0.000 A 
ATOM     13  C   UNL     1      45.986   6.070  11.742  0.00  0.00    +0.000 A 
ATOM     14  C   UNL     1      47.127   6.407  12.465  0.00  0.00    +0.000 A 
ATOM     15  C   UNL     1      47.584   5.516  13.421  0.00  0.00    +0.000 A 
ATOM     16  N   UNL     1      47.018   4.314  13.653  0.00  0.00    +0.000 NA
ATOM     17  C   UNL     1      45.898   4.029  12.945  0.00  0.00    +0.000 A 
ENDBRANCH   9  12
ENDBRANCH   5   9
BRANCH   1  19
ATOM     18  N   UNL     1      48.244   1.910   5.983  0.00  0.00    +0.000 NA
ATOM     19  C   UNL     1      47.409   2.178   6.743  0.00  0.00    +0.000 C 
ENDBRANCH   1  19
TORSDOF 3
ENDMDL
MODEL 2
REMARK VINA RESULT:    -5.741      1.782      5.656
REMARK INTER + INTRA:          -6.770
REMARK INTER:                  -7.445
REMARK INTRA:                   0.675
REMARK UNBOUND:                -0.022
REMARK  Name = 
REMARK  3 active torsions:
REMARK  status: ('A' for Active; 'I' for Inactive)
REMARK    1  A    between atoms: C_2  and  C_3
REMARK    2  A    between atoms: N_7  and  C_8
REMARK    3  A    between atoms: C_8  and  C_9
REMARK                            x       y       z     vdW  Elec       q    Type
REMARK                         _______ _______ _______ _____ _____    ______ ____
ROOT
ATOM      1  C   UNL     1      47.952   6.664  13.497  0.00  0.00    +0.000 A 
ATOM      2  C   UNL     1      47.445   7.492  12.527  0.00  0.00    +0.000 A 
ATOM      3  N   UNL     1      46.362   7.188  11.778  0.00  0.00    +0.000 NA
ATOM      4  C   UNL     1      45.753   6.017  12.031  0.00  0.00    +0.000 A 
ATOM      5  N   UNL     1      44.748   5.634  11.146  0.00  0.00    +0.000 N 
ATOM      6  N   UNL     1      46.134   5.190  13.019  0.00  0.00    +0.000 NA
ATOM      7  C   UNL     1      47.241   5.511  13.713  0.00  0.00    +0.000 A 
ATOM      8  H   UNL     1      44.754   6.275  10.362  0.00  0.00    +0.000 HD
ENDROOT
BRANCH   5   9
ATOM      9  C   UNL     1      44.413   4.219  10.926  0.00  0.00    +0.000 C 
ATOM     10  C   UNL     1      43.091   3.595  11.374  0.00  0.00    +0.000 C 
ATOM     11  C   UNL     1      44.327   3.318  12.155  0.00  0.00    +0.000 C 
BRANCH   9  12
ATOM     12  C   UNL     1      44.968   3.639   9.636  0.00  0.00    +0.000 A 
ATOM     13  C   UNL     1      45.472   4.434   8.598  0.00  0.00    +0.000 A 
ATOM     14  C   UNL     1      46.213   3.862   7.567  0.00  0.00    +0.000 A 
ATOM     15  C   UNL     1      46.387   2.489   7.570  0.00  0.00    +0.000 A 
ATOM     16  N   UNL     1      45.834   1.667   8.483  0.00  0.00    +0.000 NA
ATOM     17  C   UNL     1      45.136   2.260   9.483  0.00  0.00    +0.000 A 
ENDBRANCH   9  12
ENDBRANCH   5   9
BRANCH   1  19
ATOM     18  N   UNL     1      50.134   7.160  14.783  0.00  0.00    +0.000 NA
ATOM     19  C   UNL     1      49.149   6.953  14.205  0.00  0.00    +0.000 C 
ENDBRANCH   1  19
TORSDOF 3
ENDMDL
MODEL 3
REMARK VINA RESULT:    -5.701      2.044      6.121
REMARK INTER + INTRA:          -6.723
REMARK INTER:                  -7.319
REMARK INTRA:                   0.596
REMARK UNBOUND:                -0.022
REMARK  Name = 
REMARK  3 active torsions:
REMARK  status: ('A' for Active; 'I' for Inactive)
REMARK    1  A    between atoms: C_2  and  C_3
REMARK    2  A    between atoms: N_7  and  C_8
REMARK    3  A    between atoms: C_8  and  C_9
REMARK                            x       y       z     vdW  Elec       q    Type
REMARK                         _______ _______ _______ _____ _____    ______ ____
ROOT
ATOM      1  C   UNL     1      48.270   5.939  15.248  0.00  0.00    +0.000 A 
ATOM      2  C   UNL     1      47.698   4.810  15.777  0.00  0.00    +0.000 A 
ATOM      3  N   UNL     1      46.779   4.064  15.126  0.00  0.00    +0.000 NA
ATOM      4  C   UNL     1      46.438   4.457  13.887  0.00  0.00    +0.000 A 
ATOM      5  N   UNL     1      45.371   3.788  13.292  0.00  0.00    +0.000 N 
ATOM      6  N   UNL     1      47.012   5.500  13.265  0.00  0.00    +0.000 NA
ATOM      7  C   UNL     1      47.893   6.239  13.963  0.00  0.00    +0.000 A 
ATOM      8  H   UNL     1      44.942   3.191  13.989  0.00  0.00    +0.000 HD
ENDROOT
BRANCH   5   9
ATOM      9  C   UNL     1      44.531   4.431  12.270  0.00  0.00    +0.000 C 
ATOM     10  C   UNL     1      43.989   5.853  12.410  0.00  0.00    +0.000 C 
ATOM     11  C   UNL     1      43.072   4.701  12.628  0.00  0.00    +0.000 C 
BRANCH   9  12
ATOM     12  C   UNL     1      44.868   4.032  10.843  0.00  0.00    +0.000 A 
ATOM     13  C   UNL     1      44.444   2.826  10.270  0.00  0.00    +0.000 A 
ATOM     14  C   UNL     1      44.537   2.627   8.895  0.00  0.00    +0.000 A 
ATOM     15  C   UNL     1      45.108   3.626   8.126  0.00  0.00    +0.000 A 
ATOM     16  N   UNL     1      45.629   4.759   8.639  0.00  0.00    +0.000 NA
ATOM     17  C   UNL     1      45.502   4.927   9.978  0.00  0.00    +0.000 A 
ENDBRANCH   9  12
ENDBRANCH   5   9
BRANCH   1  19
ATOM     18  N   UNL     1      49.864   7.464  16.588  0.00  0.00    +0.000 NA
ATOM     19  C   UNL     1      49.159   6.767  15.983  0.00  0.00    +0.000 C 
ENDBRANCH   1  19
TORSDOF 3
ENDMDL
MODEL 4
REMARK VINA RESULT:    -5.317      2.197      3.509
REMARK INTER + INTRA:          -6.272
REMARK INTER:                  -6.360
REMARK INTRA:                   0.088
REMARK UNBOUND:                -0.022
REMARK  Name = 
REMARK  3 active torsions:
REMARK  status: ('A' for Active; 'I' for Inactive)
REMARK    1  A    between atoms: C_2  and  C_3
REMARK    2  A    between atoms: N_7  and  C_8
REMARK    3  A    between atoms: C_8  and  C_9
REMARK                            x       y       z     vdW  Elec       q    Type
REMARK                         _______ _______ _______ _____ _____    ______ ____
ROOT
ATOM      1  C   UNL     1      44.752   3.417  10.313  0.00  0.00    +0.000 A 
ATOM      2  C   UNL     1      44.426   3.313  11.641  0.00  0.00    +0.000 A 
ATOM      3  N   UNL     1      44.380   4.368  12.483  0.00  0.00    +0.000 NA
ATOM      4  C   UNL     1      44.650   5.578  11.963  0.00  0.00    +0.000 A 
ATOM      5  N   UNL     1      44.768   6.632  12.866  0.00  0.00    +0.000 N 
ATOM      6  N   UNL     1      44.894   5.776  10.657  0.00  0.00    +0.000 NA
ATOM      7  C   UNL     1      44.970   4.694   9.862  0.00  0.00    +0.000 A 
ATOM      8  H   UNL     1      44.762   6.249  13.803  0.00  0.00    +0.000 HD
ENDROOT
BRANCH   5   9
ATOM      9  C   UNL     1      45.592   7.812  12.568  0.00  0.00    +0.000 C 
ATOM     10  C   UNL     1      45.178   9.236  12.943  0.00  0.00    +0.000 C 
ATOM     11  C   UNL     1      45.063   8.795  11.526  0.00  0.00    +0.000 C 
BRANCH   9  12
ATOM     12  C   UNL     1      47.090   7.563  12.637  0.00  0.00    +0.000 A 
ATOM     13  C   UNL     1      48.011   8.228  11.816  0.00  0.00    +0.000 A 
ATOM     14  C   UNL     1      49.373   8.175  12.098  0.00  0.00    +0.000 A 
ATOM     15  C   UNL     1      49.791   7.406  13.170  0.00  0.00    +0.000 A 
ATOM     16  N   UNL     1      48.959   6.661  13.925  0.00  0.00    +0.000 NA
ATOM     17  C   UNL     1      47.638   6.753  13.635  0.00  0.00    +0.000 A 
ENDBRANCH   9  12
ENDBRANCH   5   9
BRANCH   1  19
ATOM     18  N   UNL     1      44.991   1.374   8.754  0.00  0.00    +0.000 NA
ATOM     19  C   UNL     1      44.895   2.286   9.465  0.00  0.00    +0.000 C 
ENDBRANCH   1  19
TORSDOF 3
ENDMDL
MODEL 5
REMARK VINA RESULT:    -5.063      3.807      6.435
REMARK INTER + INTRA:          -5.973
REMARK INTER:                  -6.513
REMARK INTRA:                   0.540
REMARK UNBOUND:                -0.022
REMARK  Name = 
REMARK  3 active torsions:
REMARK  status: ('A' for Active; 'I' for Inactive)
REMARK    1  A    between atoms: C_2  and  C_3
REMARK    2  A    between atoms: N_7  and  C_8
REMARK    3  A    between atoms: C_8  and  C_9
REMARK                            x       y       z     vdW  Elec       q    Type
REMARK                         _______ _______ _______ _____ _____    ______ ____
ROOT
ATOM      1  C   UNL     1      45.696   4.199  12.497  0.00  0.00    +0.000 A 
ATOM      2  C   UNL     1      45.935   5.507  12.832  0.00  0.00    +0.000 A 
ATOM      3  N   UNL     1      46.695   5.880  13.886  0.00  0.00    +0.000 NA
ATOM      4  C   UNL     1      47.253   4.899  14.615  0.00  0.00    +0.000 A 
ATOM      5  N   UNL     1      47.889   5.284  15.793  0.00  0.00    +0.000 N 
ATOM      6  N   UNL     1      47.138   3.598  14.304  0.00  0.00    +0.000 NA
ATOM      7  C   UNL     1      46.341   3.268  13.271  0.00  0.00    +0.000 A 
ATOM      8  H   UNL     1      47.687   6.262  15.959  0.00  0.00    +0.000 HD
ENDROOT
BRANCH   5   9
ATOM      9  C   UNL     1      48.017   4.365  16.935  0.00  0.00    +0.000 C 
ATOM     10  C   UNL     1      46.838   3.583  17.514  0.00  0.00    +0.000 C 
ATOM     11  C   UNL     1      47.349   4.775  18.244  0.00  0.00    +0.000 C 
BRANCH   9  12
ATOM     12  C   UNL     1      49.343   3.625  16.996  0.00  0.00    +0.000 A 
ATOM     13  C   UNL     1      50.509   4.194  17.526  0.00  0.00    +0.000 A 
ATOM     14  C   UNL     1      51.615   3.398  17.812  0.00  0.00    +0.000 A 
ATOM     15  C   UNL     1      51.548   2.050  17.507  0.00  0.00    +0.000 A 
ATOM     16  N   UNL     1      50.493   1.472  16.899  0.00  0.00    +0.000 NA
ATOM     17  C   UNL     1      49.427   2.273  16.654  0.00  0.00    +0.000 A 
ENDBRANCH   9  12
ENDBRANCH   5   9
BRANCH   1  19
ATOM     18  N   UNL     1      44.073   3.530  10.605  0.00  0.00    +0.000 NA
ATOM     19  C   UNL     1      44.815   3.823  11.447  0.00  0.00    +0.000 C 
ENDBRANCH   1  19
TORSDOF 3
ENDMDL
MODEL 6
REMARK VINA RESULT:    -4.748      3.995      6.891
REMARK INTER + INTRA:          -5.603
REMARK INTER:                  -6.658
REMARK INTRA:                   1.055
REMARK UNBOUND:                -0.022
REMARK  Name = 
REMARK  3 active torsions:
REMARK  status: ('A' for Active; 'I' for Inactive)
REMARK    1  A    between atoms: C_2  and  C_3
REMARK    2  A    between atoms: N_7  and  C_8
REMARK    3  A    between atoms: C_8  and  C_9
REMARK                            x       y       z     vdW  Elec       q    Type
REMARK                         _______ _______ _______ _____ _____    ______ ____
ROOT
ATOM      1  C   UNL     1      48.234   4.228  17.110  0.00  0.00    +0.000 A 
ATOM      2  C   UNL     1      47.867   3.159  16.334  0.00  0.00    +0.000 A 
ATOM      3  N   UNL     1      47.524   3.265  15.032  0.00  0.00    +0.000 NA
ATOM      4  C   UNL     1      47.574   4.491  14.484  0.00  0.00    +0.000 A 
ATOM      5  N   UNL     1      47.057   4.620  13.197  0.00  0.00    +0.000 N 
ATOM      6  N   UNL     1      48.003   5.575  15.151  0.00  0.00    +0.000 NA
ATOM      7  C   UNL     1      48.297   5.433  16.456  0.00  0.00    +0.000 A 
ATOM      8  H   UNL     1      46.595   3.753  12.952  0.00  0.00    +0.000 HD
ENDROOT
BRANCH   5   9
ATOM      9  C   UNL     1      46.514   5.896  12.709  0.00  0.00    +0.000 C 
ATOM     10  C   UNL     1      47.277   6.819  11.758  0.00  0.00    +0.000 C 
ATOM     11  C   UNL     1      47.183   7.178  13.199  0.00  0.00    +0.000 C 
BRANCH   9  12
ATOM     12  C   UNL     1      45.008   5.896  12.500  0.00  0.00    +0.000 A 
ATOM     13  C   UNL     1      44.386   6.581  11.447  0.00  0.00    +0.000 A 
ATOM     14  C   UNL     1      43.052   6.332  11.135  0.00  0.00    +0.000 A 
ATOM     15  C   UNL     1      42.351   5.437  11.924  0.00  0.00    +0.000 A 
ATOM     16  N   UNL     1      42.870   4.833  13.011  0.00  0.00    +0.000 NA
ATOM     17  C   UNL     1      44.176   5.083  13.273  0.00  0.00    +0.000 A 
ENDBRANCH   9  12
ENDBRANCH   5   9
BRANCH   1  19
ATOM     18  N   UNL     1      48.715   4.051  19.640  0.00  0.00    +0.000 NA
ATOM     19  C   UNL     1      48.494   4.115  18.502  0.00  0.00    +0.000 C 
ENDBRANCH   1  19
TORSDOF 3
ENDMDL
MODEL 7
REMARK VINA RESULT:    -4.550      5.092      7.834
REMARK INTER + INTRA:          -5.371
REMARK INTER:                  -5.497
REMARK INTRA:                   0.126
REMARK UNBOUND:                -0.022
REMARK  Name = 
REMARK  3 active torsions:
REMARK  status: ('A' for Active; 'I' for Inactive)
REMARK    1  A    between atoms: C_2  and  C_3
REMARK    2  A    between atoms: N_7  and  C_8
REMARK    3  A    between atoms: C_8  and  C_9
REMARK                            x       y       z     vdW  Elec       q    Type
REMARK                         _______ _______ _______ _____ _____    ______ ____
ROOT
ATOM      1  C   UNL     1      47.962   6.278  13.810  0.00  0.00    +0.000 A 
ATOM      2  C   UNL     1      47.150   5.184  13.965  0.00  0.00    +0.000 A 
ATOM      3  N   UNL     1      47.025   4.507  15.128  0.00  0.00    +0.000 NA
ATOM      4  C   UNL     1      47.726   4.963  16.180  0.00  0.00    +0.000 A 
ATOM      5  N   UNL     1      47.726   4.165  17.321  0.00  0.00    +0.000 N 
ATOM      6  N   UNL     1      48.477   6.076  16.134  0.00  0.00    +0.000 NA
ATOM      7  C   UNL     1      48.605   6.697  14.947  0.00  0.00    +0.000 A 
ATOM      8  H   UNL     1      47.287   3.282  17.092  0.00  0.00    +0.000 HD
ENDROOT
BRANCH   5   9
ATOM      9  C   UNL     1      48.839   4.195  18.282  0.00  0.00    +0.000 C 
ATOM     10  C   UNL     1      48.632   4.251  19.796  0.00  0.00    +0.000 C 
ATOM     11  C   UNL     1      49.048   5.484  19.074  0.00  0.00    +0.000 C 
BRANCH   9  12
ATOM     12  C   UNL     1      50.060   3.400  17.851  0.00  0.00    +0.000 A 
ATOM     13  C   UNL     1      51.370   3.789  18.162  0.00  0.00    +0.000 A 
ATOM     14  C   UNL     1      52.429   2.901  17.990  0.00  0.00    +0.000 A 
ATOM     15  C   UNL     1      52.157   1.655  17.453  0.00  0.00    +0.000 A 
ATOM     16  N   UNL     1      50.935   1.270  17.037  0.00  0.00    +0.000 NA
ATOM     17  C   UNL     1      49.925   2.151  17.240  0.00  0.00    +0.000 A 
ENDBRANCH   9  12
ENDBRANCH   5   9
BRANCH   1  19
ATOM     18  N   UNL     1      48.312   7.414  11.518  0.00  0.00    +0.000 NA
ATOM     19  C   UNL     1      48.159   6.917  12.556  0.00  0.00    +0.000 C 
ENDBRANCH   1  19
TORSDOF 3
ENDMDL
MODEL 8
REMARK VINA RESULT:    -4.308      3.740      6.679
REMARK INTER + INTRA:          -5.085
REMARK INTER:                  -5.874
REMARK INTRA:                   0.789
REMARK UNBOUND:                -0.022
REMARK  Name = 
REMARK  3 active torsions:
REMARK  status: ('A' for Active; 'I' for Inactive)
REMARK    1  A    between atoms: C_2  and  C_3
REMARK    2  A    between atoms: N_7  and  C_8
REMARK    3  A    between atoms: C_8  and  C_9
REMARK                            x       y       z     vdW  Elec       q    Type
REMARK                         _______ _______ _______ _____ _____    ______ ____
ROOT
ATOM      1  C   UNL     1      48.197   4.014  17.154  0.00  0.00    +0.000 A 
ATOM      2  C   UNL     1      48.078   2.891  16.375  0.00  0.00    +0.000 A 
ATOM      3  N   UNL     1      47.706   2.919  15.077  0.00  0.00    +0.000 NA
ATOM      4  C   UNL     1      47.466   4.126  14.536  0.00  0.00    +0.000 A 
ATOM      5  N   UNL     1      46.920   4.136  13.254  0.00  0.00    +0.000 N 
ATOM      6  N   UNL     1      47.642   5.277  15.204  0.00  0.00    +0.000 NA
ATOM      7  C   UNL     1      47.975   5.203  16.506  0.00  0.00    +0.000 A 
ATOM      8  H   UNL     1      46.667   3.187  13.009  0.00  0.00    +0.000 HD
ENDROOT
BRANCH   5   9
ATOM      9  C   UNL     1      46.092   5.254  12.779  0.00  0.00    +0.000 C 
ATOM     10  C   UNL     1      44.611   5.403  13.127  0.00  0.00    +0.000 C 
ATOM     11  C   UNL     1      44.994   4.935  11.767  0.00  0.00    +0.000 C 
BRANCH   9  12
ATOM     12  C   UNL     1      46.836   6.574  12.652  0.00  0.00    +0.000 A 
ATOM     13  C   UNL     1      48.094   6.683  12.044  0.00  0.00    +0.000 A 
ATOM     14  C   UNL     1      48.608   7.933  11.706  0.00  0.00    +0.000 A 
ATOM     15  C   UNL     1      47.870   9.055  12.038  0.00  0.00    +0.000 A 
ATOM     16  N   UNL     1      46.707   9.012  12.718  0.00  0.00    +0.000 NA
ATOM     17  C   UNL     1      46.227   7.779  13.012  0.00  0.00    +0.000 A 
ENDBRANCH   9  12
ENDBRANCH   5   9
BRANCH   1  19
ATOM     18  N   UNL     1      48.734   3.944  19.678  0.00  0.00    +0.000 NA
ATOM     19  C   UNL     1      48.492   3.959  18.542  0.00  0.00    +0.000 C 
ENDBRANCH   1  19
TORSDOF 3
ENDMDL
