MODEL 1
REMARK VINA RESULT:    -9.144      0.000      0.000
REMARK INTER + INTRA:         -12.872
REMARK INTER:                 -11.817
REMARK INTRA:                  -1.054
REMARK UNBOUND:                -1.054
REMARK  Name = 
REMARK  6 active torsions:
REMARK  status: ('A' for Active; 'I' for Inactive)
REMARK    1  A    between atoms: C_1  and  C_2
REMARK    2  A    between atoms: C_2  and  N_3
REMARK    3  A    between atoms: C_2  and  C_16
REMARK    4  A    between atoms: C_4  and  C_6
REMARK    5  A    between atoms: C_19  and  C_20
REMARK    6  A    between atoms: C_20  and  N_21
REMARK                            x       y       z     vdW  Elec       q    Type
REMARK                         _______ _______ _______ _____ _____    ______ ____
ROOT
ATOM      1  C   UNL     1      45.629   8.870  12.883  0.00  0.00    +0.000 C 
ATOM      2  C   UNL     1      46.650   7.733  12.751  0.00  0.00    +0.000 C 
ENDROOT
BRANCH   2   3
ATOM      3  C   UNL     1      46.058   6.574  11.961  0.00  0.00    +0.000 A 
ATOM      4  C   UNL     1      45.249   5.620  12.592  0.00  0.00    +0.000 A 
ATOM      5  C   UNL     1      44.677   4.573  11.859  0.00  0.00    +0.000 A 
ATOM      6  C   UNL     1      44.909   4.448  10.482  0.00  0.00    +0.000 A 
ATOM      7  C   UNL     1      45.713   5.403   9.848  0.00  0.00    +0.000 A 
ATOM      8  C   UNL     1      46.282   6.449  10.578  0.00  0.00    +0.000 A 
BRANCH   6   9
ATOM      9  C   UNL     1      44.307   3.308   9.694  0.00  0.00    +0.000 C 
BRANCH   9  10
ATOM     10  N   UNL     1      44.631   3.434   8.287  0.00  0.00    +0.000 N 
ATOM     11  C   UNL     1      45.693   2.725   7.752  0.00  0.00    +0.000 A 
ATOM     12  C   UNL     1      46.080   1.479   8.208  0.00  0.00    +0.000 A 
ATOM     13  C   UNL     1      47.123   0.865   7.552  0.00  0.00    +0.000 A 
ATOM     14  N   UNL     1      47.748   1.402   6.494  0.00  0.00    +0.000 NA
ATOM     15  C   UNL     1      47.286   2.600   6.112  0.00  0.00    +0.000 A 
ATOM     16  N   UNL     1      46.297   3.298   6.697  0.00  0.00    +0.000 NA
ATOM     17  H   UNL     1      44.652   4.382   7.920  0.00  0.00    +0.000 HD
ENDBRANCH   9  10
ENDBRANCH   6   9
ENDBRANCH   2   3
BRANCH   2  18
ATOM     18  N   UNL     1      47.105   7.248  14.045  0.00  0.00    +0.000 N 
ATOM     19  C   UNL     1      48.360   6.730  14.249  0.00  0.00    +0.000 C 
ATOM     20  O   UNL     1      49.210   6.679  13.366  0.00  0.00    +0.000 OA
ATOM     21  H   UNL     1      46.374   6.975  14.696  0.00  0.00    +0.000 HD
BRANCH  19  22
ATOM     22  C   UNL     1      48.667   6.302  15.618  0.00  0.00    +0.000 A 
ATOM     23  C   UNL     1      49.527   7.060  16.401  0.00  0.00    +0.000 A 
ATOM     24  S   UNL     1      49.753   6.429  17.970  0.00  0.00    +0.000 S 
ATOM     25  C   UNL     1      48.750   5.095  17.636  0.00  0.00    +0.000 A 
ATOM     26  N   UNL     1      48.538   4.126  18.566  0.00  0.00    +0.000 NA
ATOM     27  C   UNL     1      47.786   3.154  18.161  0.00  0.00    +0.000 A 
ATOM     28  N   UNL     1      47.215   3.074  16.918  0.00  0.00    +0.000 N 
ATOM     29  C   UNL     1      47.366   4.051  15.965  0.00  0.00    +0.000 A 
ATOM     30  O   UNL     1      46.786   3.990  14.883  0.00  0.00    +0.000 OA
ATOM     31  C   UNL     1      48.228   5.148  16.357  0.00  0.00    +0.000 A 
ATOM     32  H   UNL     1      46.620   2.296  16.671  0.00  0.00    +0.000 HD
ENDBRANCH  19  22
ENDBRANCH   2  18
TORSDOF 5
ENDMDL
MODEL 2
REMARK VINA RESULT:    -8.472      1.990      2.501
REMARK INTER + INTRA:         -12.003
REMARK INTER:                 -10.975
REMARK INTRA:                  -1.028
REMARK UNBOUND:                -1.054
REMARK  Name = 
REMARK  6 active torsions:
REMARK  status: ('A' for Active; 'I' for Inactive)
REMARK    1  A    between atoms: C_1  and  C_2
REMARK    2  A    between atoms: C_2  and  N_3
REMARK    3  A    between atoms: C_2  and  C_16
REMARK    4  A    between atoms: C_4  and  C_6
REMARK    5  A    between atoms: C_19  and  C_20
REMARK    6  A    between atoms: C_20  and  N_21
REMARK                            x       y       z     vdW  Elec       q    Type
REMARK                         _______ _______ _______ _____ _____    ______ ____
ROOT
ATOM      1  C   UNL     1      47.640   8.493  13.628  0.00  0.00    +0.000 C 
ATOM      2  C   UNL     1      47.882   6.979  13.653  0.00  0.00    +0.000 C 
ENDROOT
BRANCH   2   3
ATOM      3  C   UNL     1      46.851   6.260  12.793  0.00  0.00    +0.000 A 
ATOM      4  C   UNL     1      46.155   5.152  13.293  0.00  0.00    +0.000 A 
ATOM      5  C   UNL     1      45.183   4.511  12.516  0.00  0.00    +0.000 A 
ATOM      6  C   UNL     1      44.893   4.954  11.218  0.00  0.00    +0.000 A 
ATOM      7  C   UNL     1      45.583   6.065  10.718  0.00  0.00    +0.000 A 
ATOM      8  C   UNL     1      46.552   6.706  11.494  0.00  0.00    +0.000 A 
BRANCH   6   9
ATOM      9  C   UNL     1      43.857   4.252  10.371  0.00  0.00    +0.000 C 
BRANCH   9  10
ATOM     10  N   UNL     1      44.194   4.352   8.965  0.00  0.00    +0.000 N 
ATOM     11  C   UNL     1      45.122   3.488   8.409  0.00  0.00    +0.000 A 
ATOM     12  C   UNL     1      45.297   2.186   8.838  0.00  0.00    +0.000 A 
ATOM     13  C   UNL     1      46.222   1.421   8.163  0.00  0.00    +0.000 A 
ATOM     14  N   UNL     1      46.926   1.869   7.114  0.00  0.00    +0.000 NA
ATOM     15  C   UNL     1      46.669   3.134   6.758  0.00  0.00    +0.000 A 
ATOM     16  N   UNL     1      45.811   3.974   7.363  0.00  0.00    +0.000 NA
ATOM     17  H   UNL     1      44.371   5.291   8.618  0.00  0.00    +0.000 HD
ENDBRANCH   9  10
ENDBRANCH   6   9
ENDBRANCH   2   3
BRANCH   2  18
ATOM     18  N   UNL     1      47.845   6.436  15.002  0.00  0.00    +0.000 N 
ATOM     19  C   UNL     1      48.961   6.320  15.792  0.00  0.00    +0.000 C 
ATOM     20  O   UNL     1      50.070   6.708  15.437  0.00  0.00    +0.000 OA
ATOM     21  H   UNL     1      47.058   5.828  15.211  0.00  0.00    +0.000 HD
BRANCH  19  22
ATOM     22  C   UNL     1      48.749   5.768  17.135  0.00  0.00    +0.000 A 
ATOM     23  C   UNL     1      48.941   4.413  17.361  0.00  0.00    +0.000 A 
ATOM     24  S   UNL     1      48.673   3.948  18.981  0.00  0.00    +0.000 S 
ATOM     25  C   UNL     1      48.242   5.535  19.420  0.00  0.00    +0.000 A 
ATOM     26  N   UNL     1      47.858   5.832  20.690  0.00  0.00    +0.000 NA
ATOM     27  C   UNL     1      47.522   7.068  20.871  0.00  0.00    +0.000 A 
ATOM     28  N   UNL     1      47.551   8.035  19.899  0.00  0.00    +0.000 N 
ATOM     29  C   UNL     1      47.974   7.789  18.616  0.00  0.00    +0.000 A 
ATOM     30  O   UNL     1      48.057   8.688  17.783  0.00  0.00    +0.000 OA
ATOM     31  C   UNL     1      48.331   6.409  18.353  0.00  0.00    +0.000 A 
ATOM     32  H   UNL     1      47.295   8.989  20.111  0.00  0.00    +0.000 HD
ENDBRANCH  19  22
ENDBRANCH   2  18
TORSDOF 5
ENDMDL
MODEL 3
REMARK VINA RESULT:    -8.434      1.721      2.045
REMARK INTER + INTRA:         -11.954
REMARK INTER:                 -10.929
REMARK INTRA:                  -1.025
REMARK UNBOUND:                -1.054
REMARK  Name = 
REMARK  6 active torsions:
REMARK  status: ('A' for Active; 'I' for Inactive)
REMARK    1  A    between atoms: C_1  and  C_2
REMARK    2  A    between atoms: C_2  and  N_3
REMARK    3  A    between atoms: C_2  and  C_16
REMARK    4  A    between atoms: C_4  and  C_6
REMARK    5  A    between atoms: C_19  and  C_20
REMARK    6  A    between atoms: C_20  and  N_21
REMARK                            x       y       z     vdW  Elec       q    Type
REMARK                         _______ _______ _______ _____ _____    ______ ____
ROOT
ATOM      1  C   UNL     1      48.728   8.288  12.866  0.00  0.00    +0.000 C 
ATOM      2  C   UNL     1      48.472   6.884  13.428  0.00  0.00    +0.000 C 
ENDROOT
BRANCH   2   3
ATOM      3  C   UNL     1      47.294   6.231  12.716  0.00  0.00    +0.000 A 
ATOM      4  C   UNL     1      46.698   5.076  13.238  0.00  0.00    +0.000 A 
ATOM      5  C   UNL     1      45.594   4.494  12.603  0.00  0.00    +0.000 A 
ATOM      6  C   UNL     1      45.069   5.046  11.426  0.00  0.00    +0.000 A 
ATOM      7  C   UNL     1      45.659   6.204  10.905  0.00  0.00    +0.000 A 
ATOM      8  C   UNL     1      46.759   6.785  11.540  0.00  0.00    +0.000 A 
BRANCH   6   9
ATOM      9  C   UNL     1      43.888   4.408  10.730  0.00  0.00    +0.000 C 
BRANCH   9  10
ATOM     10  N   UNL     1      44.058   4.459   9.291  0.00  0.00    +0.000 N 
ATOM     11  C   UNL     1      44.931   3.587   8.663  0.00  0.00    +0.000 A 
ATOM     12  C   UNL     1      45.180   2.305   9.116  0.00  0.00    +0.000 A 
ATOM     13  C   UNL     1      46.034   1.528   8.366  0.00  0.00    +0.000 A 
ATOM     14  N   UNL     1      46.602   1.944   7.226  0.00  0.00    +0.000 NA
ATOM     15  C   UNL     1      46.281   3.191   6.856  0.00  0.00    +0.000 A 
ATOM     16  N   UNL     1      45.483   4.042   7.526  0.00  0.00    +0.000 NA
ATOM     17  H   UNL     1      44.175   5.385   8.891  0.00  0.00    +0.000 HD
ENDBRANCH   9  10
ENDBRANCH   6   9
ENDBRANCH   2   3
BRANCH   2  18
ATOM     18  N   UNL     1      48.218   6.900  14.860  0.00  0.00    +0.000 N 
ATOM     19  C   UNL     1      49.209   6.742  15.797  0.00  0.00    +0.000 C 
ATOM     20  O   UNL     1      50.393   6.620  15.498  0.00  0.00    +0.000 OA
ATOM     21  H   UNL     1      47.267   6.677  15.142  0.00  0.00    +0.000 HD
BRANCH  19  22
ATOM     22  C   UNL     1      48.787   6.801  17.200  0.00  0.00    +0.000 A 
ATOM     23  C   UNL     1      48.337   8.000  17.735  0.00  0.00    +0.000 A 
ATOM     24  S   UNL     1      47.866   7.882  19.370  0.00  0.00    +0.000 S 
ATOM     25  C   UNL     1      48.296   6.237  19.431  0.00  0.00    +0.000 A 
ATOM     26  N   UNL     1      48.173   5.521  20.580  0.00  0.00    +0.000 NA
ATOM     27  C   UNL     1      48.574   4.294  20.490  0.00  0.00    +0.000 A 
ATOM     28  N   UNL     1      49.070   3.716  19.350  0.00  0.00    +0.000 N 
ATOM     29  C   UNL     1      49.169   4.389  18.157  0.00  0.00    +0.000 A 
ATOM     30  O   UNL     1      49.551   3.828  17.132  0.00  0.00    +0.000 OA
ATOM     31  C   UNL     1      48.763   5.779  18.213  0.00  0.00    +0.000 A 
ATOM     32  H   UNL     1      49.347   2.746  19.341  0.00  0.00    +0.000 HD
ENDBRANCH  19  22
ENDBRANCH   2  18
TORSDOF 5
ENDMDL
MODEL 4
REMARK VINA RESULT:    -7.753      2.845      4.166
REMARK INTER + INTRA:         -11.073
REMARK INTER:                  -9.843
REMARK INTRA:                  -1.230
REMARK UNBOUND:                -1.054
REMARK  Name = 
REMARK  6 active torsions:
REMARK  status: ('A' for Active; 'I' for Inactive)
REMARK    1  A    between atoms: C_1  and  C_2
REMARK    2  A    between atoms: C_2  and  N_3
REMARK    3  A    between atoms: C_2  and  C_16
REMARK    4  A    between atoms: C_4  and  C_6
REMARK    5  A    between atoms: C_19  and  C_20
REMARK    6  A    between atoms: C_20  and  N_21
REMARK                            x       y       z     vdW  Elec       q    Type
REMARK                         _______ _______ _______ _____ _____    ______ ____
ROOT
ATOM      1  C   UNL     1      47.293   4.764  15.031  0.00  0.00    +0.000 C 
ATOM      2  C   UNL     1      46.943   5.840  13.996  0.00  0.00    +0.000 C 
ENDROOT
BRANCH   2   3
ATOM      3  C   UNL     1      46.204   5.225  12.815  0.00  0.00    +0.000 A 
ATOM      4  C   UNL     1      46.021   5.952  11.632  0.00  0.00    +0.000 A 
ATOM      5  C   UNL     1      45.372   5.375  10.534  0.00  0.00    +0.000 A 
ATOM      6  C   UNL     1      44.880   4.063  10.597  0.00  0.00    +0.000 A 
ATOM      7  C   UNL     1      45.067   3.332  11.776  0.00  0.00    +0.000 A 
ATOM      8  C   UNL     1      45.717   3.907  12.871  0.00  0.00    +0.000 A 
BRANCH   6   9
ATOM      9  C   UNL     1      44.163   3.446   9.418  0.00  0.00    +0.000 C 
BRANCH   9  10
ATOM     10  N   UNL     1      44.888   3.703   8.190  0.00  0.00    +0.000 N 
ATOM     11  C   UNL     1      45.931   2.874   7.811  0.00  0.00    +0.000 A 
ATOM     12  C   UNL     1      45.968   1.523   8.100  0.00  0.00    +0.000 A 
ATOM     13  C   UNL     1      47.042   0.807   7.620  0.00  0.00    +0.000 A 
ATOM     14  N   UNL     1      48.018   1.348   6.879  0.00  0.00    +0.000 NA
ATOM     15  C   UNL     1      47.882   2.658   6.632  0.00  0.00    +0.000 A 
ATOM     16  N   UNL     1      46.892   3.454   7.074  0.00  0.00    +0.000 NA
ATOM     17  H   UNL     1      45.163   4.669   8.030  0.00  0.00    +0.000 HD
ENDBRANCH   9  10
ENDBRANCH   6   9
ENDBRANCH   2   3
BRANCH   2  18
ATOM     18  N   UNL     1      48.120   6.544  13.512  0.00  0.00    +0.000 N 
ATOM     19  C   UNL     1      48.225   7.913  13.513  0.00  0.00    +0.000 C 
ATOM     20  O   UNL     1      47.352   8.647  13.966  0.00  0.00    +0.000 OA
ATOM     21  H   UNL     1      48.702   6.030  12.857  0.00  0.00    +0.000 HD
BRANCH  19  22
ATOM     22  C   UNL     1      49.487   8.464  13.007  0.00  0.00    +0.000 A 
ATOM     23  C   UNL     1      49.492   9.213  11.838  0.00  0.00    +0.000 A 
ATOM     24  S   UNL     1      51.037   9.795  11.409  0.00  0.00    +0.000 S 
ATOM     25  C   UNL     1      51.757   9.022  12.743  0.00  0.00    +0.000 A 
ATOM     26  N   UNL     1      53.098   9.089  12.954  0.00  0.00    +0.000 NA
ATOM     27  C   UNL     1      53.511   8.423  13.983  0.00  0.00    +0.000 A 
ATOM     28  N   UNL     1      52.701   7.710  14.829  0.00  0.00    +0.000 N 
ATOM     29  C   UNL     1      51.337   7.652  14.679  0.00  0.00    +0.000 A 
ATOM     30  O   UNL     1      50.625   7.064  15.490  0.00  0.00    +0.000 OA
ATOM     31  C   UNL     1      50.827   8.356  13.520  0.00  0.00    +0.000 A 
ATOM     32  H   UNL     1      53.084   7.227  15.628  0.00  0.00    +0.000 HD
ENDBRANCH  19  22
ENDBRANCH   2  18
TORSDOF 5
ENDMDL
MODEL 5
REMARK VINA RESULT:    -7.635      2.597      4.356
REMARK INTER + INTRA:         -10.921
REMARK INTER:                  -9.723
REMARK INTRA:                  -1.198
REMARK UNBOUND:                -1.054
REMARK  Name = 
REMARK  6 active torsions:
REMARK  status: ('A' for Active; 'I' for Inactive)
REMARK    1  A    between atoms: C_1  and  C_2
REMARK    2  A    between atoms: C_2  and  N_3
REMARK    3  A    between atoms: C_2  and  C_16
REMARK    4  A    between atoms: C_4  and  C_6
REMARK    5  A    between atoms: C_19  and  C_20
REMARK    6  A    between atoms: C_20  and  N_21
REMARK                            x       y       z     vdW  Elec       q    Type
REMARK                         _______ _______ _______ _____ _____    ______ ____
ROOT
ATOM      1  C   UNL     1      47.368   4.473  15.245  0.00  0.00    +0.000 C 
ATOM      2  C   UNL     1      47.024   5.626  14.294  0.00  0.00    +0.000 C 
ENDROOT
BRANCH   2   3
ATOM      3  C   UNL     1      46.309   5.101  13.056  0.00  0.00    +0.000 A 
ATOM      4  C   UNL     1      45.868   3.772  12.998  0.00  0.00    +0.000 A 
ATOM      5  C   UNL     1      45.182   3.298  11.874  0.00  0.00    +0.000 A 
ATOM      6  C   UNL     1      44.931   4.136  10.778  0.00  0.00    +0.000 A 
ATOM      7  C   UNL     1      45.365   5.465  10.836  0.00  0.00    +0.000 A 
ATOM      8  C   UNL     1      46.048   5.939  11.958  0.00  0.00    +0.000 A 
BRANCH   6   9
ATOM      9  C   UNL     1      44.205   3.619   9.556  0.00  0.00    +0.000 C 
BRANCH   9  10
ATOM     10  N   UNL     1      44.976   3.883   8.358  0.00  0.00    +0.000 N 
ATOM     11  C   UNL     1      45.957   2.993   7.952  0.00  0.00    +0.000 A 
ATOM     12  C   UNL     1      45.879   1.630   8.164  0.00  0.00    +0.000 A 
ATOM     13  C   UNL     1      46.902   0.857   7.664  0.00  0.00    +0.000 A 
ATOM     14  N   UNL     1      47.936   1.357   6.972  0.00  0.00    +0.000 NA
ATOM     15  C   UNL     1      47.910   2.684   6.797  0.00  0.00    +0.000 A 
ATOM     16  N   UNL     1      46.977   3.533   7.265  0.00  0.00    +0.000 NA
ATOM     17  H   UNL     1      45.331   4.830   8.258  0.00  0.00    +0.000 HD
ENDBRANCH   9  10
ENDBRANCH   6   9
ENDBRANCH   2   3
BRANCH   2  18
ATOM     18  N   UNL     1      48.202   6.376  13.887  0.00  0.00    +0.000 N 
ATOM     19  C   UNL     1      48.853   7.253  14.718  0.00  0.00    +0.000 C 
ATOM     20  O   UNL     1      48.518   7.438  15.884  0.00  0.00    +0.000 OA
ATOM     21  H   UNL     1      48.317   6.505  12.886  0.00  0.00    +0.000 HD
BRANCH  19  22
ATOM     22  C   UNL     1      50.036   7.916  14.158  0.00  0.00    +0.000 A 
ATOM     23  C   UNL     1      51.261   7.799  14.800  0.00  0.00    +0.000 A 
ATOM     24  S   UNL     1      52.530   8.611  14.001  0.00  0.00    +0.000 S 
ATOM     25  C   UNL     1      51.473   9.189  12.798  0.00  0.00    +0.000 A 
ATOM     26  N   UNL     1      51.920   9.997  11.800  0.00  0.00    +0.000 NA
ATOM     27  C   UNL     1      51.000  10.391  10.980  0.00  0.00    +0.000 A 
ATOM     28  N   UNL     1      49.678  10.035  11.060  0.00  0.00    +0.000 N 
ATOM     29  C   UNL     1      49.193   9.186  12.025  0.00  0.00    +0.000 A 
ATOM     30  O   UNL     1      48.017   8.827  12.032  0.00  0.00    +0.000 OA
ATOM     31  C   UNL     1      50.179   8.743  12.989  0.00  0.00    +0.000 A 
ATOM     32  H   UNL     1      49.013  10.361  10.374  0.00  0.00    +0.000 HD
ENDBRANCH  19  22
ENDBRANCH   2  18
TORSDOF 5
ENDMDL
MODEL 6
REMARK VINA RESULT:    -7.308      3.297      7.966
REMARK INTER + INTRA:         -10.499
REMARK INTER:                  -9.383
REMARK INTRA:                  -1.116
REMARK UNBOUND:                -1.054
REMARK  Name = 
REMARK  6 active torsions:
REMARK  status: ('A' for Active; 'I' for Inactive)
REMARK    1  A    between atoms: C_1  and  C_2
REMARK    2  A    between atoms: C_2  and  N_3
REMARK    3  A    between atoms: C_2  and  C_16
REMARK    4  A    between atoms: C_4  and  C_6
REMARK    5  A    between atoms: C_19  and  C_20
REMARK    6  A    between atoms: C_20  and  N_21
REMARK                            x       y       z     vdW  Elec       q    Type
REMARK                         _______ _______ _______ _____ _____    ______ ____
ROOT
ATOM      1  C   UNL     1      49.699   8.100  11.538  0.00  0.00    +0.000 C 
ATOM      2  C   UNL     1      48.461   7.724  12.361  0.00  0.00    +0.000 C 
ENDROOT
BRANCH   2   3
ATOM      3  C   UNL     1      48.866   7.269  13.757  0.00  0.00    +0.000 A 
ATOM      4  C   UNL     1      48.083   6.345  14.460  0.00  0.00    +0.000 A 
ATOM      5  C   UNL     1      48.472   5.901  15.729  0.00  0.00    +0.000 A 
ATOM      6  C   UNL     1      49.646   6.379  16.330  0.00  0.00    +0.000 A 
ATOM      7  C   UNL     1      50.433   7.298  15.626  0.00  0.00    +0.000 A 
ATOM      8  C   UNL     1      50.046   7.739  14.359  0.00  0.00    +0.000 A 
BRANCH   6   9
ATOM      9  C   UNL     1      50.057   5.913  17.708  0.00  0.00    +0.000 C 
BRANCH   9  10
ATOM     10  N   UNL     1      49.735   4.512  17.889  0.00  0.00    +0.000 N 
ATOM     11  C   UNL     1      50.728   3.552  17.788  0.00  0.00    +0.000 A 
ATOM     12  C   UNL     1      52.042   3.778  18.151  0.00  0.00    +0.000 A 
ATOM     13  C   UNL     1      52.915   2.719  18.044  0.00  0.00    +0.000 A 
ATOM     14  N   UNL     1      52.546   1.496  17.637  0.00  0.00    +0.000 NA
ATOM     15  C   UNL     1      51.248   1.369  17.330  0.00  0.00    +0.000 A 
ATOM     16  N   UNL     1      50.320   2.341  17.372  0.00  0.00    +0.000 NA
ATOM     17  H   UNL     1      48.907   4.181  17.402  0.00  0.00    +0.000 HD
ENDBRANCH   9  10
ENDBRANCH   6   9
ENDBRANCH   2   3
BRANCH   2  18
ATOM     18  N   UNL     1      47.673   6.679  11.725  0.00  0.00    +0.000 N 
ATOM     19  C   UNL     1      46.323   6.792  11.503  0.00  0.00    +0.000 C 
ATOM     20  O   UNL     1      45.685   7.803  11.780  0.00  0.00    +0.000 OA
ATOM     21  H   UNL     1      48.062   5.741  11.775  0.00  0.00    +0.000 HD
BRANCH  19  22
ATOM     22  C   UNL     1      45.680   5.655  10.835  0.00  0.00    +0.000 A 
ATOM     23  C   UNL     1      45.778   5.519   9.458  0.00  0.00    +0.000 A 
ATOM     24  S   UNL     1      44.993   4.129   8.854  0.00  0.00    +0.000 S 
ATOM     25  C   UNL     1      44.455   3.692  10.408  0.00  0.00    +0.000 A 
ATOM     26  N   UNL     1      43.681   2.591  10.599  0.00  0.00    +0.000 NA
ATOM     27  C   UNL     1      43.314   2.403  11.825  0.00  0.00    +0.000 A 
ATOM     28  N   UNL     1      43.665   3.208  12.878  0.00  0.00    +0.000 N 
ATOM     29  C   UNL     1      44.481   4.304  12.737  0.00  0.00    +0.000 A 
ATOM     30  O   UNL     1      44.838   4.968  13.707  0.00  0.00    +0.000 OA
ATOM     31  C   UNL     1      44.893   4.577  11.375  0.00  0.00    +0.000 A 
ATOM     32  H   UNL     1      43.361   2.994  13.816  0.00  0.00    +0.000 HD
ENDBRANCH  19  22
ENDBRANCH   2  18
TORSDOF 5
ENDMDL
MODEL 7
REMARK VINA RESULT:    -7.251      3.807      5.157
REMARK INTER + INTRA:         -10.425
REMARK INTER:                  -9.367
REMARK INTRA:                  -1.058
REMARK UNBOUND:                -1.054
REMARK  Name = 
REMARK  6 active torsions:
REMARK  status: ('A' for Active; 'I' for Inactive)
REMARK    1  A    between atoms: C_1  and  C_2
REMARK    2  A    between atoms: C_2  and  N_3
REMARK    3  A    between atoms: C_2  and  C_16
REMARK    4  A    between atoms: C_4  and  C_6
REMARK    5  A    between atoms: C_19  and  C_20
REMARK    6  A    between atoms: C_20  and  N_21
REMARK                            x       y       z     vdW  Elec       q    Type
REMARK                         _______ _______ _______ _____ _____    ______ ____
ROOT
ATOM      1  C   UNL     1      48.267   6.073  15.117  0.00  0.00    +0.000 C 
ATOM      2  C   UNL     1      48.110   6.833  13.795  0.00  0.00    +0.000 C 
ENDROOT
BRANCH   2   3
ATOM      3  C   UNL     1      47.087   6.143  12.902  0.00  0.00    +0.000 A 
ATOM      4  C   UNL     1      46.507   4.929  13.289  0.00  0.00    +0.000 A 
ATOM      5  C   UNL     1      45.541   4.312  12.485  0.00  0.00    +0.000 A 
ATOM      6  C   UNL     1      45.142   4.887  11.270  0.00  0.00    +0.000 A 
ATOM      7  C   UNL     1      45.717   6.104  10.883  0.00  0.00    +0.000 A 
ATOM      8  C   UNL     1      46.679   6.721  11.687  0.00  0.00    +0.000 A 
BRANCH   6   9
ATOM      9  C   UNL     1      44.113   4.212  10.393  0.00  0.00    +0.000 C 
BRANCH   9  10
ATOM     10  N   UNL     1      44.452   4.375   8.993  0.00  0.00    +0.000 N 
ATOM     11  C   UNL     1      45.346   3.506   8.388  0.00  0.00    +0.000 A 
ATOM     12  C   UNL     1      45.471   2.178   8.746  0.00  0.00    +0.000 A 
ATOM     13  C   UNL     1      46.365   1.415   8.028  0.00  0.00    +0.000 A 
ATOM     14  N   UNL     1      47.084   1.891   7.001  0.00  0.00    +0.000 NA
ATOM     15  C   UNL     1      46.875   3.183   6.715  0.00  0.00    +0.000 A 
ATOM     16  N   UNL     1      46.051   4.022   7.367  0.00  0.00    +0.000 NA
ATOM     17  H   UNL     1      44.665   5.323   8.696  0.00  0.00    +0.000 HD
ENDBRANCH   9  10
ENDBRANCH   6   9
ENDBRANCH   2   3
BRANCH   2  18
ATOM     18  N   UNL     1      49.369   6.955  13.076  0.00  0.00    +0.000 N 
ATOM     19  C   UNL     1      49.783   8.125  12.488  0.00  0.00    +0.000 C 
ATOM     20  O   UNL     1      49.144   9.170  12.564  0.00  0.00    +0.000 OA
ATOM     21  H   UNL     1      49.759   6.087  12.718  0.00  0.00    +0.000 HD
BRANCH  19  22
ATOM     22  C   UNL     1      51.087   8.085  11.817  0.00  0.00    +0.000 A 
ATOM     23  C   UNL     1      51.212   7.443  10.593  0.00  0.00    +0.000 A 
ATOM     24  S   UNL     1      52.790   7.514   9.946  0.00  0.00    +0.000 S 
ATOM     25  C   UNL     1      53.367   8.359  11.305  0.00  0.00    +0.000 A 
ATOM     26  N   UNL     1      54.676   8.709  11.411  0.00  0.00    +0.000 NA
ATOM     27  C   UNL     1      54.980   9.313  12.513  0.00  0.00    +0.000 A 
ATOM     28  N   UNL     1      54.089   9.612  13.511  0.00  0.00    +0.000 N 
ATOM     29  C   UNL     1      52.750   9.317  13.427  0.00  0.00    +0.000 A 
ATOM     30  O   UNL     1      51.960   9.658  14.304  0.00  0.00    +0.000 OA
ATOM     31  C   UNL     1      52.364   8.610  12.223  0.00  0.00    +0.000 A 
ATOM     32  H   UNL     1      54.387  10.105  14.341  0.00  0.00    +0.000 HD
ENDBRANCH  19  22
ENDBRANCH   2  18
TORSDOF 5
ENDMDL
MODEL 8
REMARK VINA RESULT:    -7.178      4.431      9.035
REMARK INTER + INTRA:         -10.330
REMARK INTER:                  -9.853
REMARK INTRA:                  -0.477
REMARK UNBOUND:                -1.054
REMARK  Name = 
REMARK  6 active torsions:
REMARK  status: ('A' for Active; 'I' for Inactive)
REMARK    1  A    between atoms: C_1  and  C_2
REMARK    2  A    between atoms: C_2  and  N_3
REMARK    3  A    between atoms: C_2  and  C_16
REMARK    4  A    between atoms: C_4  and  C_6
REMARK    5  A    between atoms: C_19  and  C_20
REMARK    6  A    between atoms: C_20  and  N_21
REMARK                            x       y       z     vdW  Elec       q    Type
REMARK                         _______ _______ _______ _____ _____    ______ ____
ROOT
ATOM      1  C   UNL     1      47.093   5.119  18.467  0.00  0.00    +0.000 C 
ATOM      2  C   UNL     1      47.500   4.240  17.277  0.00  0.00    +0.000 C 
ENDROOT
BRANCH   2   3
ATOM      3  C   UNL     1      48.951   3.798  17.412  0.00  0.00    +0.000 A 
ATOM      4  C   UNL     1      49.304   2.452  17.250  0.00  0.00    +0.000 A 
ATOM      5  C   UNL     1      50.641   2.050  17.340  0.00  0.00    +0.000 A 
ATOM      6  C   UNL     1      51.656   2.980  17.607  0.00  0.00    +0.000 A 
ATOM      7  C   UNL     1      51.307   4.327  17.764  0.00  0.00    +0.000 A 
ATOM      8  C   UNL     1      49.972   4.729  17.672  0.00  0.00    +0.000 A 
BRANCH   6   9
ATOM      9  C   UNL     1      53.098   2.544  17.723  0.00  0.00    +0.000 C 
BRANCH   9  10
ATOM     10  N   UNL     1      53.220   1.426  18.637  0.00  0.00    +0.000 N 
ATOM     11  C   UNL     1      53.911   0.288  18.255  0.00  0.00    +0.000 A 
ATOM     12  C   UNL     1      54.996   0.311  17.401  0.00  0.00    +0.000 A 
ATOM     13  C   UNL     1      55.620  -0.890  17.145  0.00  0.00    +0.000 A 
ATOM     14  N   UNL     1      55.242  -2.051  17.698  0.00  0.00    +0.000 NA
ATOM     15  C   UNL     1      54.196  -1.967  18.531  0.00  0.00    +0.000 A 
ATOM     16  N   UNL     1      53.500  -0.856  18.828  0.00  0.00    +0.000 NA
ATOM     17  H   UNL     1      52.366   1.147  19.113  0.00  0.00    +0.000 HD
ENDBRANCH   9  10
ENDBRANCH   6   9
ENDBRANCH   2   3
BRANCH   2  18
ATOM     18  N   UNL     1      47.321   4.919  16.003  0.00  0.00    +0.000 N 
ATOM     19  C   UNL     1      47.307   4.258  14.800  0.00  0.00    +0.000 C 
ATOM     20  O   UNL     1      47.398   3.037  14.711  0.00  0.00    +0.000 OA
ATOM     21  H   UNL     1      47.562   5.907  15.993  0.00  0.00    +0.000 HD
BRANCH  19  22
ATOM     22  C   UNL     1      47.100   5.089  13.609  0.00  0.00    +0.000 A 
ATOM     23  C   UNL     1      47.840   6.251  13.441  0.00  0.00    +0.000 A 
ATOM     24  S   UNL     1      47.487   7.079  11.992  0.00  0.00    +0.000 S 
ATOM     25  C   UNL     1      46.298   5.938  11.567  0.00  0.00    +0.000 A 
ATOM     26  N   UNL     1      45.569   6.075  10.428  0.00  0.00    +0.000 NA
ATOM     27  C   UNL     1      44.675   5.157  10.252  0.00  0.00    +0.000 A 
ATOM     28  N   UNL     1      44.457   4.106  11.105  0.00  0.00    +0.000 N 
ATOM     29  C   UNL     1      45.200   3.905  12.243  0.00  0.00    +0.000 A 
ATOM     30  O   UNL     1      45.032   2.916  12.954  0.00  0.00    +0.000 OA
ATOM     31  C   UNL     1      46.194   4.926  12.503  0.00  0.00    +0.000 A 
ATOM     32  H   UNL     1      43.756   3.409  10.899  0.00  0.00    +0.000 HD
ENDBRANCH  19  22
ENDBRANCH   2  18
TORSDOF 5
ENDMDL
MODEL 9
REMARK VINA RESULT:    -7.094      3.131      8.429
REMARK INTER + INTRA:         -10.221
REMARK INTER:                  -9.058
REMARK INTRA:                  -1.164
REMARK UNBOUND:                -1.054
REMARK  Name = 
REMARK  6 active torsions:
REMARK  status: ('A' for Active; 'I' for Inactive)
REMARK    1  A    between atoms: C_1  and  C_2
REMARK    2  A    between atoms: C_2  and  N_3
REMARK    3  A    between atoms: C_2  and  C_16
REMARK    4  A    between atoms: C_4  and  C_6
REMARK    5  A    between atoms: C_19  and  C_20
REMARK    6  A    between atoms: C_20  and  N_21
REMARK                            x       y       z     vdW  Elec       q    Type
REMARK                         _______ _______ _______ _____ _____    ______ ____
ROOT
ATOM      1  C   UNL     1      48.614   7.752  11.950  0.00  0.00    +0.000 C 
ATOM      2  C   UNL     1      47.596   7.187  12.949  0.00  0.00    +0.000 C 
ENDROOT
BRANCH   2   3
ATOM      3  C   UNL     1      48.293   6.741  14.227  0.00  0.00    +0.000 A 
ATOM      4  C   UNL     1      49.497   7.337  14.627  0.00  0.00    +0.000 A 
ATOM      5  C   UNL     1      50.121   6.952  15.819  0.00  0.00    +0.000 A 
ATOM      6  C   UNL     1      49.565   5.955  16.633  0.00  0.00    +0.000 A 
ATOM      7  C   UNL     1      48.359   5.362  16.239  0.00  0.00    +0.000 A 
ATOM      8  C   UNL     1      47.735   5.747  15.050  0.00  0.00    +0.000 A 
BRANCH   6   9
ATOM      9  C   UNL     1      50.248   5.525  17.911  0.00  0.00    +0.000 C 
BRANCH   9  10
ATOM     10  N   UNL     1      51.547   4.950  17.625  0.00  0.00    +0.000 N 
ATOM     11  C   UNL     1      51.731   3.579  17.694  0.00  0.00    +0.000 A 
ATOM     12  C   UNL     1      50.741   2.665  17.390  0.00  0.00    +0.000 A 
ATOM     13  C   UNL     1      51.076   1.332  17.453  0.00  0.00    +0.000 A 
ATOM     14  N   UNL     1      52.303   0.892  17.766  0.00  0.00    +0.000 NA
ATOM     15  C   UNL     1      53.200   1.853  18.021  0.00  0.00    +0.000 A 
ATOM     16  N   UNL     1      52.973   3.179  18.015  0.00  0.00    +0.000 NA
ATOM     17  H   UNL     1      52.342   5.410  18.062  0.00  0.00    +0.000 HD
ENDBRANCH   9  10
ENDBRANCH   6   9
ENDBRANCH   2   3
BRANCH   2  18
ATOM     18  N   UNL     1      46.844   6.070  12.398  0.00  0.00    +0.000 N 
ATOM     19  C   UNL     1      45.473   6.043  12.351  0.00  0.00    +0.000 C 
ATOM     20  O   UNL     1      44.776   6.980  12.729  0.00  0.00    +0.000 OA
ATOM     21  H   UNL     1      47.331   5.178  12.378  0.00  0.00    +0.000 HD
BRANCH  19  22
ATOM     22  C   UNL     1      44.870   4.849  11.748  0.00  0.00    +0.000 A 
ATOM     23  C   UNL     1      44.089   4.004  12.524  0.00  0.00    +0.000 A 
ATOM     24  S   UNL     1      43.450   2.681  11.657  0.00  0.00    +0.000 S 
ATOM     25  C   UNL     1      44.237   3.167  10.229  0.00  0.00    +0.000 A 
ATOM     26  N   UNL     1      44.136   2.437   9.087  0.00  0.00    +0.000 NA
ATOM     27  C   UNL     1      44.817   2.904   8.092  0.00  0.00    +0.000 A 
ATOM     28  N   UNL     1      45.577   4.044   8.133  0.00  0.00    +0.000 N 
ATOM     29  C   UNL     1      45.672   4.836   9.251  0.00  0.00    +0.000 A 
ATOM     30  O   UNL     1      46.303   5.890   9.241  0.00  0.00    +0.000 OA
ATOM     31  C   UNL     1      44.952   4.338  10.406  0.00  0.00    +0.000 A 
ATOM     32  H   UNL     1      46.070   4.366   7.313  0.00  0.00    +0.000 HD
ENDBRANCH  19  22
ENDBRANCH   2  18
TORSDOF 5
ENDMDL
