MODEL 1
REMARK VINA RESULT:    -8.629      0.000      0.000
REMARK INTER + INTRA:         -13.802
REMARK INTER:                 -12.665
REMARK INTRA:                  -1.136
REMARK UNBOUND:                -1.136
REMARK  Name = 
REMARK  9 active torsions:
REMARK  status: ('A' for Active; 'I' for Inactive)
REMARK    1  A    between atoms: C_1  and  O_2
REMARK    2  A    between atoms: O_2  and  C_3
REMARK    3  A    between atoms: C_10  and  C_11
REMARK    4  A    between atoms: N_13  and  C_14
REMARK    5  A    between atoms: C_14  and  C_15
REMARK    6  A    between atoms: C_18  and  C_19
REMARK    7  A    between atoms: C_19  and  N_20
REMARK    8  A    between atoms: N_20  and  C_21
REMARK    9  A    between atoms: C_21  and  C_22
REMARK                            x       y       z     vdW  Elec       q    Type
REMARK                         _______ _______ _______ _____ _____    ______ ____
ROOT
ATOM      1  C   UNL     1      46.276   7.475  12.472  0.00  0.00    +0.000 A 
ATOM      2  C   UNL     1      46.687   6.284  11.859  0.00  0.00    +0.000 A 
ATOM      3  C   UNL     1      45.776   5.494  11.142  0.00  0.00    +0.000 A 
ATOM      4  C   UNL     1      44.436   5.884  11.002  0.00  0.00    +0.000 A 
ATOM      5  C   UNL     1      44.047   7.114  11.550  0.00  0.00    +0.000 A 
ATOM      6  C   UNL     1      44.955   7.900  12.274  0.00  0.00    +0.000 A 
ENDROOT
BRANCH   1   7
ATOM      7  C   UNL     1      47.230   8.278  13.327  0.00  0.00    +0.000 C 
BRANCH   7  10
ATOM      8  C   UNL     1      48.789   6.934  14.695  0.00  0.00    +0.000 C 
ATOM      9  O   UNL     1      49.632   6.917  13.799  0.00  0.00    +0.000 OA
ATOM     10  N   UNL     1      47.592   7.576  14.533  0.00  0.00    +0.000 N 
ATOM     11  H   UNL     1      46.908   7.560  15.274  0.00  0.00    +0.000 HD
BRANCH   8  19
ATOM     12  C   UNL     1      47.298   4.272  16.278  0.00  0.00    +0.000 A 
ATOM     13  N   UNL     1      46.920   3.259  17.085  0.00  0.00    +0.000 NA
ATOM     14  C   UNL     1      47.576   3.100  18.235  0.00  0.00    +0.000 A 
ATOM     15  N   UNL     1      48.583   3.842  18.693  0.00  0.00    +0.000 NA
ATOM     16  C   UNL     1      48.935   4.828  17.852  0.00  0.00    +0.000 A 
ATOM     17  S   UNL     1      50.201   5.878  18.273  0.00  0.00    +0.000 S 
ATOM     18  C   UNL     1      50.033   6.745  16.819  0.00  0.00    +0.000 A 
ATOM     19  C   UNL     1      49.027   6.264  15.987  0.00  0.00    +0.000 A 
ATOM     20  C   UNL     1      48.365   5.121  16.618  0.00  0.00    +0.000 A 
BRANCH  12  22
ATOM     21  C   UNL     1      47.092   3.541  14.068  0.00  0.00    +0.000 C 
ATOM     22  O   UNL     1      46.632   4.426  15.084  0.00  0.00    +0.000 OA
ENDBRANCH  12  22
ENDBRANCH   8  19
ENDBRANCH   7  10
ENDBRANCH   1   7
BRANCH   4  23
ATOM     23  C   UNL     1      43.440   5.005  10.268  0.00  0.00    +0.000 C 
BRANCH  23  24
ATOM     24  N   UNL     1      44.044   4.380   9.090  0.00  0.00    +0.000 NA
ATOM     25  H   UNL     1      44.799   4.975   8.752  0.00  0.00    +0.000 HD
BRANCH  24  26
ATOM     26  C   UNL     1      44.586   3.052   9.381  0.00  0.00    +0.000 C 
BRANCH  26  27
ATOM     27  C   UNL     1      45.554   2.622   8.298  0.00  0.00    +0.000 A 
ATOM     28  C   UNL     1      46.159   1.354   8.344  0.00  0.00    +0.000 A 
ATOM     29  C   UNL     1      47.010   0.923   7.322  0.00  0.00    +0.000 A 
ATOM     30  C   UNL     1      47.279   1.763   6.244  0.00  0.00    +0.000 A 
ATOM     31  C   UNL     1      46.708   3.031   6.208  0.00  0.00    +0.000 A 
ATOM     32  F   UNL     1      46.973   3.842   5.176  0.00  0.00    +0.000 F 
ATOM     33  C   UNL     1      45.856   3.467   7.221  0.00  0.00    +0.000 A 
ENDBRANCH  26  27
ENDBRANCH  24  26
ENDBRANCH  23  24
ENDBRANCH   4  23
TORSDOF 8
ENDMDL
MODEL 2
REMARK VINA RESULT:    -8.625      1.973      2.493
REMARK INTER + INTRA:         -13.796
REMARK INTER:                 -12.511
REMARK INTRA:                  -1.284
REMARK UNBOUND:                -1.136
REMARK  Name = 
REMARK  9 active torsions:
REMARK  status: ('A' for Active; 'I' for Inactive)
REMARK    1  A    between atoms: C_1  and  O_2
REMARK    2  A    between atoms: O_2  and  C_3
REMARK    3  A    between atoms: C_10  and  C_11
REMARK    4  A    between atoms: N_13  and  C_14
REMARK    5  A    between atoms: C_14  and  C_15
REMARK    6  A    between atoms: C_18  and  C_19
REMARK    7  A    between atoms: C_19  and  N_20
REMARK    8  A    between atoms: N_20  and  C_21
REMARK    9  A    between atoms: C_21  and  C_22
REMARK                            x       y       z     vdW  Elec       q    Type
REMARK                         _______ _______ _______ _____ _____    ______ ____
ROOT
ATOM      1  C   UNL     1      47.120   6.184  12.957  0.00  0.00    +0.000 A 
ATOM      2  C   UNL     1      46.196   5.319  13.557  0.00  0.00    +0.000 A 
ATOM      3  C   UNL     1      44.996   4.990  12.909  0.00  0.00    +0.000 A 
ATOM      4  C   UNL     1      44.697   5.502  11.638  0.00  0.00    +0.000 A 
ATOM      5  C   UNL     1      45.659   6.306  11.008  0.00  0.00    +0.000 A 
ATOM      6  C   UNL     1      46.855   6.641  11.659  0.00  0.00    +0.000 A 
ENDROOT
BRANCH   1   7
ATOM      7  C   UNL     1      48.369   6.618  13.692  0.00  0.00    +0.000 C 
BRANCH   7  10
ATOM      8  C   UNL     1      49.049   6.690  16.067  0.00  0.00    +0.000 C 
ATOM      9  O   UNL     1      50.183   6.292  15.801  0.00  0.00    +0.000 OA
ATOM     10  N   UNL     1      48.111   6.868  15.089  0.00  0.00    +0.000 N 
ATOM     11  H   UNL     1      47.182   7.175  15.333  0.00  0.00    +0.000 HD
BRANCH   8  19
ATOM     12  C   UNL     1      48.847   4.796  18.928  0.00  0.00    +0.000 A 
ATOM     13  N   UNL     1      48.711   4.299  20.175  0.00  0.00    +0.000 NA
ATOM     14  C   UNL     1      48.293   5.125  21.134  0.00  0.00    +0.000 A 
ATOM     15  N   UNL     1      47.985   6.415  21.005  0.00  0.00    +0.000 NA
ATOM     16  C   UNL     1      48.150   6.871  19.752  0.00  0.00    +0.000 A 
ATOM     17  S   UNL     1      47.802   8.495  19.398  0.00  0.00    +0.000 S 
ATOM     18  C   UNL     1      48.232   8.284  17.766  0.00  0.00    +0.000 A 
ATOM     19  C   UNL     1      48.647   6.993  17.453  0.00  0.00    +0.000 A 
ATOM     20  C   UNL     1      48.585   6.149  18.646  0.00  0.00    +0.000 A 
BRANCH  12  22
ATOM     21  C   UNL     1      48.242   3.235  17.299  0.00  0.00    +0.000 C 
ATOM     22  O   UNL     1      49.293   3.948  17.942  0.00  0.00    +0.000 OA
ENDBRANCH  12  22
ENDBRANCH   8  19
ENDBRANCH   7  10
ENDBRANCH   1   7
BRANCH   4  23
ATOM     23  C   UNL     1      43.377   5.186  10.959  0.00  0.00    +0.000 C 
BRANCH  23  24
ATOM     24  N   UNL     1      43.583   4.483   9.691  0.00  0.00    +0.000 NA
ATOM     25  H   UNL     1      44.217   5.030   9.111  0.00  0.00    +0.000 HD
BRANCH  24  26
ATOM     26  C   UNL     1      44.152   3.148   9.881  0.00  0.00    +0.000 C 
BRANCH  26  27
ATOM     27  C   UNL     1      45.201   2.862   8.827  0.00  0.00    +0.000 A 
ATOM     28  C   UNL     1      45.749   3.908   8.064  0.00  0.00    +0.000 A 
ATOM     29  C   UNL     1      46.758   3.665   7.127  0.00  0.00    +0.000 A 
ATOM     30  C   UNL     1      47.224   2.368   6.930  0.00  0.00    +0.000 A 
ATOM     31  C   UNL     1      46.664   1.325   7.660  0.00  0.00    +0.000 A 
ATOM     32  F   UNL     1      47.106   0.075   7.465  0.00  0.00    +0.000 F 
ATOM     33  C   UNL     1      45.660   1.557   8.598  0.00  0.00    +0.000 A 
ENDBRANCH  26  27
ENDBRANCH  24  26
ENDBRANCH  23  24
ENDBRANCH   4  23
TORSDOF 8
ENDMDL
MODEL 3
REMARK VINA RESULT:    -8.444      2.445      3.261
REMARK INTER + INTRA:         -13.530
REMARK INTER:                 -12.203
REMARK INTRA:                  -1.326
REMARK UNBOUND:                -1.136
REMARK  Name = 
REMARK  9 active torsions:
REMARK  status: ('A' for Active; 'I' for Inactive)
REMARK    1  A    between atoms: C_1  and  O_2
REMARK    2  A    between atoms: O_2  and  C_3
REMARK    3  A    between atoms: C_10  and  C_11
REMARK    4  A    between atoms: N_13  and  C_14
REMARK    5  A    between atoms: C_14  and  C_15
REMARK    6  A    between atoms: C_18  and  C_19
REMARK    7  A    between atoms: C_19  and  N_20
REMARK    8  A    between atoms: N_20  and  C_21
REMARK    9  A    between atoms: C_21  and  C_22
REMARK                            x       y       z     vdW  Elec       q    Type
REMARK                         _______ _______ _______ _____ _____    ______ ____
ROOT
ATOM      1  C   UNL     1      47.079   6.184  13.022  0.00  0.00    +0.000 A 
ATOM      2  C   UNL     1      46.136   5.313  13.583  0.00  0.00    +0.000 A 
ATOM      3  C   UNL     1      44.947   5.008  12.902  0.00  0.00    +0.000 A 
ATOM      4  C   UNL     1      44.680   5.550  11.636  0.00  0.00    +0.000 A 
ATOM      5  C   UNL     1      45.661   6.360  11.046  0.00  0.00    +0.000 A 
ATOM      6  C   UNL     1      46.846   6.671  11.729  0.00  0.00    +0.000 A 
ENDROOT
BRANCH   1   7
ATOM      7  C   UNL     1      48.314   6.591  13.795  0.00  0.00    +0.000 C 
BRANCH   7  10
ATOM      8  C   UNL     1      49.118   6.441  16.126  0.00  0.00    +0.000 C 
ATOM      9  O   UNL     1      50.293   6.387  15.766  0.00  0.00    +0.000 OA
ATOM     10  N   UNL     1      48.100   6.538  15.220  0.00  0.00    +0.000 N 
ATOM     11  H   UNL     1      47.143   6.561  15.538  0.00  0.00    +0.000 HD
BRANCH   8  19
ATOM     12  C   UNL     1      47.856   8.792  18.293  0.00  0.00    +0.000 A 
ATOM     13  N   UNL     1      47.343   9.499  19.322  0.00  0.00    +0.000 NA
ATOM     14  C   UNL     1      47.200   8.880  20.494  0.00  0.00    +0.000 A 
ATOM     15  N   UNL     1      47.512   7.617  20.777  0.00  0.00    +0.000 NA
ATOM     16  C   UNL     1      48.005   6.947  19.722  0.00  0.00    +0.000 A 
ATOM     17  S   UNL     1      48.462   5.321  19.898  0.00  0.00    +0.000 S 
ATOM     18  C   UNL     1      48.929   5.223  18.266  0.00  0.00    +0.000 A 
ATOM     19  C   UNL     1      48.750   6.405  17.555  0.00  0.00    +0.000 A 
ATOM     20  C   UNL     1      48.206   7.438  18.437  0.00  0.00    +0.000 A 
BRANCH  12  22
ATOM     21  C   UNL     1      49.137  10.266  17.010  0.00  0.00    +0.000 C 
ATOM     22  O   UNL     1      47.989   9.426  17.080  0.00  0.00    +0.000 OA
ENDBRANCH  12  22
ENDBRANCH   8  19
ENDBRANCH   7  10
ENDBRANCH   1   7
BRANCH   4  23
ATOM     23  C   UNL     1      43.373   5.260  10.922  0.00  0.00    +0.000 C 
BRANCH  23  24
ATOM     24  N   UNL     1      43.600   4.567   9.652  0.00  0.00    +0.000 NA
ATOM     25  H   UNL     1      44.289   5.089   9.111  0.00  0.00    +0.000 HD
BRANCH  24  26
ATOM     26  C   UNL     1      44.088   3.200   9.843  0.00  0.00    +0.000 C 
BRANCH  26  27
ATOM     27  C   UNL     1      45.150   2.866   8.816  0.00  0.00    +0.000 A 
ATOM     28  C   UNL     1      45.708   3.877   8.012  0.00  0.00    +0.000 A 
ATOM     29  C   UNL     1      46.729   3.591   7.101  0.00  0.00    +0.000 A 
ATOM     30  C   UNL     1      47.197   2.286   6.970  0.00  0.00    +0.000 A 
ATOM     31  C   UNL     1      46.628   1.278   7.740  0.00  0.00    +0.000 A 
ATOM     32  F   UNL     1      47.072   0.020   7.608  0.00  0.00    +0.000 F 
ATOM     33  C   UNL     1      45.612   1.553   8.653  0.00  0.00    +0.000 A 
ENDBRANCH  26  27
ENDBRANCH  24  26
ENDBRANCH  23  24
ENDBRANCH   4  23
TORSDOF 8
ENDMDL
MODEL 4
REMARK VINA RESULT:    -7.851      1.889      2.424
REMARK INTER + INTRA:         -12.659
REMARK INTER:                 -11.552
REMARK INTRA:                  -1.107
REMARK UNBOUND:                -1.136
REMARK  Name = 
REMARK  9 active torsions:
REMARK  status: ('A' for Active; 'I' for Inactive)
REMARK    1  A    between atoms: C_1  and  O_2
REMARK    2  A    between atoms: O_2  and  C_3
REMARK    3  A    between atoms: C_10  and  C_11
REMARK    4  A    between atoms: N_13  and  C_14
REMARK    5  A    between atoms: C_14  and  C_15
REMARK    6  A    between atoms: C_18  and  C_19
REMARK    7  A    between atoms: C_19  and  N_20
REMARK    8  A    between atoms: N_20  and  C_21
REMARK    9  A    between atoms: C_21  and  C_22
REMARK                            x       y       z     vdW  Elec       q    Type
REMARK                         _______ _______ _______ _____ _____    ______ ____
ROOT
ATOM      1  C   UNL     1      47.431   7.554  13.624  0.00  0.00    +0.000 A 
ATOM      2  C   UNL     1      46.329   8.273  13.143  0.00  0.00    +0.000 A 
ATOM      3  C   UNL     1      45.354   7.646  12.352  0.00  0.00    +0.000 A 
ATOM      4  C   UNL     1      45.445   6.282  12.039  0.00  0.00    +0.000 A 
ATOM      5  C   UNL     1      46.508   5.549  12.587  0.00  0.00    +0.000 A 
ATOM      6  C   UNL     1      47.487   6.177  13.371  0.00  0.00    +0.000 A 
ENDROOT
BRANCH   1   7
ATOM      7  C   UNL     1      48.534   8.247  14.394  0.00  0.00    +0.000 C 
BRANCH   7  10
ATOM      8  C   UNL     1      49.372   7.032  16.376  0.00  0.00    +0.000 C 
ATOM      9  O   UNL     1      48.565   7.593  17.117  0.00  0.00    +0.000 OA
ATOM     10  N   UNL     1      49.416   7.305  15.037  0.00  0.00    +0.000 N 
ATOM     11  H   UNL     1      50.099   6.848  14.452  0.00  0.00    +0.000 HD
BRANCH   8  19
ATOM     12  C   UNL     1      49.292   3.608  16.659  0.00  0.00    +0.000 A 
ATOM     13  N   UNL     1      49.527   2.293  16.852  0.00  0.00    +0.000 NA
ATOM     14  C   UNL     1      50.695   1.941  17.390  0.00  0.00    +0.000 A 
ATOM     15  N   UNL     1      51.680   2.753  17.771  0.00  0.00    +0.000 NA
ATOM     16  C   UNL     1      51.409   4.049  17.548  0.00  0.00    +0.000 A 
ATOM     17  S   UNL     1      52.551   5.231  17.975  0.00  0.00    +0.000 S 
ATOM     18  C   UNL     1      51.543   6.481  17.415  0.00  0.00    +0.000 A 
ATOM     19  C   UNL     1      50.330   6.038  16.895  0.00  0.00    +0.000 A 
ATOM     20  C   UNL     1      50.253   4.580  16.987  0.00  0.00    +0.000 A 
BRANCH  12  22
ATOM     21  C   UNL     1      47.029   4.052  17.030  0.00  0.00    +0.000 C 
ATOM     22  O   UNL     1      48.094   3.970  16.088  0.00  0.00    +0.000 OA
ENDBRANCH  12  22
ENDBRANCH   8  19
ENDBRANCH   7  10
ENDBRANCH   1   7
BRANCH   4  23
ATOM     23  C   UNL     1      44.416   5.615  11.143  0.00  0.00    +0.000 C 
BRANCH  23  24
ATOM     24  N   UNL     1      45.028   5.105   9.915  0.00  0.00    +0.000 NA
ATOM     25  H   UNL     1      46.038   5.056  10.045  0.00  0.00    +0.000 HD
BRANCH  24  26
ATOM     26  C   UNL     1      44.535   3.773   9.559  0.00  0.00    +0.000 C 
BRANCH  26  27
ATOM     27  C   UNL     1      45.483   3.096   8.592  0.00  0.00    +0.000 A 
ATOM     28  C   UNL     1      46.200   3.853   7.648  0.00  0.00    +0.000 A 
ATOM     29  C   UNL     1      47.120   3.247   6.788  0.00  0.00    +0.000 A 
ATOM     30  C   UNL     1      47.325   1.870   6.849  0.00  0.00    +0.000 A 
ATOM     31  C   UNL     1      46.596   1.113   7.759  0.00  0.00    +0.000 A 
ATOM     32  F   UNL     1      46.787  -0.212   7.813  0.00  0.00    +0.000 F 
ATOM     33  C   UNL     1      45.679   1.708   8.623  0.00  0.00    +0.000 A 
ENDBRANCH  26  27
ENDBRANCH  24  26
ENDBRANCH  23  24
ENDBRANCH   4  23
TORSDOF 8
ENDMDL
MODEL 5
REMARK VINA RESULT:    -7.350      2.553      3.841
REMARK INTER + INTRA:         -11.923
REMARK INTER:                 -10.877
REMARK INTRA:                  -1.047
REMARK UNBOUND:                -1.136
REMARK  Name = 
REMARK  9 active torsions:
REMARK  status: ('A' for Active; 'I' for Inactive)
REMARK    1  A    between atoms: C_1  and  O_2
REMARK    2  A    between atoms: O_2  and  C_3
REMARK    3  A    between atoms: C_10  and  C_11
REMARK    4  A    between atoms: N_13  and  C_14
REMARK    5  A    between atoms: C_14  and  C_15
REMARK    6  A    between atoms: C_18  and  C_19
REMARK    7  A    between atoms: C_19  and  N_20
REMARK    8  A    between atoms: N_20  and  C_21
REMARK    9  A    between atoms: C_21  and  C_22
REMARK                            x       y       z     vdW  Elec       q    Type
REMARK                         _______ _______ _______ _____ _____    ______ ____
ROOT
ATOM      1  C   UNL     1      46.905   4.859  14.133  0.00  0.00    +0.000 A 
ATOM      2  C   UNL     1      47.291   6.041  13.487  0.00  0.00    +0.000 A 
ATOM      3  C   UNL     1      46.707   6.416  12.268  0.00  0.00    +0.000 A 
ATOM      4  C   UNL     1      45.708   5.631  11.674  0.00  0.00    +0.000 A 
ATOM      5  C   UNL     1      45.271   4.490  12.362  0.00  0.00    +0.000 A 
ATOM      6  C   UNL     1      45.860   4.110  13.576  0.00  0.00    +0.000 A 
ENDROOT
BRANCH   1   7
ATOM      7  C   UNL     1      47.601   4.402  15.396  0.00  0.00    +0.000 C 
BRANCH   7  10
ATOM      8  C   UNL     1      47.838   5.451  17.620  0.00  0.00    +0.000 C 
ATOM      9  O   UNL     1      47.449   4.433  18.192  0.00  0.00    +0.000 OA
ATOM     10  N   UNL     1      47.934   5.509  16.258  0.00  0.00    +0.000 N 
ATOM     11  H   UNL     1      48.236   6.361  15.810  0.00  0.00    +0.000 HD
BRANCH   8  19
ATOM     12  C   UNL     1      50.731   7.299  17.802  0.00  0.00    +0.000 A 
ATOM     13  N   UNL     1      51.711   8.198  18.030  0.00  0.00    +0.000 NA
ATOM     14  C   UNL     1      51.458   9.195  18.878  0.00  0.00    +0.000 A 
ATOM     15  N   UNL     1      50.326   9.413  19.545  0.00  0.00    +0.000 NA
ATOM     16  C   UNL     1      49.374   8.504  19.277  0.00  0.00    +0.000 A 
ATOM     17  S   UNL     1      47.862   8.622  20.040  0.00  0.00    +0.000 S 
ATOM     18  C   UNL     1      47.290   7.236  19.236  0.00  0.00    +0.000 A 
ATOM     19  C   UNL     1      48.220   6.658  18.377  0.00  0.00    +0.000 A 
ATOM     20  C   UNL     1      49.471   7.417  18.415  0.00  0.00    +0.000 A 
BRANCH  12  22
ATOM     21  C   UNL     1      52.358   6.192  16.543  0.00  0.00    +0.000 C 
ATOM     22  O   UNL     1      50.986   6.279  16.915  0.00  0.00    +0.000 OA
ENDBRANCH  12  22
ENDBRANCH   8  19
ENDBRANCH   7  10
ENDBRANCH   1   7
BRANCH   4  23
ATOM     23  C   UNL     1      45.111   6.011  10.331  0.00  0.00    +0.000 C 
BRANCH  23  24
ATOM     24  N   UNL     1      45.757   5.287   9.234  0.00  0.00    +0.000 NA
ATOM     25  H   UNL     1      46.656   4.933   9.558  0.00  0.00    +0.000 HD
BRANCH  24  26
ATOM     26  C   UNL     1      44.951   4.162   8.759  0.00  0.00    +0.000 C 
BRANCH  26  27
ATOM     27  C   UNL     1      45.797   3.210   7.939  0.00  0.00    +0.000 A 
ATOM     28  C   UNL     1      46.466   3.662   6.788  0.00  0.00    +0.000 A 
ATOM     29  C   UNL     1      47.295   2.808   6.054  0.00  0.00    +0.000 A 
ATOM     30  C   UNL     1      47.455   1.483   6.455  0.00  0.00    +0.000 A 
ATOM     31  C   UNL     1      46.771   1.023   7.575  0.00  0.00    +0.000 A 
ATOM     32  F   UNL     1      46.919  -0.253   7.956  0.00  0.00    +0.000 F 
ATOM     33  C   UNL     1      45.945   1.867   8.314  0.00  0.00    +0.000 A 
ENDBRANCH  26  27
ENDBRANCH  24  26
ENDBRANCH  23  24
ENDBRANCH   4  23
TORSDOF 8
ENDMDL
MODEL 6
REMARK VINA RESULT:    -6.946      3.214      5.223
REMARK INTER + INTRA:         -11.331
REMARK INTER:                 -10.129
REMARK INTRA:                  -1.202
REMARK UNBOUND:                -1.136
REMARK  Name = 
REMARK  9 active torsions:
REMARK  status: ('A' for Active; 'I' for Inactive)
REMARK    1  A    between atoms: C_1  and  O_2
REMARK    2  A    between atoms: O_2  and  C_3
REMARK    3  A    between atoms: C_10  and  C_11
REMARK    4  A    between atoms: N_13  and  C_14
REMARK    5  A    between atoms: C_14  and  C_15
REMARK    6  A    between atoms: C_18  and  C_19
REMARK    7  A    between atoms: C_19  and  N_20
REMARK    8  A    between atoms: N_20  and  C_21
REMARK    9  A    between atoms: C_21  and  C_22
REMARK                            x       y       z     vdW  Elec       q    Type
REMARK                         _______ _______ _______ _____ _____    ______ ____
ROOT
ATOM      1  C   UNL     1      47.839   4.571  16.281  0.00  0.00    +0.000 A 
ATOM      2  C   UNL     1      48.445   5.832  16.354  0.00  0.00    +0.000 A 
ATOM      3  C   UNL     1      48.410   6.709  15.259  0.00  0.00    +0.000 A 
ATOM      4  C   UNL     1      47.754   6.355  14.071  0.00  0.00    +0.000 A 
ATOM      5  C   UNL     1      47.084   5.124  14.029  0.00  0.00    +0.000 A 
ATOM      6  C   UNL     1      47.125   4.244  15.121  0.00  0.00    +0.000 A 
ENDROOT
BRANCH   1   7
ATOM      7  C   UNL     1      47.958   3.586  17.423  0.00  0.00    +0.000 C 
BRANCH   7  10
ATOM      8  C   UNL     1      50.073   2.367  17.033  0.00  0.00    +0.000 C 
ATOM      9  O   UNL     1      49.590   1.739  16.092  0.00  0.00    +0.000 OA
ATOM     10  N   UNL     1      49.334   3.282  17.730  0.00  0.00    +0.000 N 
ATOM     11  H   UNL     1      49.745   3.771  18.511  0.00  0.00    +0.000 HD
BRANCH   8  19
ATOM     12  C   UNL     1      52.644   4.525  17.773  0.00  0.00    +0.000 A 
ATOM     13  N   UNL     1      53.789   5.138  18.139  0.00  0.00    +0.000 NA
ATOM     14  C   UNL     1      54.828   4.372  18.474  0.00  0.00    +0.000 A 
ATOM     15  N   UNL     1      54.871   3.040  18.489  0.00  0.00    +0.000 NA
ATOM     16  C   UNL     1      53.707   2.473  18.132  0.00  0.00    +0.000 A 
ATOM     17  S   UNL     1      53.576   0.780  18.090  0.00  0.00    +0.000 S 
ATOM     18  C   UNL     1      51.951   0.867  17.596  0.00  0.00    +0.000 A 
ATOM     19  C   UNL     1      51.472   2.165  17.455  0.00  0.00    +0.000 A 
ATOM     20  C   UNL     1      52.533   3.123  17.767  0.00  0.00    +0.000 A 
BRANCH  12  22
ATOM     21  C   UNL     1      51.905   6.374  16.551  0.00  0.00    +0.000 C 
ATOM     22  O   UNL     1      51.569   5.315  17.442  0.00  0.00    +0.000 OA
ENDBRANCH  12  22
ENDBRANCH   8  19
ENDBRANCH   7  10
ENDBRANCH   1   7
BRANCH   4  23
ATOM     23  C   UNL     1      47.759   7.283  12.869  0.00  0.00    +0.000 C 
BRANCH  23  24
ATOM     24  N   UNL     1      47.376   6.575  11.646  0.00  0.00    +0.000 NA
ATOM     25  H   UNL     1      47.605   5.588  11.751  0.00  0.00    +0.000 HD
BRANCH  24  26
ATOM     26  C   UNL     1      45.946   6.699  11.356  0.00  0.00    +0.000 C 
BRANCH  26  27
ATOM     27  C   UNL     1      45.437   5.459  10.652  0.00  0.00    +0.000 A 
ATOM     28  C   UNL     1      44.625   4.535  11.333  0.00  0.00    +0.000 A 
ATOM     29  C   UNL     1      44.102   3.415  10.679  0.00  0.00    +0.000 A 
ATOM     30  C   UNL     1      44.397   3.197   9.335  0.00  0.00    +0.000 A 
ATOM     31  C   UNL     1      45.225   4.091   8.665  0.00  0.00    +0.000 A 
ATOM     32  F   UNL     1      45.515   3.876   7.375  0.00  0.00    +0.000 F 
ATOM     33  C   UNL     1      45.748   5.211   9.308  0.00  0.00    +0.000 A 
ENDBRANCH  26  27
ENDBRANCH  24  26
ENDBRANCH  23  24
ENDBRANCH   4  23
TORSDOF 8
ENDMDL
MODEL 7
REMARK VINA RESULT:    -6.869      4.043      8.269
REMARK INTER + INTRA:         -11.219
REMARK INTER:                  -8.853
REMARK INTRA:                  -2.365
REMARK UNBOUND:                -1.136
REMARK  Name = 
REMARK  9 active torsions:
REMARK  status: ('A' for Active; 'I' for Inactive)
REMARK    1  A    between atoms: C_1  and  O_2
REMARK    2  A    between atoms: O_2  and  C_3
REMARK    3  A    between atoms: C_10  and  C_11
REMARK    4  A    between atoms: N_13  and  C_14
REMARK    5  A    between atoms: C_14  and  C_15
REMARK    6  A    between atoms: C_18  and  C_19
REMARK    7  A    between atoms: C_19  and  N_20
REMARK    8  A    between atoms: N_20  and  C_21
REMARK    9  A    between atoms: C_21  and  C_22
REMARK                            x       y       z     vdW  Elec       q    Type
REMARK                         _______ _______ _______ _____ _____    ______ ____
ROOT
ATOM      1  C   UNL     1      48.899   8.246  15.856  0.00  0.00    +0.000 A 
ATOM      2  C   UNL     1      48.234   8.760  16.977  0.00  0.00    +0.000 A 
ATOM      3  C   UNL     1      48.644   8.416  18.274  0.00  0.00    +0.000 A 
ATOM      4  C   UNL     1      49.740   7.565  18.484  0.00  0.00    +0.000 A 
ATOM      5  C   UNL     1      50.449   7.115  17.361  0.00  0.00    +0.000 A 
ATOM      6  C   UNL     1      50.035   7.453  16.064  0.00  0.00    +0.000 A 
ENDROOT
BRANCH   1   7
ATOM      7  C   UNL     1      48.400   8.535  14.458  0.00  0.00    +0.000 C 
BRANCH   7  10
ATOM      8  C   UNL     1      47.743   6.467  13.275  0.00  0.00    +0.000 C 
ATOM      9  O   UNL     1      48.902   6.247  12.922  0.00  0.00    +0.000 OA
ATOM     10  N   UNL     1      47.425   7.567  14.023  0.00  0.00    +0.000 N 
ATOM     11  H   UNL     1      46.465   7.737  14.283  0.00  0.00    +0.000 HD
BRANCH   8  19
ATOM     12  C   UNL     1      44.630   6.966  11.905  0.00  0.00    +0.000 A 
ATOM     13  N   UNL     1      43.399   6.882  11.360  0.00  0.00    +0.000 NA
ATOM     14  C   UNL     1      42.849   5.672  11.245  0.00  0.00    +0.000 A 
ATOM     15  N   UNL     1      43.384   4.510  11.615  0.00  0.00    +0.000 NA
ATOM     16  C   UNL     1      44.614   4.639  12.138  0.00  0.00    +0.000 A 
ATOM     17  S   UNL     1      45.450   3.260  12.670  0.00  0.00    +0.000 S 
ATOM     18  C   UNL     1      46.792   4.193  13.141  0.00  0.00    +0.000 A 
ATOM     19  C   UNL     1      46.642   5.556  12.909  0.00  0.00    +0.000 A 
ATOM     20  C   UNL     1      45.330   5.818  12.317  0.00  0.00    +0.000 A 
BRANCH  12  22
ATOM     21  C   UNL     1      44.480   9.221  11.312  0.00  0.00    +0.000 C 
ATOM     22  O   UNL     1      45.204   8.212  12.009  0.00  0.00    +0.000 OA
ENDBRANCH  12  22
ENDBRANCH   8  19
ENDBRANCH   7  10
ENDBRANCH   1   7
BRANCH   4  23
ATOM     23  C   UNL     1      50.152   7.154  19.886  0.00  0.00    +0.000 C 
BRANCH  23  24
ATOM     24  N   UNL     1      50.260   5.699  20.006  0.00  0.00    +0.000 NA
ATOM     25  H   UNL     1      50.825   5.477  20.824  0.00  0.00    +0.000 HD
BRANCH  24  26
ATOM     26  C   UNL     1      48.954   5.053  20.145  0.00  0.00    +0.000 C 
BRANCH  26  27
ATOM     27  C   UNL     1      48.551   4.383  18.848  0.00  0.00    +0.000 A 
ATOM     28  C   UNL     1      47.406   4.810  18.151  0.00  0.00    +0.000 A 
ATOM     29  C   UNL     1      47.055   4.238  16.924  0.00  0.00    +0.000 A 
ATOM     30  C   UNL     1      47.836   3.219  16.385  0.00  0.00    +0.000 A 
ATOM     31  C   UNL     1      48.951   2.771  17.086  0.00  0.00    +0.000 A 
ATOM     32  F   UNL     1      49.698   1.785  16.571  0.00  0.00    +0.000 F 
ATOM     33  C   UNL     1      49.311   3.337  18.307  0.00  0.00    +0.000 A 
ENDBRANCH  26  27
ENDBRANCH  24  26
ENDBRANCH  23  24
ENDBRANCH   4  23
TORSDOF 8
ENDMDL
MODEL 8
REMARK VINA RESULT:    -6.639      4.089      8.281
REMARK INTER + INTRA:         -10.880
REMARK INTER:                  -8.970
REMARK INTRA:                  -1.910
REMARK UNBOUND:                -1.136
REMARK  Name = 
REMARK  9 active torsions:
REMARK  status: ('A' for Active; 'I' for Inactive)
REMARK    1  A    between atoms: C_1  and  O_2
REMARK    2  A    between atoms: O_2  and  C_3
REMARK    3  A    between atoms: C_10  and  C_11
REMARK    4  A    between atoms: N_13  and  C_14
REMARK    5  A    between atoms: C_14  and  C_15
REMARK    6  A    between atoms: C_18  and  C_19
REMARK    7  A    between atoms: C_19  and  N_20
REMARK    8  A    between atoms: N_20  and  C_21
REMARK    9  A    between atoms: C_21  and  C_22
REMARK                            x       y       z     vdW  Elec       q    Type
REMARK                         _______ _______ _______ _____ _____    ______ ____
ROOT
ATOM      1  C   UNL     1      48.338   8.781  15.699  0.00  0.00    +0.000 A 
ATOM      2  C   UNL     1      47.863   9.566  16.758  0.00  0.00    +0.000 A 
ATOM      3  C   UNL     1      48.040   9.160  18.089  0.00  0.00    +0.000 A 
ATOM      4  C   UNL     1      48.714   7.968  18.396  0.00  0.00    +0.000 A 
ATOM      5  C   UNL     1      49.255   7.224  17.337  0.00  0.00    +0.000 A 
ATOM      6  C   UNL     1      49.071   7.627  16.006  0.00  0.00    +0.000 A 
ENDROOT
BRANCH   1   7
ATOM      7  C   UNL     1      48.063   9.166  14.263  0.00  0.00    +0.000 C 
BRANCH   7  10
ATOM      8  C   UNL     1      47.070   7.420  12.824  0.00  0.00    +0.000 C 
ATOM      9  O   UNL     1      48.176   7.054  12.426  0.00  0.00    +0.000 OA
ATOM     10  N   UNL     1      46.939   8.446  13.718  0.00  0.00    +0.000 N 
ATOM     11  H   UNL     1      46.021   8.741  14.014  0.00  0.00    +0.000 HD
BRANCH   8  19
ATOM     12  C   UNL     1      45.912   4.187  12.971  0.00  0.00    +0.000 A 
ATOM     13  N   UNL     1      45.221   3.028  12.923  0.00  0.00    +0.000 NA
ATOM     14  C   UNL     1      44.021   3.040  12.342  0.00  0.00    +0.000 A 
ATOM     15  N   UNL     1      43.409   4.086  11.789  0.00  0.00    +0.000 NA
ATOM     16  C   UNL     1      44.124   5.219  11.872  0.00  0.00    +0.000 A 
ATOM     17  S   UNL     1      43.501   6.656  11.215  0.00  0.00    +0.000 S 
ATOM     18  C   UNL     1      44.878   7.532  11.694  0.00  0.00    +0.000 A 
ATOM     19  C   UNL     1      45.832   6.767  12.358  0.00  0.00    +0.000 A 
ATOM     20  C   UNL     1      45.378   5.379  12.451  0.00  0.00    +0.000 A 
BRANCH  12  22
ATOM     21  C   UNL     1      47.071   4.415  14.986  0.00  0.00    +0.000 C 
ATOM     22  O   UNL     1      47.143   4.177  13.584  0.00  0.00    +0.000 OA
ENDBRANCH  12  22
ENDBRANCH   8  19
ENDBRANCH   7  10
ENDBRANCH   1   7
BRANCH   4  23
ATOM     23  C   UNL     1      48.863   7.503  19.834  0.00  0.00    +0.000 C 
BRANCH  23  24
ATOM     24  N   UNL     1      48.104   6.275  20.079  0.00  0.00    +0.000 NA
ATOM     25  H   UNL     1      47.667   5.978  19.209  0.00  0.00    +0.000 HD
BRANCH  24  26
ATOM     26  C   UNL     1      48.951   5.188  20.575  0.00  0.00    +0.000 C 
BRANCH  26  27
ATOM     27  C   UNL     1      49.554   4.415  19.420  0.00  0.00    +0.000 A 
ATOM     28  C   UNL     1      50.935   4.479  19.163  0.00  0.00    +0.000 A 
ATOM     29  C   UNL     1      51.512   3.726  18.136  0.00  0.00    +0.000 A 
ATOM     30  C   UNL     1      50.712   2.908  17.342  0.00  0.00    +0.000 A 
ATOM     31  C   UNL     1      49.342   2.865  17.571  0.00  0.00    +0.000 A 
ATOM     32  F   UNL     1      48.570   2.085  16.802  0.00  0.00    +0.000 F 
ATOM     33  C   UNL     1      48.757   3.610  18.594  0.00  0.00    +0.000 A 
ENDBRANCH  26  27
ENDBRANCH  24  26
ENDBRANCH  23  24
ENDBRANCH   4  23
TORSDOF 8
ENDMDL
MODEL 9
REMARK VINA RESULT:    -6.446      3.863      5.406
REMARK INTER + INTRA:         -10.598
REMARK INTER:                  -9.418
REMARK INTRA:                  -1.179
REMARK UNBOUND:                -1.136
REMARK  Name = 
REMARK  9 active torsions:
REMARK  status: ('A' for Active; 'I' for Inactive)
REMARK    1  A    between atoms: C_1  and  O_2
REMARK    2  A    between atoms: O_2  and  C_3
REMARK    3  A    between atoms: C_10  and  C_11
REMARK    4  A    between atoms: N_13  and  C_14
REMARK    5  A    between atoms: C_14  and  C_15
REMARK    6  A    between atoms: C_18  and  C_19
REMARK    7  A    between atoms: C_19  and  N_20
REMARK    8  A    between atoms: N_20  and  C_21
REMARK    9  A    between atoms: C_21  and  C_22
REMARK                            x       y       z     vdW  Elec       q    Type
REMARK                         _______ _______ _______ _____ _____    ______ ____
ROOT
ATOM      1  C   UNL     1      46.941   7.828  12.768  0.00  0.00    +0.000 A 
ATOM      2  C   UNL     1      47.274   6.508  13.097  0.00  0.00    +0.000 A 
ATOM      3  C   UNL     1      46.377   5.458  12.848  0.00  0.00    +0.000 A 
ATOM      4  C   UNL     1      45.133   5.699  12.246  0.00  0.00    +0.000 A 
ATOM      5  C   UNL     1      44.836   7.010  11.848  0.00  0.00    +0.000 A 
ATOM      6  C   UNL     1      45.729   8.061  12.104  0.00  0.00    +0.000 A 
ENDROOT
BRANCH   1   7
ATOM      7  C   UNL     1      47.863   8.973  13.124  0.00  0.00    +0.000 C 
BRANCH   7  10
ATOM      8  C   UNL     1      49.941   9.213  11.808  0.00  0.00    +0.000 C 
ATOM      9  O   UNL     1      49.415  10.019  11.040  0.00  0.00    +0.000 OA
ATOM     10  N   UNL     1      49.243   8.660  12.845  0.00  0.00    +0.000 N 
ATOM     11  H   UNL     1      49.688   7.986  13.449  0.00  0.00    +0.000 HD
BRANCH   8  19
ATOM     12  C   UNL     1      52.830  10.015  13.488  0.00  0.00    +0.000 A 
ATOM     13  N   UNL     1      54.079  10.133  13.984  0.00  0.00    +0.000 NA
ATOM     14  C   UNL     1      55.053   9.442  13.391  0.00  0.00    +0.000 A 
ATOM     15  N   UNL     1      54.937   8.631  12.341  0.00  0.00    +0.000 NA
ATOM     16  C   UNL     1      53.676   8.532  11.890  0.00  0.00    +0.000 A 
ATOM     17  S   UNL     1      53.338   7.541  10.553  0.00  0.00    +0.000 S 
ATOM     18  C   UNL     1      51.683   7.928  10.620  0.00  0.00    +0.000 A 
ATOM     19  C   UNL     1      51.349   8.806  11.647  0.00  0.00    +0.000 A 
ATOM     20  C   UNL     1      52.551   9.171  12.398  0.00  0.00    +0.000 A 
BRANCH  12  22
ATOM     21  C   UNL     1      51.426  10.143  15.351  0.00  0.00    +0.000 C 
ATOM     22  O   UNL     1      51.822  10.716  14.109  0.00  0.00    +0.000 OA
ENDBRANCH  12  22
ENDBRANCH   8  19
ENDBRANCH   7  10
ENDBRANCH   1   7
BRANCH   4  23
ATOM     23  C   UNL     1      44.143   4.570  12.021  0.00  0.00    +0.000 C 
BRANCH  23  24
ATOM     24  N   UNL     1      43.880   4.366  10.595  0.00  0.00    +0.000 NA
ATOM     25  H   UNL     1      44.527   4.938  10.056  0.00  0.00    +0.000 HD
BRANCH  24  26
ATOM     26  C   UNL     1      44.041   2.967  10.195  0.00  0.00    +0.000 C 
BRANCH  26  27
ATOM     27  C   UNL     1      45.064   2.847   9.084  0.00  0.00    +0.000 A 
ATOM     28  C   UNL     1      45.515   3.992   8.403  0.00  0.00    +0.000 A 
ATOM     29  C   UNL     1      46.500   3.901   7.416  0.00  0.00    +0.000 A 
ATOM     30  C   UNL     1      47.038   2.659   7.085  0.00  0.00    +0.000 A 
ATOM     31  C   UNL     1      46.573   1.520   7.733  0.00  0.00    +0.000 A 
ATOM     32  F   UNL     1      47.085   0.325   7.409  0.00  0.00    +0.000 F 
ATOM     33  C   UNL     1      45.594   1.601   8.721  0.00  0.00    +0.000 A 
ENDBRANCH  26  27
ENDBRANCH  24  26
ENDBRANCH  23  24
ENDBRANCH   4  23
TORSDOF 8
ENDMDL
