MODEL 1
REMARK VINA RESULT:    -7.374      0.000      0.000
REMARK INTER + INTRA:          -9.255
REMARK INTER:                  -8.883
REMARK INTRA:                  -0.372
REMARK UNBOUND:                -0.372
REMARK  Name = 
REMARK  4 active torsions:
REMARK  status: ('A' for Active; 'I' for Inactive)
REMARK    1  A    between atoms: N_1  and  C_2
REMARK    2  A    between atoms: C_2  and  C_3
REMARK    3  A    between atoms: N_8  and  C_9
REMARK    4  A    between atoms: C_9  and  C_10
REMARK                            x       y       z     vdW  Elec       q    Type
REMARK                         _______ _______ _______ _____ _____    ______ ____
ROOT
ATOM      1  C   UNL     1      46.559   6.081  12.626  0.00  0.00    +0.000 A 
ATOM      2  C   UNL     1      45.775   5.248  13.423  0.00  0.00    +0.000 A 
ATOM      3  C   UNL     1      44.829   4.447  12.807  0.00  0.00    +0.000 A 
ATOM      4  N   UNL     1      44.622   4.407  11.471  0.00  0.00    +0.000 NA
ATOM      5  C   UNL     1      45.368   5.222  10.702  0.00  0.00    +0.000 A 
ATOM      6  N   UNL     1      45.254   5.199   9.311  0.00  0.00    +0.000 N 
ATOM      7  C   UNL     1      46.316   6.086  11.249  0.00  0.00    +0.000 A 
ATOM      8  H   UNL     1      44.905   6.086   8.967  0.00  0.00    +0.000 HD
ENDROOT
BRANCH   1   9
ATOM      9  C   UNL     1      47.664   6.911  13.219  0.00  0.00    +0.000 C 
BRANCH   9  10
ATOM     10  N   UNL     1      48.953   6.241  13.082  0.00  0.00    +0.000 NA
ATOM     11  H   UNL     1      48.825   5.239  13.208  0.00  0.00    +0.000 HD
ATOM     12  H   UNL     1      49.564   6.548  13.839  0.00  0.00    +0.000 HD
ENDBRANCH   9  10
ENDBRANCH   1   9
BRANCH   6  13
ATOM     13  C   UNL     1      44.567   4.057   8.730  0.00  0.00    +0.000 C 
BRANCH  13  14
ATOM     14  C   UNL     1      45.602   3.162   8.078  0.00  0.00    +0.000 A 
ATOM     15  C   UNL     1      45.727   1.825   8.497  0.00  0.00    +0.000 A 
ATOM     16  C   UNL     1      46.652   0.970   7.896  0.00  0.00    +0.000 A 
ATOM     17  C   UNL     1      47.459   1.435   6.862  0.00  0.00    +0.000 A 
ATOM     18  C   UNL     1      47.344   2.760   6.434  0.00  0.00    +0.000 A 
ATOM     19  C   UNL     1      46.422   3.620   7.038  0.00  0.00    +0.000 A 
ENDBRANCH  13  14
ENDBRANCH   6  13
TORSDOF 4
ENDMDL
MODEL 2
REMARK VINA RESULT:    -7.162      1.611      2.112
REMARK INTER + INTRA:          -8.998
REMARK INTER:                  -8.642
REMARK INTRA:                  -0.357
REMARK UNBOUND:                -0.372
REMARK  Name = 
REMARK  4 active torsions:
REMARK  status: ('A' for Active; 'I' for Inactive)
REMARK    1  A    between atoms: N_1  and  C_2
REMARK    2  A    between atoms: C_2  and  C_3
REMARK    3  A    between atoms: N_8  and  C_9
REMARK    4  A    between atoms: C_9  and  C_10
REMARK                            x       y       z     vdW  Elec       q    Type
REMARK                         _______ _______ _______ _____ _____    ______ ____
ROOT
ATOM      1  C   UNL     1      45.397   6.345  12.214  0.00  0.00    +0.000 A 
ATOM      2  C   UNL     1      45.868   5.511  13.227  0.00  0.00    +0.000 A 
ATOM      3  C   UNL     1      45.757   4.142  13.057  0.00  0.00    +0.000 A 
ATOM      4  N   UNL     1      45.230   3.554  11.959  0.00  0.00    +0.000 NA
ATOM      5  C   UNL     1      44.761   4.359  10.988  0.00  0.00    +0.000 A 
ATOM      6  N   UNL     1      44.254   3.830   9.799  0.00  0.00    +0.000 N 
ATOM      7  C   UNL     1      44.803   5.748  11.098  0.00  0.00    +0.000 A 
ATOM      8  H   UNL     1      43.268   4.045   9.705  0.00  0.00    +0.000 HD
ENDROOT
BRANCH   1   9
ATOM      9  C   UNL     1      45.567   7.838  12.294  0.00  0.00    +0.000 C 
BRANCH   9  10
ATOM     10  N   UNL     1      44.415   8.527  11.721  0.00  0.00    +0.000 NA
ATOM     11  H   UNL     1      44.352   9.462  12.119  0.00  0.00    +0.000 HD
ATOM     12  H   UNL     1      43.566   8.038  12.003  0.00  0.00    +0.000 HD
ENDBRANCH   9  10
ENDBRANCH   1   9
BRANCH   6  13
ATOM     13  C   UNL     1      44.558   2.436   9.522  0.00  0.00    +0.000 C 
BRANCH  13  14
ATOM     14  C   UNL     1      45.560   2.385   8.386  0.00  0.00    +0.000 A 
ATOM     15  C   UNL     1      45.768   3.528   7.592  0.00  0.00    +0.000 A 
ATOM     16  C   UNL     1      46.704   3.519   6.557  0.00  0.00    +0.000 A 
ATOM     17  C   UNL     1      47.451   2.372   6.305  0.00  0.00    +0.000 A 
ATOM     18  C   UNL     1      47.256   1.231   7.086  0.00  0.00    +0.000 A 
ATOM     19  C   UNL     1      46.316   1.236   8.121  0.00  0.00    +0.000 A 
ENDBRANCH  13  14
ENDBRANCH   6  13
TORSDOF 4
ENDMDL
MODEL 3
REMARK VINA RESULT:    -7.000      1.994      5.835
REMARK INTER + INTRA:          -8.803
REMARK INTER:                  -8.641
REMARK INTRA:                  -0.162
REMARK UNBOUND:                -0.372
REMARK  Name = 
REMARK  4 active torsions:
REMARK  status: ('A' for Active; 'I' for Inactive)
REMARK    1  A    between atoms: N_1  and  C_2
REMARK    2  A    between atoms: C_2  and  C_3
REMARK    3  A    between atoms: N_8  and  C_9
REMARK    4  A    between atoms: C_9  and  C_10
REMARK                            x       y       z     vdW  Elec       q    Type
REMARK                         _______ _______ _______ _____ _____    ______ ____
ROOT
ATOM      1  C   UNL     1      46.512   2.152   7.711  0.00  0.00    +0.000 A 
ATOM      2  C   UNL     1      46.459   3.469   7.259  0.00  0.00    +0.000 A 
ATOM      3  C   UNL     1      45.615   4.354   7.908  0.00  0.00    +0.000 A 
ATOM      4  N   UNL     1      44.841   4.026   8.967  0.00  0.00    +0.000 NA
ATOM      5  C   UNL     1      44.880   2.750   9.394  0.00  0.00    +0.000 A 
ATOM      6  N   UNL     1      44.154   2.347  10.517  0.00  0.00    +0.000 N 
ATOM      7  C   UNL     1      45.677   1.790   8.773  0.00  0.00    +0.000 A 
ATOM      8  H   UNL     1      43.446   1.669  10.259  0.00  0.00    +0.000 HD
ENDROOT
BRANCH   1   9
ATOM      9  C   UNL     1      47.471   1.162   7.110  0.00  0.00    +0.000 C 
BRANCH   9  10
ATOM     10  N   UNL     1      48.324   1.799   6.113  0.00  0.00    +0.000 NA
ATOM     11  H   UNL     1      49.106   2.253   6.581  0.00  0.00    +0.000 HD
ATOM     12  H   UNL     1      47.796   2.541   5.654  0.00  0.00    +0.000 HD
ENDBRANCH   9  10
ENDBRANCH   1   9
BRANCH   6  13
ATOM     13  C   UNL     1      43.642   3.400  11.378  0.00  0.00    +0.000 C 
BRANCH  13  14
ATOM     14  C   UNL     1      44.808   3.998  12.141  0.00  0.00    +0.000 A 
ATOM     15  C   UNL     1      44.956   5.396  12.199  0.00  0.00    +0.000 A 
ATOM     16  C   UNL     1      46.003   5.975  12.917  0.00  0.00    +0.000 A 
ATOM     17  C   UNL     1      46.912   5.168  13.594  0.00  0.00    +0.000 A 
ATOM     18  C   UNL     1      46.777   3.778  13.546  0.00  0.00    +0.000 A 
ATOM     19  C   UNL     1      45.732   3.195  12.824  0.00  0.00    +0.000 A 
ENDBRANCH  13  14
ENDBRANCH   6  13
TORSDOF 4
ENDMDL
MODEL 4
REMARK VINA RESULT:    -6.511      1.632      2.465
REMARK INTER + INTRA:          -8.214
REMARK INTER:                  -7.932
REMARK INTRA:                  -0.282
REMARK UNBOUND:                -0.372
REMARK  Name = 
REMARK  4 active torsions:
REMARK  status: ('A' for Active; 'I' for Inactive)
REMARK    1  A    between atoms: N_1  and  C_2
REMARK    2  A    between atoms: C_2  and  C_3
REMARK    3  A    between atoms: N_8  and  C_9
REMARK    4  A    between atoms: C_9  and  C_10
REMARK                            x       y       z     vdW  Elec       q    Type
REMARK                         _______ _______ _______ _____ _____    ______ ____
ROOT
ATOM      1  C   UNL     1      46.731   4.732  14.150  0.00  0.00    +0.000 A 
ATOM      2  C   UNL     1      46.828   5.991  13.561  0.00  0.00    +0.000 A 
ATOM      3  C   UNL     1      46.389   6.144  12.258  0.00  0.00    +0.000 A 
ATOM      4  N   UNL     1      45.854   5.148  11.515  0.00  0.00    +0.000 NA
ATOM      5  C   UNL     1      45.774   3.928  12.078  0.00  0.00    +0.000 A 
ATOM      6  N   UNL     1      45.182   2.861  11.399  0.00  0.00    +0.000 N 
ATOM      7  C   UNL     1      46.228   3.683  13.374  0.00  0.00    +0.000 A 
ATOM      8  H   UNL     1      45.865   2.134  11.213  0.00  0.00    +0.000 HD
ENDROOT
BRANCH   1   9
ATOM      9  C   UNL     1      47.107   4.516  15.590  0.00  0.00    +0.000 C 
BRANCH   9  10
ATOM     10  N   UNL     1      47.731   3.210  15.778  0.00  0.00    +0.000 NA
ATOM     11  H   UNL     1      48.667   3.337  16.159  0.00  0.00    +0.000 HD
ATOM     12  H   UNL     1      47.852   2.770  14.866  0.00  0.00    +0.000 HD
ENDBRANCH   9  10
ENDBRANCH   1   9
BRANCH   6  13
ATOM     13  C   UNL     1      44.379   3.193  10.234  0.00  0.00    +0.000 C 
BRANCH  13  14
ATOM     14  C   UNL     1      45.201   2.905   8.993  0.00  0.00    +0.000 A 
ATOM     15  C   UNL     1      45.510   3.953   8.106  0.00  0.00    +0.000 A 
ATOM     16  C   UNL     1      46.287   3.724   6.971  0.00  0.00    +0.000 A 
ATOM     17  C   UNL     1      46.775   2.446   6.709  0.00  0.00    +0.000 A 
ATOM     18  C   UNL     1      46.478   1.397   7.582  0.00  0.00    +0.000 A 
ATOM     19  C   UNL     1      45.695   1.624   8.717  0.00  0.00    +0.000 A 
ENDBRANCH  13  14
ENDBRANCH   6  13
TORSDOF 4
ENDMDL
MODEL 5
REMARK VINA RESULT:    -6.458      1.927      5.980
REMARK INTER + INTRA:          -8.151
REMARK INTER:                  -7.948
REMARK INTRA:                  -0.203
REMARK UNBOUND:                -0.372
REMARK  Name = 
REMARK  4 active torsions:
REMARK  status: ('A' for Active; 'I' for Inactive)
REMARK    1  A    between atoms: N_1  and  C_2
REMARK    2  A    between atoms: C_2  and  C_3
REMARK    3  A    between atoms: N_8  and  C_9
REMARK    4  A    between atoms: C_9  and  C_10
REMARK                            x       y       z     vdW  Elec       q    Type
REMARK                         _______ _______ _______ _____ _____    ______ ____
ROOT
ATOM      1  C   UNL     1      46.610   2.594   6.523  0.00  0.00    +0.000 A 
ATOM      2  C   UNL     1      46.585   1.382   7.211  0.00  0.00    +0.000 A 
ATOM      3  C   UNL     1      46.009   1.351   8.469  0.00  0.00    +0.000 A 
ATOM      4  N   UNL     1      45.453   2.424   9.076  0.00  0.00    +0.000 NA
ATOM      5  C   UNL     1      45.491   3.598   8.419  0.00  0.00    +0.000 A 
ATOM      6  N   UNL     1      44.888   4.740   8.953  0.00  0.00    +0.000 N 
ATOM      7  C   UNL     1      46.085   3.721   7.164  0.00  0.00    +0.000 A 
ATOM      8  H   UNL     1      45.584   5.449   9.154  0.00  0.00    +0.000 HD
ENDROOT
BRANCH   1   9
ATOM      9  C   UNL     1      47.140   2.680   5.118  0.00  0.00    +0.000 C 
BRANCH   9  10
ATOM     10  N   UNL     1      48.493   2.142   5.035  0.00  0.00    +0.000 NA
ATOM     11  H   UNL     1      49.046   2.720   4.405  0.00  0.00    +0.000 HD
ATOM     12  H   UNL     1      48.453   1.215   4.611  0.00  0.00    +0.000 HD
ENDBRANCH   9  10
ENDBRANCH   1   9
BRANCH   6  13
ATOM     13  C   UNL     1      43.956   4.534  10.049  0.00  0.00    +0.000 C 
BRANCH  13  14
ATOM     14  C   UNL     1      44.658   4.897  11.343  0.00  0.00    +0.000 A 
ATOM     15  C   UNL     1      45.168   3.877  12.166  0.00  0.00    +0.000 A 
ATOM     16  C   UNL     1      45.843   4.182  13.349  0.00  0.00    +0.000 A 
ATOM     17  C   UNL     1      46.026   5.510  13.722  0.00  0.00    +0.000 A 
ATOM     18  C   UNL     1      45.527   6.533  12.913  0.00  0.00    +0.000 A 
ATOM     19  C   UNL     1      44.846   6.230  11.731  0.00  0.00    +0.000 A 
ENDBRANCH  13  14
ENDBRANCH   6  13
TORSDOF 4
ENDMDL
MODEL 6
REMARK VINA RESULT:    -5.981      4.135      6.137
REMARK INTER + INTRA:          -7.576
REMARK INTER:                  -7.333
REMARK INTRA:                  -0.243
REMARK UNBOUND:                -0.372
REMARK  Name = 
REMARK  4 active torsions:
REMARK  status: ('A' for Active; 'I' for Inactive)
REMARK    1  A    between atoms: N_1  and  C_2
REMARK    2  A    between atoms: C_2  and  C_3
REMARK    3  A    between atoms: N_8  and  C_9
REMARK    4  A    between atoms: C_9  and  C_10
REMARK                            x       y       z     vdW  Elec       q    Type
REMARK                         _______ _______ _______ _____ _____    ______ ____
ROOT
ATOM      1  C   UNL     1      48.393   3.941  18.082  0.00  0.00    +0.000 A 
ATOM      2  C   UNL     1      49.001   2.745  17.706  0.00  0.00    +0.000 A 
ATOM      3  C   UNL     1      48.777   2.267  16.427  0.00  0.00    +0.000 A 
ATOM      4  N   UNL     1      48.011   2.894  15.505  0.00  0.00    +0.000 NA
ATOM      5  C   UNL     1      47.411   4.041  15.873  0.00  0.00    +0.000 A 
ATOM      6  N   UNL     1      46.651   4.779  14.963  0.00  0.00    +0.000 N 
ATOM      7  C   UNL     1      47.558   4.571  17.155  0.00  0.00    +0.000 A 
ATOM      8  H   UNL     1      45.680   4.811  15.253  0.00  0.00    +0.000 HD
ENDROOT
BRANCH   1   9
ATOM      9  C   UNL     1      48.664   4.562  19.425  0.00  0.00    +0.000 C 
BRANCH   9  10
ATOM     10  N   UNL     1      48.390   3.619  20.503  0.00  0.00    +0.000 NA
ATOM     11  H   UNL     1      49.192   3.004  20.623  0.00  0.00    +0.000 HD
ATOM     12  H   UNL     1      47.611   3.021  20.227  0.00  0.00    +0.000 HD
ENDBRANCH   9  10
ENDBRANCH   1   9
BRANCH   6  13
ATOM     13  C   UNL     1      46.810   4.444  13.557  0.00  0.00    +0.000 C 
BRANCH  13  14
ATOM     14  C   UNL     1      45.438   4.445  12.911  0.00  0.00    +0.000 A 
ATOM     15  C   UNL     1      44.996   3.302  12.219  0.00  0.00    +0.000 A 
ATOM     16  C   UNL     1      43.728   3.263  11.638  0.00  0.00    +0.000 A 
ATOM     17  C   UNL     1      42.880   4.361  11.748  0.00  0.00    +0.000 A 
ATOM     18  C   UNL     1      43.305   5.501  12.433  0.00  0.00    +0.000 A 
ATOM     19  C   UNL     1      44.576   5.545  13.012  0.00  0.00    +0.000 A 
ENDBRANCH  13  14
ENDBRANCH   6  13
TORSDOF 4
ENDMDL
MODEL 7
REMARK VINA RESULT:    -5.793      2.698      4.058
REMARK INTER + INTRA:          -7.350
REMARK INTER:                  -7.095
REMARK INTRA:                  -0.256
REMARK UNBOUND:                -0.372
REMARK  Name = 
REMARK  4 active torsions:
REMARK  status: ('A' for Active; 'I' for Inactive)
REMARK    1  A    between atoms: N_1  and  C_2
REMARK    2  A    between atoms: C_2  and  C_3
REMARK    3  A    between atoms: N_8  and  C_9
REMARK    4  A    between atoms: C_9  and  C_10
REMARK                            x       y       z     vdW  Elec       q    Type
REMARK                         _______ _______ _______ _____ _____    ______ ____
ROOT
ATOM      1  C   UNL     1      47.753   4.599  16.334  0.00  0.00    +0.000 A 
ATOM      2  C   UNL     1      48.475   5.778  16.153  0.00  0.00    +0.000 A 
ATOM      3  C   UNL     1      48.363   6.439  14.943  0.00  0.00    +0.000 A 
ATOM      4  N   UNL     1      47.583   6.022  13.920  0.00  0.00    +0.000 NA
ATOM      5  C   UNL     1      46.898   4.876  14.087  0.00  0.00    +0.000 A 
ATOM      6  N   UNL     1      46.027   4.408  13.101  0.00  0.00    +0.000 N 
ATOM      7  C   UNL     1      46.985   4.132  15.263  0.00  0.00    +0.000 A 
ATOM      8  H   UNL     1      46.354   3.525  12.727  0.00  0.00    +0.000 HD
ENDROOT
BRANCH   1   9
ATOM      9  C   UNL     1      47.760   3.877  17.654  0.00  0.00    +0.000 C 
BRANCH   9  10
ATOM     10  N   UNL     1      46.663   2.918  17.731  0.00  0.00    +0.000 NA
ATOM     11  H   UNL     1      45.817   3.400  18.029  0.00  0.00    +0.000 HD
ATOM     12  H   UNL     1      46.874   2.236  18.459  0.00  0.00    +0.000 HD
ENDBRANCH   9  10
ENDBRANCH   1   9
BRANCH   6  13
ATOM     13  C   UNL     1      45.646   5.354  12.065  0.00  0.00    +0.000 C 
BRANCH  13  14
ATOM     14  C   UNL     1      45.343   4.575  10.800  0.00  0.00    +0.000 A 
ATOM     15  C   UNL     1      44.724   3.315  10.891  0.00  0.00    +0.000 A 
ATOM     16  C   UNL     1      44.409   2.587   9.743  0.00  0.00    +0.000 A 
ATOM     17  C   UNL     1      44.698   3.112   8.487  0.00  0.00    +0.000 A 
ATOM     18  C   UNL     1      45.310   4.363   8.381  0.00  0.00    +0.000 A 
ATOM     19  C   UNL     1      45.632   5.091   9.530  0.00  0.00    +0.000 A 
ENDBRANCH  13  14
ENDBRANCH   6  13
TORSDOF 4
ENDMDL
MODEL 8
REMARK VINA RESULT:    -5.545      3.459      7.474
REMARK INTER + INTRA:          -7.051
REMARK INTER:                  -6.795
REMARK INTRA:                  -0.255
REMARK UNBOUND:                -0.372
REMARK  Name = 
REMARK  4 active torsions:
REMARK  status: ('A' for Active; 'I' for Inactive)
REMARK    1  A    between atoms: N_1  and  C_2
REMARK    2  A    between atoms: C_2  and  C_3
REMARK    3  A    between atoms: N_8  and  C_9
REMARK    4  A    between atoms: C_9  and  C_10
REMARK                            x       y       z     vdW  Elec       q    Type
REMARK                         _______ _______ _______ _____ _____    ______ ____
ROOT
ATOM      1  C   UNL     1      44.805   3.962  11.253  0.00  0.00    +0.000 A 
ATOM      2  C   UNL     1      45.255   5.075  10.545  0.00  0.00    +0.000 A 
ATOM      3  C   UNL     1      46.060   5.990  11.199  0.00  0.00    +0.000 A 
ATOM      4  N   UNL     1      46.454   5.870  12.488  0.00  0.00    +0.000 NA
ATOM      5  C   UNL     1      46.007   4.804  13.177  0.00  0.00    +0.000 A 
ATOM      6  N   UNL     1      46.415   4.577  14.493  0.00  0.00    +0.000 N 
ATOM      7  C   UNL     1      45.164   3.855  12.600  0.00  0.00    +0.000 A 
ATOM      8  H   UNL     1      45.625   4.635  15.126  0.00  0.00    +0.000 HD
ENDROOT
BRANCH   1   9
ATOM      9  C   UNL     1      44.001   2.884  10.579  0.00  0.00    +0.000 C 
BRANCH   9  10
ATOM     10  N   UNL     1      43.062   2.270  11.513  0.00  0.00    +0.000 NA
ATOM     11  H   UNL     1      42.147   2.202  11.071  0.00  0.00    +0.000 HD
ATOM     12  H   UNL     1      42.946   2.889  12.316  0.00  0.00    +0.000 HD
ENDBRANCH   9  10
ENDBRANCH   1   9
BRANCH   6  13
ATOM     13  C   UNL     1      47.568   5.329  14.959  0.00  0.00    +0.000 C 
BRANCH  13  14
ATOM     14  C   UNL     1      47.916   4.850  16.354  0.00  0.00    +0.000 A 
ATOM     15  C   UNL     1      47.664   3.512  16.712  0.00  0.00    +0.000 A 
ATOM     16  C   UNL     1      47.999   3.035  17.979  0.00  0.00    +0.000 A 
ATOM     17  C   UNL     1      48.598   3.884  18.905  0.00  0.00    +0.000 A 
ATOM     18  C   UNL     1      48.856   5.213  18.564  0.00  0.00    +0.000 A 
ATOM     19  C   UNL     1      48.517   5.695  17.296  0.00  0.00    +0.000 A 
ENDBRANCH  13  14
ENDBRANCH   6  13
TORSDOF 4
ENDMDL
MODEL 9
REMARK VINA RESULT:    -5.318      1.797      3.122
REMARK INTER + INTRA:          -6.778
REMARK INTER:                  -6.421
REMARK INTRA:                  -0.357
REMARK UNBOUND:                -0.372
REMARK  Name = 
REMARK  4 active torsions:
REMARK  status: ('A' for Active; 'I' for Inactive)
REMARK    1  A    between atoms: N_1  and  C_2
REMARK    2  A    between atoms: C_2  and  C_3
REMARK    3  A    between atoms: N_8  and  C_9
REMARK    4  A    between atoms: C_9  and  C_10
REMARK                            x       y       z     vdW  Elec       q    Type
REMARK                         _______ _______ _______ _____ _____    ______ ____
ROOT
ATOM      1  C   UNL     1      49.081   7.688  12.188  0.00  0.00    +0.000 A 
ATOM      2  C   UNL     1      49.129   7.076  13.439  0.00  0.00    +0.000 A 
ATOM      3  C   UNL     1      48.051   6.304  13.836  0.00  0.00    +0.000 A 
ATOM      4  N   UNL     1      46.950   6.091  13.080  0.00  0.00    +0.000 NA
ATOM      5  C   UNL     1      46.896   6.695  11.878  0.00  0.00    +0.000 A 
ATOM      6  N   UNL     1      45.820   6.479  11.014  0.00  0.00    +0.000 N 
ATOM      7  C   UNL     1      47.925   7.517  11.420  0.00  0.00    +0.000 A 
ATOM      8  H   UNL     1      45.306   7.340  10.864  0.00  0.00    +0.000 HD
ENDROOT
BRANCH   1   9
ATOM      9  C   UNL     1      50.253   8.467  11.657  0.00  0.00    +0.000 C 
BRANCH   9  10
ATOM     10  N   UNL     1      51.500   7.737  11.857  0.00  0.00    +0.000 NA
ATOM     11  H   UNL     1      51.458   7.237  12.744  0.00  0.00    +0.000 HD
ATOM     12  H   UNL     1      52.263   8.408  11.944  0.00  0.00    +0.000 HD
ENDBRANCH   9  10
ENDBRANCH   1   9
BRANCH   6  13
ATOM     13  C   UNL     1      44.957   5.349  11.314  0.00  0.00    +0.000 C 
BRANCH  13  14
ATOM     14  C   UNL     1      45.047   4.365  10.164  0.00  0.00    +0.000 A 
ATOM     15  C   UNL     1      45.625   4.770   8.947  0.00  0.00    +0.000 A 
ATOM     16  C   UNL     1      45.746   3.878   7.881  0.00  0.00    +0.000 A 
ATOM     17  C   UNL     1      45.300   2.567   8.018  0.00  0.00    +0.000 A 
ATOM     18  C   UNL     1      44.727   2.150   9.221  0.00  0.00    +0.000 A 
ATOM     19  C   UNL     1      44.600   3.043  10.289  0.00  0.00    +0.000 A 
ENDBRANCH  13  14
ENDBRANCH   6  13
TORSDOF 4
ENDMDL
