MODEL 1
REMARK VINA RESULT:    -6.996      0.000      0.000
REMARK INTER + INTRA:          -9.647
REMARK INTER:                  -9.040
REMARK INTRA:                  -0.607
REMARK UNBOUND:                -0.607
REMARK  Name = 
REMARK  6 active torsions:
REMARK  status: ('A' for Active; 'I' for Inactive)
REMARK    1  A    between atoms: C_1  and  C_2
REMARK    2  A    between atoms: N_4  and  C_5
REMARK    3  A    between atoms: C_5  and  C_6
REMARK    4  A    between atoms: C_6  and  C_7
REMARK    5  A    between atoms: C_10  and  C_11
REMARK    6  A    between atoms: C_11  and  N_12
REMARK                            x       y       z     vdW  Elec       q    Type
REMARK                         _______ _______ _______ _____ _____    ______ ____
ROOT
ATOM      1  C   UNL     1      44.876   3.456  10.279  0.00  0.00    +0.000 A 
ATOM      2  C   UNL     1      44.945   3.228  11.658  0.00  0.00    +0.000 A 
ATOM      3  C   UNL     1      45.253   4.263  12.545  0.00  0.00    +0.000 A 
ATOM      4  C   UNL     1      45.523   5.550  12.075  0.00  0.00    +0.000 A 
ATOM      5  C   UNL     1      45.474   5.781  10.694  0.00  0.00    +0.000 A 
ATOM      6  C   UNL     1      45.156   4.747   9.808  0.00  0.00    +0.000 A 
ENDROOT
BRANCH   1   7
ATOM      7  C   UNL     1      44.579   2.347   9.289  0.00  0.00    +0.000 C 
BRANCH   7   8
ATOM      8  C   UNL     1      45.813   1.752   8.602  0.00  0.00    +0.000 C 
BRANCH   8  12
ATOM      9  C   UNL     1      47.359   2.845   5.331  0.00  0.00    +0.000 C 
ATOM     10  C   UNL     1      47.214   2.033   6.587  0.00  0.00    +0.000 C 
ATOM     11  O   UNL     1      48.030   1.184   6.926  0.00  0.00    +0.000 OA
ATOM     12  N   UNL     1      46.091   2.353   7.312  0.00  0.00    +0.000 N 
ATOM     13  H   UNL     1      45.447   3.047   6.953  0.00  0.00    +0.000 HD
ENDBRANCH   8  12
ENDBRANCH   7   8
ENDBRANCH   1   7
BRANCH   4  14
ATOM     14  C   UNL     1      45.875   6.656  13.037  0.00  0.00    +0.000 C 
BRANCH  14  15
ATOM     15  N   UNL     1      47.101   7.346  12.652  0.00  0.00    +0.000 N 
ATOM     16  C   UNL     1      48.334   6.741  12.587  0.00  0.00    +0.000 A 
ATOM     17  C   UNL     1      49.238   7.662  12.112  0.00  0.00    +0.000 A 
ATOM     18  C   UNL     1      48.534   8.871  11.868  0.00  0.00    +0.000 A 
ATOM     19  C   UNL     1      48.908  10.130  11.377  0.00  0.00    +0.000 A 
ATOM     20  C   UNL     1      47.905  11.080  11.273  0.00  0.00    +0.000 A 
ATOM     21  N   UNL     1      46.615  10.875  11.614  0.00  0.00    +0.000 NA
ATOM     22  C   UNL     1      46.246   9.664  12.089  0.00  0.00    +0.000 A 
ATOM     23  C   UNL     1      47.198   8.655  12.216  0.00  0.00    +0.000 A 
ENDBRANCH  14  15
ENDBRANCH   4  14
TORSDOF 5
ENDMDL
MODEL 2
REMARK VINA RESULT:    -6.869      1.289      2.393
REMARK INTER + INTRA:          -9.484
REMARK INTER:                  -9.036
REMARK INTRA:                  -0.447
REMARK UNBOUND:                -0.607
REMARK  Name = 
REMARK  6 active torsions:
REMARK  status: ('A' for Active; 'I' for Inactive)
REMARK    1  A    between atoms: C_1  and  C_2
REMARK    2  A    between atoms: N_4  and  C_5
REMARK    3  A    between atoms: C_5  and  C_6
REMARK    4  A    between atoms: C_6  and  C_7
REMARK    5  A    between atoms: C_10  and  C_11
REMARK    6  A    between atoms: C_11  and  N_12
REMARK                            x       y       z     vdW  Elec       q    Type
REMARK                         _______ _______ _______ _____ _____    ______ ____
ROOT
ATOM      1  C   UNL     1      44.582   3.241  10.019  0.00  0.00    +0.000 A 
ATOM      2  C   UNL     1      45.139   4.493   9.729  0.00  0.00    +0.000 A 
ATOM      3  C   UNL     1      45.144   5.517  10.680  0.00  0.00    +0.000 A 
ATOM      4  C   UNL     1      44.571   5.325  11.940  0.00  0.00    +0.000 A 
ATOM      5  C   UNL     1      43.996   4.081  12.230  0.00  0.00    +0.000 A 
ATOM      6  C   UNL     1      44.000   3.053  11.281  0.00  0.00    +0.000 A 
ENDROOT
BRANCH   1   7
ATOM      7  C   UNL     1      44.532   2.122   8.998  0.00  0.00    +0.000 C 
BRANCH   7   8
ATOM      8  C   UNL     1      45.898   1.685   8.456  0.00  0.00    +0.000 C 
BRANCH   8  12
ATOM      9  C   UNL     1      47.517   2.732   5.206  0.00  0.00    +0.000 C 
ATOM     10  C   UNL     1      47.386   1.997   6.510  0.00  0.00    +0.000 C 
ATOM     11  O   UNL     1      48.273   1.280   6.960  0.00  0.00    +0.000 OA
ATOM     12  N   UNL     1      46.187   2.225   7.143  0.00  0.00    +0.000 N 
ATOM     13  H   UNL     1      45.491   2.807   6.694  0.00  0.00    +0.000 HD
ENDBRANCH   8  12
ENDBRANCH   7   8
ENDBRANCH   1   7
BRANCH   4  14
ATOM     14  C   UNL     1      44.562   6.442  12.952  0.00  0.00    +0.000 C 
BRANCH  14  15
ATOM     15  N   UNL     1      45.591   7.439  12.675  0.00  0.00    +0.000 N 
ATOM     16  C   UNL     1      45.328   8.694  12.177  0.00  0.00    +0.000 A 
ATOM     17  C   UNL     1      46.514   9.388  12.121  0.00  0.00    +0.000 A 
ATOM     18  C   UNL     1      47.538   8.533  12.610  0.00  0.00    +0.000 A 
ATOM     19  C   UNL     1      48.918   8.684  12.803  0.00  0.00    +0.000 A 
ATOM     20  C   UNL     1      49.596   7.594  13.324  0.00  0.00    +0.000 A 
ATOM     21  N   UNL     1      49.022   6.415  13.647  0.00  0.00    +0.000 NA
ATOM     22  C   UNL     1      47.691   6.261  13.463  0.00  0.00    +0.000 A 
ATOM     23  C   UNL     1      46.940   7.316  12.948  0.00  0.00    +0.000 A 
ENDBRANCH  14  15
ENDBRANCH   4  14
TORSDOF 5
ENDMDL
MODEL 3
REMARK VINA RESULT:    -6.767      3.354      7.437
REMARK INTER + INTRA:          -9.352
REMARK INTER:                  -8.846
REMARK INTRA:                  -0.506
REMARK UNBOUND:                -0.607
REMARK  Name = 
REMARK  6 active torsions:
REMARK  status: ('A' for Active; 'I' for Inactive)
REMARK    1  A    between atoms: C_1  and  C_2
REMARK    2  A    between atoms: N_4  and  C_5
REMARK    3  A    between atoms: C_5  and  C_6
REMARK    4  A    between atoms: C_6  and  C_7
REMARK    5  A    between atoms: C_10  and  C_11
REMARK    6  A    between atoms: C_11  and  N_12
REMARK                            x       y       z     vdW  Elec       q    Type
REMARK                         _______ _______ _______ _____ _____    ______ ____
ROOT
ATOM      1  C   UNL     1      47.955   7.047  13.971  0.00  0.00    +0.000 A 
ATOM      2  C   UNL     1      47.113   8.107  13.611  0.00  0.00    +0.000 A 
ATOM      3  C   UNL     1      45.950   7.883  12.869  0.00  0.00    +0.000 A 
ATOM      4  C   UNL     1      45.609   6.597  12.445  0.00  0.00    +0.000 A 
ATOM      5  C   UNL     1      46.457   5.534  12.786  0.00  0.00    +0.000 A 
ATOM      6  C   UNL     1      47.616   5.758  13.537  0.00  0.00    +0.000 A 
ENDROOT
BRANCH   1   7
ATOM      7  C   UNL     1      49.239   7.261  14.746  0.00  0.00    +0.000 C 
BRANCH   7   8
ATOM      8  C   UNL     1      49.086   7.205  16.270  0.00  0.00    +0.000 C 
BRANCH   8  12
ATOM      9  C   UNL     1      47.308   4.028  17.285  0.00  0.00    +0.000 C 
ATOM     10  C   UNL     1      48.478   4.907  16.940  0.00  0.00    +0.000 C 
ATOM     11  O   UNL     1      49.625   4.484  16.862  0.00  0.00    +0.000 OA
ATOM     12  N   UNL     1      48.122   6.215  16.708  0.00  0.00    +0.000 N 
ATOM     13  H   UNL     1      47.156   6.495  16.819  0.00  0.00    +0.000 HD
ENDBRANCH   8  12
ENDBRANCH   7   8
ENDBRANCH   1   7
BRANCH   4  14
ATOM     14  C   UNL     1      44.364   6.368  11.627  0.00  0.00    +0.000 C 
BRANCH  14  15
ATOM     15  N   UNL     1      44.231   4.975  11.212  0.00  0.00    +0.000 N 
ATOM     16  C   UNL     1      43.472   4.045  11.882  0.00  0.00    +0.000 A 
ATOM     17  C   UNL     1      43.509   2.870  11.170  0.00  0.00    +0.000 A 
ATOM     18  C   UNL     1      44.311   3.088  10.018  0.00  0.00    +0.000 A 
ATOM     19  C   UNL     1      44.694   2.284   8.935  0.00  0.00    +0.000 A 
ATOM     20  C   UNL     1      45.501   2.876   7.977  0.00  0.00    +0.000 A 
ATOM     21  N   UNL     1      45.938   4.152   8.022  0.00  0.00    +0.000 NA
ATOM     22  C   UNL     1      45.573   4.934   9.064  0.00  0.00    +0.000 A 
ATOM     23  C   UNL     1      44.757   4.412  10.065  0.00  0.00    +0.000 A 
ENDBRANCH  14  15
ENDBRANCH   4  14
TORSDOF 5
ENDMDL
MODEL 4
REMARK VINA RESULT:    -6.425      3.008      6.830
REMARK INTER + INTRA:          -8.910
REMARK INTER:                  -8.215
REMARK INTRA:                  -0.695
REMARK UNBOUND:                -0.607
REMARK  Name = 
REMARK  6 active torsions:
REMARK  status: ('A' for Active; 'I' for Inactive)
REMARK    1  A    between atoms: C_1  and  C_2
REMARK    2  A    between atoms: N_4  and  C_5
REMARK    3  A    between atoms: C_5  and  C_6
REMARK    4  A    between atoms: C_6  and  C_7
REMARK    5  A    between atoms: C_10  and  C_11
REMARK    6  A    between atoms: C_11  and  N_12
REMARK                            x       y       z     vdW  Elec       q    Type
REMARK                         _______ _______ _______ _____ _____    ______ ____
ROOT
ATOM      1  C   UNL     1      47.965   7.152  13.939  0.00  0.00    +0.000 A 
ATOM      2  C   UNL     1      47.567   5.849  13.615  0.00  0.00    +0.000 A 
ATOM      3  C   UNL     1      46.390   5.612  12.900  0.00  0.00    +0.000 A 
ATOM      4  C   UNL     1      45.567   6.669  12.508  0.00  0.00    +0.000 A 
ATOM      5  C   UNL     1      45.949   7.975  12.844  0.00  0.00    +0.000 A 
ATOM      6  C   UNL     1      47.132   8.212  13.552  0.00  0.00    +0.000 A 
ENDROOT
BRANCH   1   7
ATOM      7  C   UNL     1      49.217   7.440  14.743  0.00  0.00    +0.000 C 
BRANCH   7   8
ATOM      8  C   UNL     1      50.171   8.454  14.102  0.00  0.00    +0.000 C 
BRANCH   8  12
ATOM      9  C   UNL     1      51.428   7.524  10.662  0.00  0.00    +0.000 C 
ATOM     10  C   UNL     1      50.623   8.281  11.680  0.00  0.00    +0.000 C 
ATOM     11  O   UNL     1      49.795   9.131  11.374  0.00  0.00    +0.000 OA
ATOM     12  N   UNL     1      50.903   7.912  12.975  0.00  0.00    +0.000 N 
ATOM     13  H   UNL     1      51.623   7.222  13.151  0.00  0.00    +0.000 HD
ENDBRANCH   8  12
ENDBRANCH   7   8
ENDBRANCH   1   7
BRANCH   4  14
ATOM     14  C   UNL     1      44.288   6.403  11.755  0.00  0.00    +0.000 C 
BRANCH  14  15
ATOM     15  N   UNL     1      44.188   5.012  11.323  0.00  0.00    +0.000 N 
ATOM     16  C   UNL     1      43.450   4.057  11.981  0.00  0.00    +0.000 A 
ATOM     17  C   UNL     1      43.515   2.891  11.254  0.00  0.00    +0.000 A 
ATOM     18  C   UNL     1      44.313   3.142  10.106  0.00  0.00    +0.000 A 
ATOM     19  C   UNL     1      44.716   2.361   9.014  0.00  0.00    +0.000 A 
ATOM     20  C   UNL     1      45.511   2.983   8.065  0.00  0.00    +0.000 A 
ATOM     21  N   UNL     1      45.918   4.268   8.126  0.00  0.00    +0.000 NA
ATOM     22  C   UNL     1      45.534   5.029   9.177  0.00  0.00    +0.000 A 
ATOM     23  C   UNL     1      44.729   4.476  10.170  0.00  0.00    +0.000 A 
ENDBRANCH  14  15
ENDBRANCH   4  14
TORSDOF 5
ENDMDL
MODEL 5
REMARK VINA RESULT:    -6.302      3.759      7.819
REMARK INTER + INTRA:          -8.751
REMARK INTER:                  -8.178
REMARK INTRA:                  -0.573
REMARK UNBOUND:                -0.607
REMARK  Name = 
REMARK  6 active torsions:
REMARK  status: ('A' for Active; 'I' for Inactive)
REMARK    1  A    between atoms: C_1  and  C_2
REMARK    2  A    between atoms: N_4  and  C_5
REMARK    3  A    between atoms: C_5  and  C_6
REMARK    4  A    between atoms: C_6  and  C_7
REMARK    5  A    between atoms: C_10  and  C_11
REMARK    6  A    between atoms: C_11  and  N_12
REMARK                            x       y       z     vdW  Elec       q    Type
REMARK                         _______ _______ _______ _____ _____    ______ ____
ROOT
ATOM      1  C   UNL     1      47.294   5.951  13.747  0.00  0.00    +0.000 A 
ATOM      2  C   UNL     1      46.500   4.800  13.827  0.00  0.00    +0.000 A 
ATOM      3  C   UNL     1      45.562   4.500  12.835  0.00  0.00    +0.000 A 
ATOM      4  C   UNL     1      45.377   5.354  11.745  0.00  0.00    +0.000 A 
ATOM      5  C   UNL     1      46.156   6.517  11.667  0.00  0.00    +0.000 A 
ATOM      6  C   UNL     1      47.100   6.811  12.657  0.00  0.00    +0.000 A 
ENDROOT
BRANCH   1   7
ATOM      7  C   UNL     1      48.294   6.321  14.823  0.00  0.00    +0.000 C 
BRANCH   7   8
ATOM      8  C   UNL     1      48.260   5.425  16.066  0.00  0.00    +0.000 C 
BRANCH   8  12
ATOM      9  C   UNL     1      47.421   6.432  19.611  0.00  0.00    +0.000 C 
ATOM     10  C   UNL     1      47.926   5.541  18.511  0.00  0.00    +0.000 C 
ATOM     11  O   UNL     1      48.304   4.392  18.707  0.00  0.00    +0.000 OA
ATOM     12  N   UNL     1      47.902   6.142  17.274  0.00  0.00    +0.000 N 
ATOM     13  H   UNL     1      47.603   7.106  17.195  0.00  0.00    +0.000 HD
ENDBRANCH   8  12
ENDBRANCH   7   8
ENDBRANCH   1   7
BRANCH   4  14
ATOM     14  C   UNL     1      44.350   5.033  10.690  0.00  0.00    +0.000 C 
BRANCH  14  15
ATOM     15  N   UNL     1      44.690   3.826   9.945  0.00  0.00    +0.000 N 
ATOM     16  C   UNL     1      44.151   2.588  10.204  0.00  0.00    +0.000 A 
ATOM     17  C   UNL     1      44.630   1.708   9.262  0.00  0.00    +0.000 A 
ATOM     18  C   UNL     1      45.485   2.433   8.389  0.00  0.00    +0.000 A 
ATOM     19  C   UNL     1      46.234   2.087   7.256  0.00  0.00    +0.000 A 
ATOM     20  C   UNL     1      46.958   3.104   6.655  0.00  0.00    +0.000 A 
ATOM     21  N   UNL     1      46.990   4.383   7.088  0.00  0.00    +0.000 NA
ATOM     22  C   UNL     1      46.271   4.724   8.181  0.00  0.00    +0.000 A 
ATOM     23  C   UNL     1      45.513   3.757   8.836  0.00  0.00    +0.000 A 
ENDBRANCH  14  15
ENDBRANCH   4  14
TORSDOF 5
ENDMDL
MODEL 6
REMARK VINA RESULT:    -6.233      3.403      7.636
REMARK INTER + INTRA:          -8.662
REMARK INTER:                  -7.978
REMARK INTRA:                  -0.684
REMARK UNBOUND:                -0.607
REMARK  Name = 
REMARK  6 active torsions:
REMARK  status: ('A' for Active; 'I' for Inactive)
REMARK    1  A    between atoms: C_1  and  C_2
REMARK    2  A    between atoms: N_4  and  C_5
REMARK    3  A    between atoms: C_5  and  C_6
REMARK    4  A    between atoms: C_6  and  C_7
REMARK    5  A    between atoms: C_10  and  C_11
REMARK    6  A    between atoms: C_11  and  N_12
REMARK                            x       y       z     vdW  Elec       q    Type
REMARK                         _______ _______ _______ _____ _____    ______ ____
ROOT
ATOM      1  C   UNL     1      48.209   7.258  13.133  0.00  0.00    +0.000 A 
ATOM      2  C   UNL     1      47.669   6.039  13.561  0.00  0.00    +0.000 A 
ATOM      3  C   UNL     1      46.369   5.664  13.212  0.00  0.00    +0.000 A 
ATOM      4  C   UNL     1      45.564   6.508  12.443  0.00  0.00    +0.000 A 
ATOM      5  C   UNL     1      46.091   7.738  12.027  0.00  0.00    +0.000 A 
ATOM      6  C   UNL     1      47.396   8.108  12.369  0.00  0.00    +0.000 A 
ENDROOT
BRANCH   1   7
ATOM      7  C   UNL     1      49.602   7.708  13.524  0.00  0.00    +0.000 C 
BRANCH   7   8
ATOM      8  C   UNL     1      50.045   7.280  14.928  0.00  0.00    +0.000 C 
BRANCH   8  12
ATOM      9  C   UNL     1      48.214   8.602  17.957  0.00  0.00    +0.000 C 
ATOM     10  C   UNL     1      48.800   7.565  17.042  0.00  0.00    +0.000 C 
ATOM     11  O   UNL     1      48.664   6.361  17.229  0.00  0.00    +0.000 OA
ATOM     12  N   UNL     1      49.483   8.106  15.978  0.00  0.00    +0.000 N 
ATOM     13  H   UNL     1      49.577   9.111  15.906  0.00  0.00    +0.000 HD
ENDBRANCH   8  12
ENDBRANCH   7   8
ENDBRANCH   1   7
BRANCH   4  14
ATOM     14  C   UNL     1      44.156   6.104  12.089  0.00  0.00    +0.000 C 
BRANCH  14  15
ATOM     15  N   UNL     1      44.096   4.755  11.538  0.00  0.00    +0.000 N 
ATOM     16  C   UNL     1      43.415   3.715  12.126  0.00  0.00    +0.000 A 
ATOM     17  C   UNL     1      43.503   2.622  11.297  0.00  0.00    +0.000 A 
ATOM     18  C   UNL     1      44.256   3.006  10.155  0.00  0.00    +0.000 A 
ATOM     19  C   UNL     1      44.656   2.341   8.988  0.00  0.00    +0.000 A 
ATOM     20  C   UNL     1      45.398   3.076   8.077  0.00  0.00    +0.000 A 
ATOM     21  N   UNL     1      45.757   4.367   8.242  0.00  0.00    +0.000 NA
ATOM     22  C   UNL     1      45.375   5.016   9.366  0.00  0.00    +0.000 A 
ATOM     23  C   UNL     1      44.622   4.344  10.327  0.00  0.00    +0.000 A 
ENDBRANCH  14  15
ENDBRANCH   4  14
TORSDOF 5
ENDMDL
MODEL 7
REMARK VINA RESULT:    -6.147      4.464      7.311
REMARK INTER + INTRA:          -8.551
REMARK INTER:                  -8.155
REMARK INTRA:                  -0.396
REMARK UNBOUND:                -0.607
REMARK  Name = 
REMARK  6 active torsions:
REMARK  status: ('A' for Active; 'I' for Inactive)
REMARK    1  A    between atoms: C_1  and  C_2
REMARK    2  A    between atoms: N_4  and  C_5
REMARK    3  A    between atoms: C_5  and  C_6
REMARK    4  A    between atoms: C_6  and  C_7
REMARK    5  A    between atoms: C_10  and  C_11
REMARK    6  A    between atoms: C_11  and  N_12
REMARK                            x       y       z     vdW  Elec       q    Type
REMARK                         _______ _______ _______ _____ _____    ______ ____
ROOT
ATOM      1  C   UNL     1      48.301   5.268  16.537  0.00  0.00    +0.000 A 
ATOM      2  C   UNL     1      47.473   4.520  15.691  0.00  0.00    +0.000 A 
ATOM      3  C   UNL     1      47.268   4.900  14.362  0.00  0.00    +0.000 A 
ATOM      4  C   UNL     1      47.868   6.051  13.848  0.00  0.00    +0.000 A 
ATOM      5  C   UNL     1      48.683   6.815  14.694  0.00  0.00    +0.000 A 
ATOM      6  C   UNL     1      48.895   6.428  16.022  0.00  0.00    +0.000 A 
ENDROOT
BRANCH   1   7
ATOM      7  C   UNL     1      48.515   4.901  17.992  0.00  0.00    +0.000 C 
BRANCH   7   8
ATOM      8  C   UNL     1      48.524   3.395  18.280  0.00  0.00    +0.000 C 
BRANCH   8  12
ATOM      9  C   UNL     1      51.641   1.452  17.394  0.00  0.00    +0.000 C 
ATOM     10  C   UNL     1      50.271   2.033  17.188  0.00  0.00    +0.000 C 
ATOM     11  O   UNL     1      49.600   1.812  16.187  0.00  0.00    +0.000 OA
ATOM     12  N   UNL     1      49.852   2.816  18.238  0.00  0.00    +0.000 N 
ATOM     13  H   UNL     1      50.475   2.976  19.019  0.00  0.00    +0.000 HD
ENDBRANCH   8  12
ENDBRANCH   7   8
ENDBRANCH   1   7
BRANCH   4  14
ATOM     14  C   UNL     1      47.625   6.465  12.419  0.00  0.00    +0.000 C 
BRANCH  14  15
ATOM     15  N   UNL     1      46.212   6.716  12.155  0.00  0.00    +0.000 N 
ATOM     16  C   UNL     1      45.652   7.971  12.102  0.00  0.00    +0.000 A 
ATOM     17  C   UNL     1      44.329   7.834  11.752  0.00  0.00    +0.000 A 
ATOM     18  C   UNL     1      44.070   6.449  11.575  0.00  0.00    +0.000 A 
ATOM     19  C   UNL     1      42.934   5.713  11.211  0.00  0.00    +0.000 A 
ATOM     20  C   UNL     1      43.082   4.337  11.137  0.00  0.00    +0.000 A 
ATOM     21  N   UNL     1      44.230   3.673  11.394  0.00  0.00    +0.000 NA
ATOM     22  C   UNL     1      45.330   4.376  11.747  0.00  0.00    +0.000 A 
ATOM     23  C   UNL     1      45.261   5.764  11.837  0.00  0.00    +0.000 A 
ENDBRANCH  14  15
ENDBRANCH   4  14
TORSDOF 5
ENDMDL
MODEL 8
REMARK VINA RESULT:    -5.943      1.995      2.950
REMARK INTER + INTRA:          -8.287
REMARK INTER:                  -7.521
REMARK INTRA:                  -0.766
REMARK UNBOUND:                -0.607
REMARK  Name = 
REMARK  6 active torsions:
REMARK  status: ('A' for Active; 'I' for Inactive)
REMARK    1  A    between atoms: C_1  and  C_2
REMARK    2  A    between atoms: N_4  and  C_5
REMARK    3  A    between atoms: C_5  and  C_6
REMARK    4  A    between atoms: C_6  and  C_7
REMARK    5  A    between atoms: C_10  and  C_11
REMARK    6  A    between atoms: C_11  and  N_12
REMARK                            x       y       z     vdW  Elec       q    Type
REMARK                         _______ _______ _______ _____ _____    ______ ____
ROOT
ATOM      1  C   UNL     1      45.227   4.526  11.632  0.00  0.00    +0.000 A 
ATOM      2  C   UNL     1      45.964   4.594  12.820  0.00  0.00    +0.000 A 
ATOM      3  C   UNL     1      46.380   5.822  13.342  0.00  0.00    +0.000 A 
ATOM      4  C   UNL     1      46.089   7.015  12.678  0.00  0.00    +0.000 A 
ATOM      5  C   UNL     1      45.367   6.954  11.479  0.00  0.00    +0.000 A 
ATOM      6  C   UNL     1      44.943   5.725  10.962  0.00  0.00    +0.000 A 
ENDROOT
BRANCH   1   7
ATOM      7  C   UNL     1      44.791   3.209  11.023  0.00  0.00    +0.000 C 
BRANCH   7   8
ATOM      8  C   UNL     1      44.281   3.306   9.580  0.00  0.00    +0.000 C 
BRANCH   8  12
ATOM      9  C   UNL     1      46.770   2.699   6.802  0.00  0.00    +0.000 C 
ATOM     10  C   UNL     1      45.978   3.501   7.796  0.00  0.00    +0.000 C 
ATOM     11  O   UNL     1      46.025   4.724   7.851  0.00  0.00    +0.000 OA
ATOM     12  N   UNL     1      45.193   2.724   8.615  0.00  0.00    +0.000 N 
ATOM     13  H   UNL     1      45.229   1.716   8.529  0.00  0.00    +0.000 HD
ENDBRANCH   8  12
ENDBRANCH   7   8
ENDBRANCH   1   7
BRANCH   4  14
ATOM     14  C   UNL     1      46.559   8.334  13.237  0.00  0.00    +0.000 C 
BRANCH  14  15
ATOM     15  N   UNL     1      47.949   8.611  12.889  0.00  0.00    +0.000 N 
ATOM     16  C   UNL     1      48.333   9.319  11.775  0.00  0.00    +0.000 A 
ATOM     17  C   UNL     1      49.701   9.459  11.808  0.00  0.00    +0.000 A 
ATOM     18  C   UNL     1      50.172   8.822  12.988  0.00  0.00    +0.000 A 
ATOM     19  C   UNL     1      51.440   8.651  13.559  0.00  0.00    +0.000 A 
ATOM     20  C   UNL     1      51.494   7.958  14.757  0.00  0.00    +0.000 A 
ATOM     21  N   UNL     1      50.422   7.443  15.396  0.00  0.00    +0.000 NA
ATOM     22  C   UNL     1      49.195   7.603  14.851  0.00  0.00    +0.000 A 
ATOM     23  C   UNL     1      49.059   8.294  13.649  0.00  0.00    +0.000 A 
ENDBRANCH  14  15
ENDBRANCH   4  14
TORSDOF 5
ENDMDL
MODEL 9
REMARK VINA RESULT:    -5.897      3.541      4.929
REMARK INTER + INTRA:          -8.228
REMARK INTER:                  -7.451
REMARK INTRA:                  -0.777
REMARK UNBOUND:                -0.607
REMARK  Name = 
REMARK  6 active torsions:
REMARK  status: ('A' for Active; 'I' for Inactive)
REMARK    1  A    between atoms: C_1  and  C_2
REMARK    2  A    between atoms: N_4  and  C_5
REMARK    3  A    between atoms: C_5  and  C_6
REMARK    4  A    between atoms: C_6  and  C_7
REMARK    5  A    between atoms: C_10  and  C_11
REMARK    6  A    between atoms: C_11  and  N_12
REMARK                            x       y       z     vdW  Elec       q    Type
REMARK                         _______ _______ _______ _____ _____    ______ ____
ROOT
ATOM      1  C   UNL     1      44.525   5.737  12.724  0.00  0.00    +0.000 A 
ATOM      2  C   UNL     1      45.377   4.781  13.290  0.00  0.00    +0.000 A 
ATOM      3  C   UNL     1      46.690   5.104  13.644  0.00  0.00    +0.000 A 
ATOM      4  C   UNL     1      47.195   6.387  13.420  0.00  0.00    +0.000 A 
ATOM      5  C   UNL     1      46.354   7.344  12.837  0.00  0.00    +0.000 A 
ATOM      6  C   UNL     1      45.037   7.021  12.492  0.00  0.00    +0.000 A 
ENDROOT
BRANCH   1   7
ATOM      7  C   UNL     1      43.109   5.408  12.298  0.00  0.00    +0.000 C 
BRANCH   7   8
ATOM      8  C   UNL     1      43.000   4.364  11.181  0.00  0.00    +0.000 C 
BRANCH   8  12
ATOM      9  C   UNL     1      45.575   4.277   8.416  0.00  0.00    +0.000 C 
ATOM     10  C   UNL     1      44.720   3.731   9.525  0.00  0.00    +0.000 C 
ATOM     11  O   UNL     1      44.812   2.578   9.928  0.00  0.00    +0.000 OA
ATOM     12  N   UNL     1      43.848   4.659  10.043  0.00  0.00    +0.000 N 
ATOM     13  H   UNL     1      43.810   5.586   9.638  0.00  0.00    +0.000 HD
ENDBRANCH   8  12
ENDBRANCH   7   8
ENDBRANCH   1   7
BRANCH   4  14
ATOM     14  C   UNL     1      48.618   6.721  13.786  0.00  0.00    +0.000 C 
BRANCH  14  15
ATOM     15  N   UNL     1      48.711   7.362  15.094  0.00  0.00    +0.000 N 
ATOM     16  C   UNL     1      48.702   8.723  15.283  0.00  0.00    +0.000 A 
ATOM     17  C   UNL     1      48.720   8.967  16.636  0.00  0.00    +0.000 A 
ATOM     18  C   UNL     1      48.731   7.712  17.301  0.00  0.00    +0.000 A 
ATOM     19  C   UNL     1      48.736   7.327  18.648  0.00  0.00    +0.000 A 
ATOM     20  C   UNL     1      48.739   5.966  18.906  0.00  0.00    +0.000 A 
ATOM     21  N   UNL     1      48.742   5.004  17.959  0.00  0.00    +0.000 NA
ATOM     22  C   UNL     1      48.738   5.367  16.656  0.00  0.00    +0.000 A 
ATOM     23  C   UNL     1      48.729   6.718  16.317  0.00  0.00    +0.000 A 
ENDBRANCH  14  15
ENDBRANCH   4  14
TORSDOF 5
ENDMDL
