MODEL 1
REMARK VINA RESULT:    -7.844      0.000      0.000
REMARK INTER + INTRA:         -11.153
REMARK INTER:                 -10.366
REMARK INTRA:                  -0.787
REMARK UNBOUND:                -0.787
REMARK  Name = 
REMARK  6 active torsions:
REMARK  status: ('A' for Active; 'I' for Inactive)
REMARK    1  A    between atoms: N_1  and  C_2
REMARK    2  A    between atoms: C_2  and  C_3
REMARK    3  A    between atoms: C_3  and  C_4
REMARK    4  A    between atoms: C_7  and  C_8
REMARK    5  A    between atoms: C_8  and  N_9
REMARK    6  A    between atoms: C_14  and  C_15
REMARK                            x       y       z     vdW  Elec       q    Type
REMARK                         _______ _______ _______ _____ _____    ______ ____
ROOT
ATOM      1  N   UNL     1      43.501   4.281  10.551  0.00  0.00    +0.000 N 
ATOM      2  N   UNL     1      43.004   3.257  11.275  0.00  0.00    +0.000 NA
ATOM      3  N   UNL     1      43.624   2.157  10.868  0.00  0.00    +0.000 NA
ATOM      4  C   UNL     1      44.421   2.490   9.807  0.00  0.00    +0.000 A 
ATOM      5  C   UNL     1      45.360   1.732   9.096  0.00  0.00    +0.000 A 
ATOM      6  C   UNL     1      46.047   2.333   8.028  0.00  0.00    +0.000 A 
ATOM      7  C   UNL     1      45.733   3.646   7.638  0.00  0.00    +0.000 A 
ATOM      8  C   UNL     1      44.823   4.431   8.363  0.00  0.00    +0.000 A 
ATOM      9  C   UNL     1      44.223   3.825   9.476  0.00  0.00    +0.000 A 
ENDROOT
BRANCH   6  10
ATOM     10  C   UNL     1      47.132   1.526   7.399  0.00  0.00    +0.000 C 
ATOM     11  N   UNL     1      48.185   2.169   6.813  0.00  0.00    +0.000 N 
ATOM     12  O   UNL     1      47.109   0.299   7.417  0.00  0.00    +0.000 OA
ATOM     13  H   UNL     1      48.286   3.166   6.717  0.00  0.00    +0.000 HD
ATOM     14  H   UNL     1      48.904   1.577   6.417  0.00  0.00    +0.000 HD
ENDBRANCH   6  10
BRANCH   1  15
ATOM     15  C   UNL     1      43.628   5.586  11.183  0.00  0.00    +0.000 C 
BRANCH  15  19
ATOM     16  C   UNL     1      47.574   6.222  12.904  0.00  0.00    +0.000 A 
ATOM     17  C   UNL     1      46.652   5.364  13.517  0.00  0.00    +0.000 A 
ATOM     18  C   UNL     1      45.399   5.123  12.941  0.00  0.00    +0.000 A 
ATOM     19  C   UNL     1      45.026   5.752  11.748  0.00  0.00    +0.000 A 
ATOM     20  C   UNL     1      45.936   6.632  11.144  0.00  0.00    +0.000 A 
ATOM     21  C   UNL     1      47.192   6.865  11.717  0.00  0.00    +0.000 A 
BRANCH  16  22
ATOM     22  C   UNL     1      48.924   6.547  13.512  0.00  0.00    +0.000 C 
BRANCH  22  23
ATOM     23  C   UNL     1      48.896   6.985  14.985  0.00  0.00    +0.000 C 
BRANCH  23  24
ATOM     24  N   UNL     1      49.407   5.933  15.865  0.00  0.00    +0.000 NA
ATOM     25  H   UNL     1      50.077   6.337  16.519  0.00  0.00    +0.000 HD
ATOM     26  H   UNL     1      49.925   5.249  15.314  0.00  0.00    +0.000 HD
ENDBRANCH  23  24
ENDBRANCH  22  23
ENDBRANCH  16  22
ENDBRANCH  15  19
ENDBRANCH   1  15
TORSDOF 6
ENDMDL
MODEL 2
REMARK VINA RESULT:    -7.724      2.513      6.232
REMARK INTER + INTRA:         -10.995
REMARK INTER:                 -10.673
REMARK INTRA:                  -0.322
REMARK UNBOUND:                -0.787
REMARK  Name = 
REMARK  6 active torsions:
REMARK  status: ('A' for Active; 'I' for Inactive)
REMARK    1  A    between atoms: N_1  and  C_2
REMARK    2  A    between atoms: C_2  and  C_3
REMARK    3  A    between atoms: C_3  and  C_4
REMARK    4  A    between atoms: C_7  and  C_8
REMARK    5  A    between atoms: C_8  and  N_9
REMARK    6  A    between atoms: C_14  and  C_15
REMARK                            x       y       z     vdW  Elec       q    Type
REMARK                         _______ _______ _______ _____ _____    ______ ____
ROOT
ATOM      1  N   UNL     1      43.607   4.743  12.036  0.00  0.00    +0.000 N 
ATOM      2  N   UNL     1      42.925   5.832  11.625  0.00  0.00    +0.000 NA
ATOM      3  N   UNL     1      43.762   6.859  11.681  0.00  0.00    +0.000 NA
ATOM      4  C   UNL     1      44.931   6.421  12.242  0.00  0.00    +0.000 A 
ATOM      5  C   UNL     1      46.160   7.068  12.418  0.00  0.00    +0.000 A 
ATOM      6  C   UNL     1      47.210   6.372  13.039  0.00  0.00    +0.000 A 
ATOM      7  C   UNL     1      46.997   5.077  13.541  0.00  0.00    +0.000 A 
ATOM      8  C   UNL     1      45.784   4.400  13.339  0.00  0.00    +0.000 A 
ATOM      9  C   UNL     1      44.790   5.096  12.637  0.00  0.00    +0.000 A 
ENDROOT
BRANCH   6  10
ATOM     10  C   UNL     1      48.533   7.060  13.073  0.00  0.00    +0.000 C 
ATOM     11  N   UNL     1      48.783   8.066  12.185  0.00  0.00    +0.000 N 
ATOM     12  O   UNL     1      49.392   6.754  13.895  0.00  0.00    +0.000 OA
ATOM     13  H   UNL     1      48.162   8.373  11.454  0.00  0.00    +0.000 HD
ATOM     14  H   UNL     1      49.687   8.513  12.260  0.00  0.00    +0.000 HD
ENDBRANCH   6  10
BRANCH   1  15
ATOM     15  C   UNL     1      43.299   3.456  11.429  0.00  0.00    +0.000 C 
BRANCH  15  19
ATOM     16  C   UNL     1      45.774   3.003   7.878  0.00  0.00    +0.000 A 
ATOM     17  C   UNL     1      45.500   1.909   8.708  0.00  0.00    +0.000 A 
ATOM     18  C   UNL     1      44.668   2.043   9.825  0.00  0.00    +0.000 A 
ATOM     19  C   UNL     1      44.105   3.280  10.156  0.00  0.00    +0.000 A 
ATOM     20  C   UNL     1      44.397   4.385   9.342  0.00  0.00    +0.000 A 
ATOM     21  C   UNL     1      45.223   4.248   8.220  0.00  0.00    +0.000 A 
BRANCH  16  22
ATOM     22  C   UNL     1      46.704   2.917   6.684  0.00  0.00    +0.000 C 
BRANCH  22  23
ATOM     23  C   UNL     1      47.894   1.960   6.842  0.00  0.00    +0.000 C 
BRANCH  23  24
ATOM     24  N   UNL     1      48.593   1.760   5.572  0.00  0.00    +0.000 NA
ATOM     25  H   UNL     1      48.051   1.127   4.985  0.00  0.00    +0.000 HD
ATOM     26  H   UNL     1      49.485   1.296   5.742  0.00  0.00    +0.000 HD
ENDBRANCH  23  24
ENDBRANCH  22  23
ENDBRANCH  16  22
ENDBRANCH  15  19
ENDBRANCH   1  15
TORSDOF 6
ENDMDL
MODEL 3
REMARK VINA RESULT:    -7.236      3.085      7.112
REMARK INTER + INTRA:         -10.350
REMARK INTER:                  -9.783
REMARK INTRA:                  -0.567
REMARK UNBOUND:                -0.787
REMARK  Name = 
REMARK  6 active torsions:
REMARK  status: ('A' for Active; 'I' for Inactive)
REMARK    1  A    between atoms: N_1  and  C_2
REMARK    2  A    between atoms: C_2  and  C_3
REMARK    3  A    between atoms: C_3  and  C_4
REMARK    4  A    between atoms: C_7  and  C_8
REMARK    5  A    between atoms: C_8  and  N_9
REMARK    6  A    between atoms: C_14  and  C_15
REMARK                            x       y       z     vdW  Elec       q    Type
REMARK                         _______ _______ _______ _____ _____    ______ ____
ROOT
ATOM      1  N   UNL     1      45.920   4.561  12.445  0.00  0.00    +0.000 N 
ATOM      2  N   UNL     1      45.977   3.605  13.396  0.00  0.00    +0.000 NA
ATOM      3  N   UNL     1      46.646   4.117  14.421  0.00  0.00    +0.000 NA
ATOM      4  C   UNL     1      47.103   5.352  14.052  0.00  0.00    +0.000 A 
ATOM      5  C   UNL     1      47.756   6.345  14.794  0.00  0.00    +0.000 A 
ATOM      6  C   UNL     1      48.125   7.539  14.152  0.00  0.00    +0.000 A 
ATOM      7  C   UNL     1      47.909   7.693  12.773  0.00  0.00    +0.000 A 
ATOM      8  C   UNL     1      47.222   6.725  12.023  0.00  0.00    +0.000 A 
ATOM      9  C   UNL     1      46.792   5.585  12.718  0.00  0.00    +0.000 A 
ENDROOT
BRANCH   6  10
ATOM     10  C   UNL     1      48.687   8.612  15.021  0.00  0.00    +0.000 C 
ATOM     11  N   UNL     1      47.864   9.257  15.900  0.00  0.00    +0.000 N 
ATOM     12  O   UNL     1      49.877   8.912  14.978  0.00  0.00    +0.000 OA
ATOM     13  H   UNL     1      46.872   9.110  15.992  0.00  0.00    +0.000 HD
ATOM     14  H   UNL     1      48.297   9.965  16.479  0.00  0.00    +0.000 HD
ENDBRANCH   6  10
BRANCH   1  15
ATOM     15  C   UNL     1      44.733   4.640  11.605  0.00  0.00    +0.000 C 
BRANCH  15  19
ATOM     16  C   UNL     1      45.795   3.004   7.715  0.00  0.00    +0.000 A 
ATOM     17  C   UNL     1      45.234   2.191   8.708  0.00  0.00    +0.000 A 
ATOM     18  C   UNL     1      44.850   2.725   9.944  0.00  0.00    +0.000 A 
ATOM     19  C   UNL     1      45.038   4.082  10.228  0.00  0.00    +0.000 A 
ATOM     20  C   UNL     1      45.624   4.894   9.246  0.00  0.00    +0.000 A 
ATOM     21  C   UNL     1      45.999   4.361   8.007  0.00  0.00    +0.000 A 
BRANCH  16  22
ATOM     22  C   UNL     1      46.267   2.463   6.380  0.00  0.00    +0.000 C 
BRANCH  22  23
ATOM     23  C   UNL     1      47.425   1.456   6.447  0.00  0.00    +0.000 C 
BRANCH  23  24
ATOM     24  N   UNL     1      48.571   1.905   5.654  0.00  0.00    +0.000 NA
ATOM     25  H   UNL     1      48.235   2.416   4.838  0.00  0.00    +0.000 HD
ATOM     26  H   UNL     1      49.075   1.095   5.294  0.00  0.00    +0.000 HD
ENDBRANCH  23  24
ENDBRANCH  22  23
ENDBRANCH  16  22
ENDBRANCH  15  19
ENDBRANCH   1  15
TORSDOF 6
ENDMDL
MODEL 4
REMARK VINA RESULT:    -6.437      4.141      6.178
REMARK INTER + INTRA:          -9.293
REMARK INTER:                  -8.890
REMARK INTRA:                  -0.404
REMARK UNBOUND:                -0.787
REMARK  Name = 
REMARK  6 active torsions:
REMARK  status: ('A' for Active; 'I' for Inactive)
REMARK    1  A    between atoms: N_1  and  C_2
REMARK    2  A    between atoms: C_2  and  C_3
REMARK    3  A    between atoms: C_3  and  C_4
REMARK    4  A    between atoms: C_7  and  C_8
REMARK    5  A    between atoms: C_8  and  N_9
REMARK    6  A    between atoms: C_14  and  C_15
REMARK                            x       y       z     vdW  Elec       q    Type
REMARK                         _______ _______ _______ _____ _____    ______ ____
ROOT
ATOM      1  N   UNL     1      47.437   4.835  14.751  0.00  0.00    +0.000 N 
ATOM      2  N   UNL     1      48.022   6.041  14.592  0.00  0.00    +0.000 NA
ATOM      3  N   UNL     1      47.485   6.594  13.513  0.00  0.00    +0.000 NA
ATOM      4  C   UNL     1      46.651   5.673  12.938  0.00  0.00    +0.000 A 
ATOM      5  C   UNL     1      45.765   5.790  11.859  0.00  0.00    +0.000 A 
ATOM      6  C   UNL     1      45.020   4.665  11.469  0.00  0.00    +0.000 A 
ATOM      7  C   UNL     1      45.225   3.429  12.104  0.00  0.00    +0.000 A 
ATOM      8  C   UNL     1      46.081   3.304  13.211  0.00  0.00    +0.000 A 
ATOM      9  C   UNL     1      46.740   4.470  13.626  0.00  0.00    +0.000 A 
ENDROOT
BRANCH   6  10
ATOM     10  C   UNL     1      43.993   4.885  10.409  0.00  0.00    +0.000 C 
ATOM     11  N   UNL     1      44.268   4.502   9.127  0.00  0.00    +0.000 N 
ATOM     12  O   UNL     1      42.902   5.381  10.670  0.00  0.00    +0.000 OA
ATOM     13  H   UNL     1      45.140   4.116   8.803  0.00  0.00    +0.000 HD
ATOM     14  H   UNL     1      43.533   4.656   8.450  0.00  0.00    +0.000 HD
ENDBRANCH   6  10
BRANCH   1  15
ATOM     15  C   UNL     1      47.217   4.338  16.101  0.00  0.00    +0.000 C 
BRANCH  15  19
ATOM     16  C   UNL     1      51.014   2.769  17.536  0.00  0.00    +0.000 A 
ATOM     17  C   UNL     1      50.696   4.125  17.679  0.00  0.00    +0.000 A 
ATOM     18  C   UNL     1      49.457   4.623  17.259  0.00  0.00    +0.000 A 
ATOM     19  C   UNL     1      48.511   3.782  16.664  0.00  0.00    +0.000 A 
ATOM     20  C   UNL     1      48.835   2.427  16.496  0.00  0.00    +0.000 A 
ATOM     21  C   UNL     1      50.071   1.929  16.924  0.00  0.00    +0.000 A 
BRANCH  16  22
ATOM     22  C   UNL     1      52.358   2.192  17.935  0.00  0.00    +0.000 C 
BRANCH  22  23
ATOM     23  C   UNL     1      52.693   0.821  17.329  0.00  0.00    +0.000 C 
BRANCH  23  24
ATOM     24  N   UNL     1      52.680  -0.231  18.346  0.00  0.00    +0.000 NA
ATOM     25  H   UNL     1      51.986  -0.935  18.094  0.00  0.00    +0.000 HD
ATOM     26  H   UNL     1      52.375   0.160  19.238  0.00  0.00    +0.000 HD
ENDBRANCH  23  24
ENDBRANCH  22  23
ENDBRANCH  16  22
ENDBRANCH  15  19
ENDBRANCH   1  15
TORSDOF 6
ENDMDL
MODEL 5
REMARK VINA RESULT:    -5.823      3.376      7.337
REMARK INTER + INTRA:          -8.483
REMARK INTER:                  -7.896
REMARK INTRA:                  -0.586
REMARK UNBOUND:                -0.787
REMARK  Name = 
REMARK  6 active torsions:
REMARK  status: ('A' for Active; 'I' for Inactive)
REMARK    1  A    between atoms: N_1  and  C_2
REMARK    2  A    between atoms: C_2  and  C_3
REMARK    3  A    between atoms: C_3  and  C_4
REMARK    4  A    between atoms: C_7  and  C_8
REMARK    5  A    between atoms: C_8  and  N_9
REMARK    6  A    between atoms: C_14  and  C_15
REMARK                            x       y       z     vdW  Elec       q    Type
REMARK                         _______ _______ _______ _____ _____    ______ ____
ROOT
ATOM      1  N   UNL     1      47.181   6.047  13.352  0.00  0.00    +0.000 N 
ATOM      2  N   UNL     1      47.567   5.412  14.479  0.00  0.00    +0.000 NA
ATOM      3  N   UNL     1      48.629   6.057  14.943  0.00  0.00    +0.000 NA
ATOM      4  C   UNL     1      48.968   7.021  14.034  0.00  0.00    +0.000 A 
ATOM      5  C   UNL     1      49.928   8.039  14.095  0.00  0.00    +0.000 A 
ATOM      6  C   UNL     1      50.071   8.903  12.997  0.00  0.00    +0.000 A 
ATOM      7  C   UNL     1      49.315   8.694  11.832  0.00  0.00    +0.000 A 
ATOM      8  C   UNL     1      48.322   7.703  11.768  0.00  0.00    +0.000 A 
ATOM      9  C   UNL     1      48.149   6.917  12.916  0.00  0.00    +0.000 A 
ENDROOT
BRANCH   6  10
ATOM     10  C   UNL     1      51.007  10.051  13.174  0.00  0.00    +0.000 C 
ATOM     11  N   UNL     1      51.008  10.733  14.358  0.00  0.00    +0.000 N 
ATOM     12  O   UNL     1      51.789  10.381  12.287  0.00  0.00    +0.000 OA
ATOM     13  H   UNL     1      50.389  10.564  15.134  0.00  0.00    +0.000 HD
ATOM     14  H   UNL     1      51.673  11.491  14.434  0.00  0.00    +0.000 HD
ENDBRANCH   6  10
BRANCH   1  15
ATOM     15  C   UNL     1      45.760   6.109  13.038  0.00  0.00    +0.000 C 
BRANCH  15  19
ATOM     16  C   UNL     1      45.037   3.321   9.776  0.00  0.00    +0.000 A 
ATOM     17  C   UNL     1      44.953   2.904  11.111  0.00  0.00    +0.000 A 
ATOM     18  C   UNL     1      45.141   3.809  12.161  0.00  0.00    +0.000 A 
ATOM     19  C   UNL     1      45.440   5.152  11.906  0.00  0.00    +0.000 A 
ATOM     20  C   UNL     1      45.550   5.568  10.570  0.00  0.00    +0.000 A 
ATOM     21  C   UNL     1      45.354   4.663   9.521  0.00  0.00    +0.000 A 
BRANCH  16  22
ATOM     22  C   UNL     1      44.885   2.369   8.606  0.00  0.00    +0.000 C 
BRANCH  22  23
ATOM     23  C   UNL     1      46.189   1.999   7.883  0.00  0.00    +0.000 C 
BRANCH  23  24
ATOM     24  N   UNL     1      46.484   0.571   8.008  0.00  0.00    +0.000 NA
ATOM     25  H   UNL     1      46.452   0.305   8.993  0.00  0.00    +0.000 HD
ATOM     26  H   UNL     1      47.438   0.391   7.697  0.00  0.00    +0.000 HD
ENDBRANCH  23  24
ENDBRANCH  22  23
ENDBRANCH  16  22
ENDBRANCH  15  19
ENDBRANCH   1  15
TORSDOF 6
ENDMDL
MODEL 6
REMARK VINA RESULT:    -5.759      3.644      6.650
REMARK INTER + INTRA:          -8.397
REMARK INTER:                  -7.819
REMARK INTRA:                  -0.579
REMARK UNBOUND:                -0.787
REMARK  Name = 
REMARK  6 active torsions:
REMARK  status: ('A' for Active; 'I' for Inactive)
REMARK    1  A    between atoms: N_1  and  C_2
REMARK    2  A    between atoms: C_2  and  C_3
REMARK    3  A    between atoms: C_3  and  C_4
REMARK    4  A    between atoms: C_7  and  C_8
REMARK    5  A    between atoms: C_8  and  N_9
REMARK    6  A    between atoms: C_14  and  C_15
REMARK                            x       y       z     vdW  Elec       q    Type
REMARK                         _______ _______ _______ _____ _____    ______ ____
ROOT
ATOM      1  N   UNL     1      48.597   6.369  14.510  0.00  0.00    +0.000 N 
ATOM      2  N   UNL     1      49.411   7.050  13.678  0.00  0.00    +0.000 NA
ATOM      3  N   UNL     1      48.753   7.212  12.537  0.00  0.00    +0.000 NA
ATOM      4  C   UNL     1      47.574   6.524  12.629  0.00  0.00    +0.000 A 
ATOM      5  C   UNL     1      46.480   6.465  11.758  0.00  0.00    +0.000 A 
ATOM      6  C   UNL     1      45.380   5.661  12.103  0.00  0.00    +0.000 A 
ATOM      7  C   UNL     1      45.422   4.873  13.265  0.00  0.00    +0.000 A 
ATOM      8  C   UNL     1      46.494   4.948  14.168  0.00  0.00    +0.000 A 
ATOM      9  C   UNL     1      47.532   5.829  13.832  0.00  0.00    +0.000 A 
ENDROOT
BRANCH   6  10
ATOM     10  C   UNL     1      44.189   5.747  11.210  0.00  0.00    +0.000 C 
ATOM     11  N   UNL     1      43.371   6.838  11.296  0.00  0.00    +0.000 N 
ATOM     12  O   UNL     1      43.941   4.871  10.388  0.00  0.00    +0.000 OA
ATOM     13  H   UNL     1      43.466   7.594  11.954  0.00  0.00    +0.000 HD
ATOM     14  H   UNL     1      42.587   6.857  10.657  0.00  0.00    +0.000 HD
ENDBRANCH   6  10
BRANCH   1  15
ATOM     15  C   UNL     1      48.652   6.661  15.936  0.00  0.00    +0.000 C 
BRANCH  15  19
ATOM     16  C   UNL     1      51.321   3.742  17.750  0.00  0.00    +0.000 A 
ATOM     17  C   UNL     1      51.794   4.998  17.350  0.00  0.00    +0.000 A 
ATOM     18  C   UNL     1      50.928   5.954  16.808  0.00  0.00    +0.000 A 
ATOM     19  C   UNL     1      49.570   5.673  16.630  0.00  0.00    +0.000 A 
ATOM     20  C   UNL     1      49.096   4.407  17.006  0.00  0.00    +0.000 A 
ATOM     21  C   UNL     1      49.961   3.454  17.556  0.00  0.00    +0.000 A 
BRANCH  16  22
ATOM     22  C   UNL     1      52.227   2.659  18.301  0.00  0.00    +0.000 C 
BRANCH  22  23
ATOM     23  C   UNL     1      52.307   1.375  17.461  0.00  0.00    +0.000 C 
BRANCH  23  24
ATOM     24  N   UNL     1      51.671   0.248  18.145  0.00  0.00    +0.000 NA
ATOM     25  H   UNL     1      51.667   0.423  19.149  0.00  0.00    +0.000 HD
ATOM     26  H   UNL     1      52.230  -0.594  18.006  0.00  0.00    +0.000 HD
ENDBRANCH  23  24
ENDBRANCH  22  23
ENDBRANCH  16  22
ENDBRANCH  15  19
ENDBRANCH   1  15
TORSDOF 6
ENDMDL
MODEL 7
REMARK VINA RESULT:    -5.581      3.356      5.483
REMARK INTER + INTRA:          -8.163
REMARK INTER:                  -7.557
REMARK INTRA:                  -0.605
REMARK UNBOUND:                -0.787
REMARK  Name = 
REMARK  6 active torsions:
REMARK  status: ('A' for Active; 'I' for Inactive)
REMARK    1  A    between atoms: N_1  and  C_2
REMARK    2  A    between atoms: C_2  and  C_3
REMARK    3  A    between atoms: C_3  and  C_4
REMARK    4  A    between atoms: C_7  and  C_8
REMARK    5  A    between atoms: C_8  and  N_9
REMARK    6  A    between atoms: C_14  and  C_15
REMARK                            x       y       z     vdW  Elec       q    Type
REMARK                         _______ _______ _______ _____ _____    ______ ____
ROOT
ATOM      1  N   UNL     1      47.431   7.262  13.613  0.00  0.00    +0.000 N 
ATOM      2  N   UNL     1      48.154   6.250  14.138  0.00  0.00    +0.000 NA
ATOM      3  N   UNL     1      47.651   5.122  13.654  0.00  0.00    +0.000 NA
ATOM      4  C   UNL     1      46.539   5.436  12.922  0.00  0.00    +0.000 A 
ATOM      5  C   UNL     1      45.719   4.635  12.116  0.00  0.00    +0.000 A 
ATOM      6  C   UNL     1      44.620   5.225  11.470  0.00  0.00    +0.000 A 
ATOM      7  C   UNL     1      44.312   6.577  11.696  0.00  0.00    +0.000 A 
ATOM      8  C   UNL     1      45.144   7.402  12.469  0.00  0.00    +0.000 A 
ATOM      9  C   UNL     1      46.280   6.797  13.026  0.00  0.00    +0.000 A 
ENDROOT
BRANCH   6  10
ATOM     10  C   UNL     1      43.868   4.359  10.516  0.00  0.00    +0.000 C 
ATOM     11  N   UNL     1      44.002   4.574   9.174  0.00  0.00    +0.000 N 
ATOM     12  O   UNL     1      43.149   3.446  10.912  0.00  0.00    +0.000 OA
ATOM     13  H   UNL     1      44.538   5.312   8.748  0.00  0.00    +0.000 HD
ATOM     14  H   UNL     1      43.485   3.949   8.570  0.00  0.00    +0.000 HD
ENDBRANCH   6  10
BRANCH   1  15
ATOM     15  C   UNL     1      48.101   8.520  13.318  0.00  0.00    +0.000 C 
BRANCH  15  19
ATOM     16  C   UNL     1      51.934   7.918  11.347  0.00  0.00    +0.000 A 
ATOM     17  C   UNL     1      51.865   8.481  12.627  0.00  0.00    +0.000 A 
ATOM     18  C   UNL     1      50.637   8.634  13.282  0.00  0.00    +0.000 A 
ATOM     19  C   UNL     1      49.442   8.248  12.663  0.00  0.00    +0.000 A 
ATOM     20  C   UNL     1      49.505   7.708  11.370  0.00  0.00    +0.000 A 
ATOM     21  C   UNL     1      50.734   7.548  10.721  0.00  0.00    +0.000 A 
BRANCH  16  22
ATOM     22  C   UNL     1      53.235   7.773  10.582  0.00  0.00    +0.000 C 
BRANCH  22  23
ATOM     23  C   UNL     1      53.303   6.580   9.617  0.00  0.00    +0.000 C 
BRANCH  23  24
ATOM     24  N   UNL     1      53.566   5.329  10.330  0.00  0.00    +0.000 NA
ATOM     25  H   UNL     1      54.179   5.517  11.123  0.00  0.00    +0.000 HD
ATOM     26  H   UNL     1      54.077   4.691   9.721  0.00  0.00    +0.000 HD
ENDBRANCH  23  24
ENDBRANCH  22  23
ENDBRANCH  16  22
ENDBRANCH  15  19
ENDBRANCH   1  15
TORSDOF 6
ENDMDL
MODEL 8
REMARK VINA RESULT:    -5.128      4.110      6.152
REMARK INTER + INTRA:          -7.563
REMARK INTER:                  -6.719
REMARK INTRA:                  -0.844
REMARK UNBOUND:                -0.787
REMARK  Name = 
REMARK  6 active torsions:
REMARK  status: ('A' for Active; 'I' for Inactive)
REMARK    1  A    between atoms: N_1  and  C_2
REMARK    2  A    between atoms: C_2  and  C_3
REMARK    3  A    between atoms: C_3  and  C_4
REMARK    4  A    between atoms: C_7  and  C_8
REMARK    5  A    between atoms: C_8  and  N_9
REMARK    6  A    between atoms: C_14  and  C_15
REMARK                            x       y       z     vdW  Elec       q    Type
REMARK                         _______ _______ _______ _____ _____    ______ ____
ROOT
ATOM      1  N   UNL     1      47.913   8.976  12.468  0.00  0.00    +0.000 N 
ATOM      2  N   UNL     1      47.116  10.062  12.394  0.00  0.00    +0.000 NA
ATOM      3  N   UNL     1      45.865   9.633  12.499  0.00  0.00    +0.000 NA
ATOM      4  C   UNL     1      45.889   8.265  12.519  0.00  0.00    +0.000 A 
ATOM      5  C   UNL     1      44.862   7.336  12.731  0.00  0.00    +0.000 A 
ATOM      6  C   UNL     1      45.170   5.966  12.694  0.00  0.00    +0.000 A 
ATOM      7  C   UNL     1      46.470   5.544  12.371  0.00  0.00    +0.000 A 
ATOM      8  C   UNL     1      47.518   6.461  12.194  0.00  0.00    +0.000 A 
ATOM      9  C   UNL     1      47.190   7.818  12.326  0.00  0.00    +0.000 A 
ENDROOT
BRANCH   6  10
ATOM     10  C   UNL     1      44.070   5.028  13.065  0.00  0.00    +0.000 C 
ATOM     11  N   UNL     1      42.792   5.502  13.149  0.00  0.00    +0.000 N 
ATOM     12  O   UNL     1      44.287   3.839  13.276  0.00  0.00    +0.000 OA
ATOM     13  H   UNL     1      42.512   6.462  13.026  0.00  0.00    +0.000 HD
ATOM     14  H   UNL     1      42.080   4.824  13.386  0.00  0.00    +0.000 HD
ENDBRANCH   6  10
BRANCH   1  15
ATOM     15  C   UNL     1      49.213   9.107  13.111  0.00  0.00    +0.000 C 
BRANCH  15  19
ATOM     16  C   UNL     1      48.879   7.342  17.075  0.00  0.00    +0.000 A 
ATOM     17  C   UNL     1      49.536   6.666  16.040  0.00  0.00    +0.000 A 
ATOM     18  C   UNL     1      49.685   7.251  14.777  0.00  0.00    +0.000 A 
ATOM     19  C   UNL     1      49.159   8.520  14.509  0.00  0.00    +0.000 A 
ATOM     20  C   UNL     1      48.476   9.190  15.535  0.00  0.00    +0.000 A 
ATOM     21  C   UNL     1      48.337   8.607  16.800  0.00  0.00    +0.000 A 
BRANCH  16  22
ATOM     22  C   UNL     1      48.656   6.732  18.445  0.00  0.00    +0.000 C 
BRANCH  22  23
ATOM     23  C   UNL     1      47.187   6.510  18.836  0.00  0.00    +0.000 C 
BRANCH  23  24
ATOM     24  N   UNL     1      46.699   5.212  18.367  0.00  0.00    +0.000 NA
ATOM     25  H   UNL     1      45.863   4.957  18.893  0.00  0.00    +0.000 HD
ATOM     26  H   UNL     1      47.392   4.493  18.571  0.00  0.00    +0.000 HD
ENDBRANCH  23  24
ENDBRANCH  22  23
ENDBRANCH  16  22
ENDBRANCH  15  19
ENDBRANCH   1  15
TORSDOF 6
ENDMDL
MODEL 9
REMARK VINA RESULT:    -5.075      3.936      8.711
REMARK INTER + INTRA:          -7.494
REMARK INTER:                  -7.030
REMARK INTRA:                  -0.464
REMARK UNBOUND:                -0.787
REMARK  Name = 
REMARK  6 active torsions:
REMARK  status: ('A' for Active; 'I' for Inactive)
REMARK    1  A    between atoms: N_1  and  C_2
REMARK    2  A    between atoms: C_2  and  C_3
REMARK    3  A    between atoms: C_3  and  C_4
REMARK    4  A    between atoms: C_7  and  C_8
REMARK    5  A    between atoms: C_8  and  N_9
REMARK    6  A    between atoms: C_14  and  C_15
REMARK                            x       y       z     vdW  Elec       q    Type
REMARK                         _______ _______ _______ _____ _____    ______ ____
ROOT
ATOM      1  N   UNL     1      48.413   7.010  15.032  0.00  0.00    +0.000 N 
ATOM      2  N   UNL     1      48.410   8.339  15.264  0.00  0.00    +0.000 NA
ATOM      3  N   UNL     1      48.875   8.520  16.493  0.00  0.00    +0.000 NA
ATOM      4  C   UNL     1      49.054   7.289  17.062  0.00  0.00    +0.000 A 
ATOM      5  C   UNL     1      49.627   6.922  18.286  0.00  0.00    +0.000 A 
ATOM      6  C   UNL     1      49.680   5.561  18.629  0.00  0.00    +0.000 A 
ATOM      7  C   UNL     1      49.096   4.600  17.788  0.00  0.00    +0.000 A 
ATOM      8  C   UNL     1      48.553   4.946  16.540  0.00  0.00    +0.000 A 
ATOM      9  C   UNL     1      48.598   6.304  16.195  0.00  0.00    +0.000 A 
ENDROOT
BRANCH   6  10
ATOM     10  C   UNL     1      50.425   5.220  19.876  0.00  0.00    +0.000 C 
ATOM     11  N   UNL     1      49.806   4.473  20.837  0.00  0.00    +0.000 N 
ATOM     12  O   UNL     1      51.586   5.578  20.045  0.00  0.00    +0.000 OA
ATOM     13  H   UNL     1      48.850   4.156  20.811  0.00  0.00    +0.000 HD
ATOM     14  H   UNL     1      50.359   4.253  21.655  0.00  0.00    +0.000 HD
ENDBRANCH   6  10
BRANCH   1  15
ATOM     15  C   UNL     1      48.691   6.537  13.683  0.00  0.00    +0.000 C 
BRANCH  15  19
ATOM     16  C   UNL     1      45.133   5.002  11.704  0.00  0.00    +0.000 A 
ATOM     17  C   UNL     1      45.670   4.353  12.822  0.00  0.00    +0.000 A 
ATOM     18  C   UNL     1      46.787   4.870  13.488  0.00  0.00    +0.000 A 
ATOM     19  C   UNL     1      47.412   6.038  13.038  0.00  0.00    +0.000 A 
ATOM     20  C   UNL     1      46.893   6.678  11.902  0.00  0.00    +0.000 A 
ATOM     21  C   UNL     1      45.770   6.164  11.243  0.00  0.00    +0.000 A 
BRANCH  16  22
ATOM     22  C   UNL     1      43.952   4.456  10.925  0.00  0.00    +0.000 C 
BRANCH  22  23
ATOM     23  C   UNL     1      43.960   2.938  10.691  0.00  0.00    +0.000 C 
BRANCH  23  24
ATOM     24  N   UNL     1      43.025   2.254  11.586  0.00  0.00    +0.000 NA
ATOM     25  H   UNL     1      43.540   1.855  12.370  0.00  0.00    +0.000 HD
ATOM     26  H   UNL     1      42.598   1.467  11.097  0.00  0.00    +0.000 HD
ENDBRANCH  23  24
ENDBRANCH  22  23
ENDBRANCH  16  22
ENDBRANCH  15  19
ENDBRANCH   1  15
TORSDOF 6
ENDMDL
