MODEL 1
REMARK VINA RESULT:    -7.244      0.000      0.000
REMARK INTER + INTRA:          -9.399
REMARK INTER:                  -8.937
REMARK INTRA:                  -0.461
REMARK UNBOUND:                -0.461
REMARK  Name = 
REMARK  4 active torsions:
REMARK  status: ('A' for Active; 'I' for Inactive)
REMARK    1  A    between atoms: C_2  and  C_3
REMARK    2  A    between atoms: C_6  and  N_7
REMARK    3  A    between atoms: N_7  and  C_8
REMARK    4  A    between atoms: C_8  and  C_9
REMARK                            x       y       z     vdW  Elec       q    Type
REMARK                         _______ _______ _______ _____ _____    ______ ____
ROOT
ATOM      1  N   UNL     1      43.705   3.792  10.245  0.00  0.00    +0.000 N 
ATOM      2  H   UNL     1      42.777   3.457  10.011  0.00  0.00    +0.000 HD
ENDROOT
BRANCH   1   6
ATOM      3  C   UNL     1      46.570   2.550   7.560  0.00  0.00    +0.000 A 
ATOM      4  C   UNL     1      46.203   3.881   7.627  0.00  0.00    +0.000 A 
ATOM      5  N   UNL     1      45.265   4.332   8.496  0.00  0.00    +0.000 NA
ATOM      6  C   UNL     1      44.678   3.423   9.302  0.00  0.00    +0.000 A 
ATOM      7  C   UNL     1      45.075   2.084   9.222  0.00  0.00    +0.000 A 
ATOM      8  N   UNL     1      46.016   1.613   8.360  0.00  0.00    +0.000 NA
BRANCH   3  10
ATOM      9  N   UNL     1      48.330   1.739   5.837  0.00  0.00    +0.000 NA
ATOM     10  C   UNL     1      47.560   2.114   6.626  0.00  0.00    +0.000 C 
ENDBRANCH   3  10
ENDBRANCH   1   6
BRANCH   1  11
ATOM     11  C   UNL     1      43.798   4.940  11.155  0.00  0.00    +0.000 C 
ATOM     12  C   UNL     1      42.563   5.331  11.956  0.00  0.00    +0.000 C 
ATOM     13  C   UNL     1      43.114   6.282  10.947  0.00  0.00    +0.000 C 
BRANCH  11  14
ATOM     14  C   UNL     1      45.150   5.016  11.860  0.00  0.00    +0.000 A 
ATOM     15  C   UNL     1      45.994   6.120  11.656  0.00  0.00    +0.000 A 
ATOM     16  C   UNL     1      47.131   6.318  12.439  0.00  0.00    +0.000 A 
ATOM     17  C   UNL     1      47.461   5.394  13.426  0.00  0.00    +0.000 A 
ATOM     18  C   UNL     1      46.690   4.246  13.589  0.00  0.00    +0.000 A 
ATOM     19  C   UNL     1      45.555   4.052  12.799  0.00  0.00    +0.000 A 
ENDBRANCH  11  14
ENDBRANCH   1  11
TORSDOF 4
ENDMDL
MODEL 2
REMARK VINA RESULT:    -6.349      2.935      5.770
REMARK INTER + INTRA:          -8.294
REMARK INTER:                  -7.970
REMARK INTRA:                  -0.324
REMARK UNBOUND:                -0.461
REMARK  Name = 
REMARK  4 active torsions:
REMARK  status: ('A' for Active; 'I' for Inactive)
REMARK    1  A    between atoms: C_2  and  C_3
REMARK    2  A    between atoms: C_6  and  N_7
REMARK    3  A    between atoms: N_7  and  C_8
REMARK    4  A    between atoms: C_8  and  C_9
REMARK                            x       y       z     vdW  Elec       q    Type
REMARK                         _______ _______ _______ _____ _____    ______ ____
ROOT
ATOM      1  N   UNL     1      45.649   5.374  11.603  0.00  0.00    +0.000 N 
ATOM      2  H   UNL     1      45.737   6.369  11.429  0.00  0.00    +0.000 HD
ENDROOT
BRANCH   1   6
ATOM      3  C   UNL     1      47.385   4.014  15.081  0.00  0.00    +0.000 A 
ATOM      4  C   UNL     1      47.161   5.364  14.891  0.00  0.00    +0.000 A 
ATOM      5  N   UNL     1      46.593   5.855  13.762  0.00  0.00    +0.000 NA
ATOM      6  C   UNL     1      46.255   4.968  12.803  0.00  0.00    +0.000 A 
ATOM      7  C   UNL     1      46.482   3.606  13.023  0.00  0.00    +0.000 A 
ATOM      8  N   UNL     1      47.047   3.094  14.150  0.00  0.00    +0.000 NA
BRANCH   3  10
ATOM      9  N   UNL     1      48.516   3.122  17.237  0.00  0.00    +0.000 NA
ATOM     10  C   UNL     1      47.991   3.537  16.284  0.00  0.00    +0.000 C 
ENDBRANCH   3  10
ENDBRANCH   1   6
BRANCH   1  11
ATOM     11  C   UNL     1      44.559   4.664  10.921  0.00  0.00    +0.000 C 
ATOM     12  C   UNL     1      43.197   5.340  10.836  0.00  0.00    +0.000 C 
ATOM     13  C   UNL     1      43.338   4.069  11.603  0.00  0.00    +0.000 C 
BRANCH  11  14
ATOM     14  C   UNL     1      45.043   3.894   9.696  0.00  0.00    +0.000 A 
ATOM     15  C   UNL     1      45.661   4.571   8.631  0.00  0.00    +0.000 A 
ATOM     16  C   UNL     1      46.296   3.877   7.601  0.00  0.00    +0.000 A 
ATOM     17  C   UNL     1      46.298   2.485   7.602  0.00  0.00    +0.000 A 
ATOM     18  C   UNL     1      45.616   1.791   8.599  0.00  0.00    +0.000 A 
ATOM     19  C   UNL     1      44.979   2.492   9.625  0.00  0.00    +0.000 A 
ENDBRANCH  11  14
ENDBRANCH   1  11
TORSDOF 4
ENDMDL
MODEL 3
REMARK VINA RESULT:    -6.157      2.871      5.926
REMARK INTER + INTRA:          -8.057
REMARK INTER:                  -7.847
REMARK INTRA:                  -0.210
REMARK UNBOUND:                -0.461
REMARK  Name = 
REMARK  4 active torsions:
REMARK  status: ('A' for Active; 'I' for Inactive)
REMARK    1  A    between atoms: C_2  and  C_3
REMARK    2  A    between atoms: C_6  and  N_7
REMARK    3  A    between atoms: N_7  and  C_8
REMARK    4  A    between atoms: C_8  and  C_9
REMARK                            x       y       z     vdW  Elec       q    Type
REMARK                         _______ _______ _______ _____ _____    ______ ____
ROOT
ATOM      1  N   UNL     1      44.558   5.619  10.610  0.00  0.00    +0.000 N 
ATOM      2  H   UNL     1      43.699   6.079  10.332  0.00  0.00    +0.000 HD
ENDROOT
BRANCH   1   6
ATOM      3  C   UNL     1      46.919   8.162  12.828  0.00  0.00    +0.000 A 
ATOM      4  C   UNL     1      47.489   7.139  12.095  0.00  0.00    +0.000 A 
ATOM      5  N   UNL     1      46.749   6.279  11.352  0.00  0.00    +0.000 NA
ATOM      6  C   UNL     1      45.411   6.448  11.357  0.00  0.00    +0.000 A 
ATOM      7  C   UNL     1      44.859   7.499  12.099  0.00  0.00    +0.000 A 
ATOM      8  N   UNL     1      45.584   8.373  12.847  0.00  0.00    +0.000 NA
BRANCH   3  10
ATOM      9  N   UNL     1      48.436   9.749  14.209  0.00  0.00    +0.000 NA
ATOM     10  C   UNL     1      47.733   9.044  13.604  0.00  0.00    +0.000 C 
ENDBRANCH   3  10
ENDBRANCH   1   6
BRANCH   1  11
ATOM     11  C   UNL     1      44.556   4.152  10.646  0.00  0.00    +0.000 C 
ATOM     12  C   UNL     1      43.357   3.444  11.263  0.00  0.00    +0.000 C 
ATOM     13  C   UNL     1      44.698   3.305  11.901  0.00  0.00    +0.000 C 
BRANCH  11  14
ATOM     14  C   UNL     1      45.169   3.537   9.391  0.00  0.00    +0.000 A 
ATOM     15  C   UNL     1      45.689   4.362   8.380  0.00  0.00    +0.000 A 
ATOM     16  C   UNL     1      46.437   3.835   7.327  0.00  0.00    +0.000 A 
ATOM     17  C   UNL     1      46.654   2.462   7.251  0.00  0.00    +0.000 A 
ATOM     18  C   UNL     1      46.075   1.615   8.192  0.00  0.00    +0.000 A 
ATOM     19  C   UNL     1      45.324   2.148   9.242  0.00  0.00    +0.000 A 
ENDBRANCH  11  14
ENDBRANCH   1  11
TORSDOF 4
ENDMDL
MODEL 4
REMARK VINA RESULT:    -5.966      3.076      5.713
REMARK INTER + INTRA:          -7.823
REMARK INTER:                  -7.575
REMARK INTRA:                  -0.248
REMARK UNBOUND:                -0.461
REMARK  Name = 
REMARK  4 active torsions:
REMARK  status: ('A' for Active; 'I' for Inactive)
REMARK    1  A    between atoms: C_2  and  C_3
REMARK    2  A    between atoms: C_6  and  N_7
REMARK    3  A    between atoms: N_7  and  C_8
REMARK    4  A    between atoms: C_8  and  C_9
REMARK                            x       y       z     vdW  Elec       q    Type
REMARK                         _______ _______ _______ _____ _____    ______ ____
ROOT
ATOM      1  N   UNL     1      45.077   6.393  11.265  0.00  0.00    +0.000 N 
ATOM      2  H   UNL     1      44.749   7.284  10.910  0.00  0.00    +0.000 HD
ENDROOT
BRANCH   1   6
ATOM      3  C   UNL     1      48.102   6.590  14.053  0.00  0.00    +0.000 A 
ATOM      4  C   UNL     1      47.471   7.741  13.622  0.00  0.00    +0.000 A 
ATOM      5  N   UNL     1      46.471   7.722  12.706  0.00  0.00    +0.000 NA
ATOM      6  C   UNL     1      46.110   6.521  12.208  0.00  0.00    +0.000 A 
ATOM      7  C   UNL     1      46.757   5.369  12.668  0.00  0.00    +0.000 A 
ATOM      8  N   UNL     1      47.758   5.367  13.588  0.00  0.00    +0.000 NA
BRANCH   3  10
ATOM      9  N   UNL     1      50.001   6.659  15.817  0.00  0.00    +0.000 NA
ATOM     10  C   UNL     1      49.155   6.652  15.016  0.00  0.00    +0.000 C 
ENDBRANCH   3  10
ENDBRANCH   1   6
BRANCH   1  11
ATOM     11  C   UNL     1      44.166   5.248  11.156  0.00  0.00    +0.000 C 
ATOM     12  C   UNL     1      42.678   5.482  11.381  0.00  0.00    +0.000 C 
ATOM     13  C   UNL     1      43.431   4.597  12.317  0.00  0.00    +0.000 C 
BRANCH  11  14
ATOM     14  C   UNL     1      44.568   4.288  10.039  0.00  0.00    +0.000 A 
ATOM     15  C   UNL     1      45.351   4.740   8.964  0.00  0.00    +0.000 A 
ATOM     16  C   UNL     1      45.905   3.849   8.045  0.00  0.00    +0.000 A 
ATOM     17  C   UNL     1      45.658   2.484   8.169  0.00  0.00    +0.000 A 
ATOM     18  C   UNL     1      44.814   2.020   9.174  0.00  0.00    +0.000 A 
ATOM     19  C   UNL     1      44.259   2.918  10.088  0.00  0.00    +0.000 A 
ENDBRANCH  11  14
ENDBRANCH   1  11
TORSDOF 4
ENDMDL
MODEL 5
REMARK VINA RESULT:    -5.470      3.644      6.515
REMARK INTER + INTRA:          -7.210
REMARK INTER:                  -7.519
REMARK INTRA:                   0.309
REMARK UNBOUND:                -0.461
REMARK  Name = 
REMARK  4 active torsions:
REMARK  status: ('A' for Active; 'I' for Inactive)
REMARK    1  A    between atoms: C_2  and  C_3
REMARK    2  A    between atoms: C_6  and  N_7
REMARK    3  A    between atoms: N_7  and  C_8
REMARK    4  A    between atoms: C_8  and  C_9
REMARK                            x       y       z     vdW  Elec       q    Type
REMARK                         _______ _______ _______ _____ _____    ______ ____
ROOT
ATOM      1  N   UNL     1      45.978   3.532  13.218  0.00  0.00    +0.000 N 
ATOM      2  H   UNL     1      46.461   2.722  12.847  0.00  0.00    +0.000 HD
ENDROOT
BRANCH   1   6
ATOM      3  C   UNL     1      48.371   5.841  15.648  0.00  0.00    +0.000 A 
ATOM      4  C   UNL     1      47.678   4.764  16.167  0.00  0.00    +0.000 A 
ATOM      5  N   UNL     1      46.880   3.978  15.403  0.00  0.00    +0.000 NA
ATOM      6  C   UNL     1      46.769   4.292  14.096  0.00  0.00    +0.000 A 
ATOM      7  C   UNL     1      47.489   5.381  13.593  0.00  0.00    +0.000 A 
ATOM      8  N   UNL     1      48.298   6.178  14.341  0.00  0.00    +0.000 NA
BRANCH   3  10
ATOM      9  N   UNL     1      49.883   7.266  17.200  0.00  0.00    +0.000 NA
ATOM     10  C   UNL     1      49.199   6.648  16.488  0.00  0.00    +0.000 C 
ENDBRANCH   3  10
ENDBRANCH   1   6
BRANCH   1  11
ATOM     11  C   UNL     1      44.830   4.040  12.457  0.00  0.00    +0.000 C 
ATOM     12  C   UNL     1      44.127   5.295  12.957  0.00  0.00    +0.000 C 
ATOM     13  C   UNL     1      43.383   4.003  12.924  0.00  0.00    +0.000 C 
BRANCH  11  14
ATOM     14  C   UNL     1      45.017   3.888  10.950  0.00  0.00    +0.000 A 
ATOM     15  C   UNL     1      44.534   2.748  10.287  0.00  0.00    +0.000 A 
ATOM     16  C   UNL     1      44.504   2.677   8.894  0.00  0.00    +0.000 A 
ATOM     17  C   UNL     1      44.987   3.740   8.137  0.00  0.00    +0.000 A 
ATOM     18  C   UNL     1      45.552   4.844   8.770  0.00  0.00    +0.000 A 
ATOM     19  C   UNL     1      45.582   4.907  10.164  0.00  0.00    +0.000 A 
ENDBRANCH  11  14
ENDBRANCH   1  11
TORSDOF 4
ENDMDL
MODEL 6
REMARK VINA RESULT:    -5.379      3.755      6.520
REMARK INTER + INTRA:          -7.097
REMARK INTER:                  -6.713
REMARK INTRA:                  -0.384
REMARK UNBOUND:                -0.461
REMARK  Name = 
REMARK  4 active torsions:
REMARK  status: ('A' for Active; 'I' for Inactive)
REMARK    1  A    between atoms: C_2  and  C_3
REMARK    2  A    between atoms: C_6  and  N_7
REMARK    3  A    between atoms: N_7  and  C_8
REMARK    4  A    between atoms: C_8  and  C_9
REMARK                            x       y       z     vdW  Elec       q    Type
REMARK                         _______ _______ _______ _____ _____    ______ ____
ROOT
ATOM      1  N   UNL     1      47.345   6.101  12.536  0.00  0.00    +0.000 N 
ATOM      2  H   UNL     1      48.192   6.414  12.076  0.00  0.00    +0.000 HD
ENDROOT
BRANCH   1   6
ATOM      3  C   UNL     1      47.872   4.543  16.312  0.00  0.00    +0.000 A 
ATOM      4  C   UNL     1      48.515   5.708  15.939  0.00  0.00    +0.000 A 
ATOM      5  N   UNL     1      48.370   6.255  14.707  0.00  0.00    +0.000 NA
ATOM      6  C   UNL     1      47.571   5.609  13.832  0.00  0.00    +0.000 A 
ATOM      7  C   UNL     1      46.923   4.437  14.237  0.00  0.00    +0.000 A 
ATOM      8  N   UNL     1      47.053   3.875  15.468  0.00  0.00    +0.000 NA
BRANCH   3  10
ATOM      9  N   UNL     1      48.156   3.539  18.686  0.00  0.00    +0.000 NA
ATOM     10  C   UNL     1      48.055   3.995  17.619  0.00  0.00    +0.000 C 
ENDBRANCH   3  10
ENDBRANCH   1   6
BRANCH   1  11
ATOM     11  C   UNL     1      46.072   6.643  12.045  0.00  0.00    +0.000 C 
ATOM     12  C   UNL     1      45.976   8.139  11.777  0.00  0.00    +0.000 C 
ATOM     13  C   UNL     1      45.130   7.530  12.843  0.00  0.00    +0.000 C 
BRANCH  11  14
ATOM     14  C   UNL     1      45.381   5.704  11.060  0.00  0.00    +0.000 A 
ATOM     15  C   UNL     1      45.882   5.553   9.756  0.00  0.00    +0.000 A 
ATOM     16  C   UNL     1      45.403   4.555   8.907  0.00  0.00    +0.000 A 
ATOM     17  C   UNL     1      44.388   3.706   9.339  0.00  0.00    +0.000 A 
ATOM     18  C   UNL     1      43.815   3.892  10.594  0.00  0.00    +0.000 A 
ATOM     19  C   UNL     1      44.296   4.895  11.438  0.00  0.00    +0.000 A 
ENDBRANCH  11  14
ENDBRANCH   1  11
TORSDOF 4
ENDMDL
MODEL 7
REMARK VINA RESULT:    -4.970      3.626      5.473
REMARK INTER + INTRA:          -6.594
REMARK INTER:                  -6.231
REMARK INTRA:                  -0.362
REMARK UNBOUND:                -0.461
REMARK  Name = 
REMARK  4 active torsions:
REMARK  status: ('A' for Active; 'I' for Inactive)
REMARK    1  A    between atoms: C_2  and  C_3
REMARK    2  A    between atoms: C_6  and  N_7
REMARK    3  A    between atoms: N_7  and  C_8
REMARK    4  A    between atoms: C_8  and  C_9
REMARK                            x       y       z     vdW  Elec       q    Type
REMARK                         _______ _______ _______ _____ _____    ______ ____
ROOT
ATOM      1  N   UNL     1      46.133   7.704  13.227  0.00  0.00    +0.000 N 
ATOM      2  H   UNL     1      45.566   8.543  13.181  0.00  0.00    +0.000 HD
ENDROOT
BRANCH   1   6
ATOM      3  C   UNL     1      44.193   4.209  12.234  0.00  0.00    +0.000 A 
ATOM      4  C   UNL     1      43.921   5.379  11.551  0.00  0.00    +0.000 A 
ATOM      5  N   UNL     1      44.537   6.552  11.846  0.00  0.00    +0.000 NA
ATOM      6  C   UNL     1      45.432   6.545  12.854  0.00  0.00    +0.000 A 
ATOM      7  C   UNL     1      45.697   5.345  13.523  0.00  0.00    +0.000 A 
ATOM      8  N   UNL     1      45.094   4.160  13.241  0.00  0.00    +0.000 NA
BRANCH   3  10
ATOM      9  N   UNL     1      42.973   2.018  11.575  0.00  0.00    +0.000 NA
ATOM     10  C   UNL     1      43.519   2.995  11.897  0.00  0.00    +0.000 C 
ENDBRANCH   3  10
ENDBRANCH   1   6
BRANCH   1  11
ATOM     11  C   UNL     1      47.590   7.869  13.169  0.00  0.00    +0.000 C 
ATOM     12  C   UNL     1      48.173   8.787  12.103  0.00  0.00    +0.000 C 
ATOM     13  C   UNL     1      48.491   7.331  12.069  0.00  0.00    +0.000 C 
BRANCH  11  14
ATOM     14  C   UNL     1      48.228   7.903  14.555  0.00  0.00    +0.000 A 
ATOM     15  C   UNL     1      48.096   9.042  15.368  0.00  0.00    +0.000 A 
ATOM     16  C   UNL     1      48.486   9.025  16.708  0.00  0.00    +0.000 A 
ATOM     17  C   UNL     1      49.044   7.872  17.252  0.00  0.00    +0.000 A 
ATOM     18  C   UNL     1      49.266   6.760  16.444  0.00  0.00    +0.000 A 
ATOM     19  C   UNL     1      48.878   6.784  15.103  0.00  0.00    +0.000 A 
ENDBRANCH  11  14
ENDBRANCH   1  11
TORSDOF 4
ENDMDL
MODEL 8
REMARK VINA RESULT:    -4.964      4.163      7.058
REMARK INTER + INTRA:          -6.586
REMARK INTER:                  -6.188
REMARK INTRA:                  -0.398
REMARK UNBOUND:                -0.461
REMARK  Name = 
REMARK  4 active torsions:
REMARK  status: ('A' for Active; 'I' for Inactive)
REMARK    1  A    between atoms: C_2  and  C_3
REMARK    2  A    between atoms: C_6  and  N_7
REMARK    3  A    between atoms: N_7  and  C_8
REMARK    4  A    between atoms: C_8  and  C_9
REMARK                            x       y       z     vdW  Elec       q    Type
REMARK                         _______ _______ _______ _____ _____    ______ ____
ROOT
ATOM      1  N   UNL     1      47.666   6.427  13.065  0.00  0.00    +0.000 N 
ATOM      2  H   UNL     1      48.542   6.668  12.617  0.00  0.00    +0.000 HD
ENDROOT
BRANCH   1   6
ATOM      3  C   UNL     1      48.290   4.948  16.858  0.00  0.00    +0.000 A 
ATOM      4  C   UNL     1      47.527   4.242  15.947  0.00  0.00    +0.000 A 
ATOM      5  N   UNL     1      47.296   4.692  14.689  0.00  0.00    +0.000 NA
ATOM      6  C   UNL     1      47.835   5.881  14.348  0.00  0.00    +0.000 A 
ATOM      7  C   UNL     1      48.612   6.571  15.284  0.00  0.00    +0.000 A 
ATOM      8  N   UNL     1      48.858   6.135  16.548  0.00  0.00    +0.000 NA
BRANCH   3  10
ATOM      9  N   UNL     1      48.726   4.049  19.251  0.00  0.00    +0.000 NA
ATOM     10  C   UNL     1      48.506   4.441  18.177  0.00  0.00    +0.000 C 
ENDBRANCH   3  10
ENDBRANCH   1   6
BRANCH   1  11
ATOM     11  C   UNL     1      46.454   7.101  12.584  0.00  0.00    +0.000 C 
ATOM     12  C   UNL     1      46.608   8.400  11.804  0.00  0.00    +0.000 C 
ATOM     13  C   UNL     1      45.909   8.416  13.121  0.00  0.00    +0.000 C 
BRANCH  11  14
ATOM     14  C   UNL     1      45.388   6.116  12.111  0.00  0.00    +0.000 A 
ATOM     15  C   UNL     1      44.242   5.885  12.890  0.00  0.00    +0.000 A 
ATOM     16  C   UNL     1      43.162   5.156  12.391  0.00  0.00    +0.000 A 
ATOM     17  C   UNL     1      43.222   4.619  11.109  0.00  0.00    +0.000 A 
ATOM     18  C   UNL     1      44.381   4.760  10.351  0.00  0.00    +0.000 A 
ATOM     19  C   UNL     1      45.461   5.487  10.857  0.00  0.00    +0.000 A 
ENDBRANCH  11  14
ENDBRANCH   1  11
TORSDOF 4
ENDMDL
MODEL 9
REMARK VINA RESULT:    -4.855      3.444      5.687
REMARK INTER + INTRA:          -6.451
REMARK INTER:                  -6.236
REMARK INTRA:                  -0.215
REMARK UNBOUND:                -0.461
REMARK  Name = 
REMARK  4 active torsions:
REMARK  status: ('A' for Active; 'I' for Inactive)
REMARK    1  A    between atoms: C_2  and  C_3
REMARK    2  A    between atoms: C_6  and  N_7
REMARK    3  A    between atoms: N_7  and  C_8
REMARK    4  A    between atoms: C_8  and  C_9
REMARK                            x       y       z     vdW  Elec       q    Type
REMARK                         _______ _______ _______ _____ _____    ______ ____
ROOT
ATOM      1  N   UNL     1      48.090   6.496  13.221  0.00  0.00    +0.000 N 
ATOM      2  H   UNL     1      48.723   6.028  13.860  0.00  0.00    +0.000 HD
ENDROOT
BRANCH   1   6
ATOM      3  C   UNL     1      44.968   4.017  12.190  0.00  0.00    +0.000 A 
ATOM      4  C   UNL     1      45.311   5.084  11.382  0.00  0.00    +0.000 A 
ATOM      5  N   UNL     1      46.331   5.925  11.684  0.00  0.00    +0.000 NA
ATOM      6  C   UNL     1      47.009   5.692  12.827  0.00  0.00    +0.000 A 
ATOM      7  C   UNL     1      46.649   4.598  13.622  0.00  0.00    +0.000 A 
ATOM      8  N   UNL     1      45.632   3.742  13.335  0.00  0.00    +0.000 NA
BRANCH   3  10
ATOM      9  N   UNL     1      43.019   2.419  11.578  0.00  0.00    +0.000 NA
ATOM     10  C   UNL     1      43.882   3.157  11.839  0.00  0.00    +0.000 C 
ENDBRANCH   3  10
ENDBRANCH   1   6
BRANCH   1  11
ATOM     11  C   UNL     1      48.100   7.964  13.218  0.00  0.00    +0.000 C 
ATOM     12  C   UNL     1      47.907   8.693  14.542  0.00  0.00    +0.000 C 
ATOM     13  C   UNL     1      46.889   8.850  13.463  0.00  0.00    +0.000 C 
BRANCH  11  14
ATOM     14  C   UNL     1      49.121   8.538  12.239  0.00  0.00    +0.000 A 
ATOM     15  C   UNL     1      49.002   9.863  11.788  0.00  0.00    +0.000 A 
ATOM     16  C   UNL     1      50.025  10.477  11.064  0.00  0.00    +0.000 A 
ATOM     17  C   UNL     1      51.178   9.762  10.752  0.00  0.00    +0.000 A 
ATOM     18  C   UNL     1      51.281   8.421  11.113  0.00  0.00    +0.000 A 
ATOM     19  C   UNL     1      50.253   7.811  11.833  0.00  0.00    +0.000 A 
ENDBRANCH  11  14
ENDBRANCH   1  11
TORSDOF 4
ENDMDL
