MODEL 1
REMARK VINA RESULT:    -7.268      0.000      0.000
REMARK INTER + INTRA:         -12.484
REMARK INTER:                 -10.668
REMARK INTRA:                  -1.816
REMARK UNBOUND:                -1.816
REMARK  Name = 
REMARK  8 active torsions:
REMARK  status: ('A' for Active; 'I' for Inactive)
REMARK    1  A    between atoms: C_2  and  C_3
REMARK    2  A    between atoms: C_3  and  N_4
REMARK    3  A    between atoms: C_5  and  C_7
REMARK    4  A    between atoms: N_12  and  C_13
REMARK    5  A    between atoms: C_13  and  C_14
REMARK    6  A    between atoms: C_17  and  C_18
REMARK    7  A    between atoms: C_18  and  N_19
REMARK    8  A    between atoms: C_20  and  C_22
REMARK                            x       y       z     vdW  Elec       q    Type
REMARK                         _______ _______ _______ _____ _____    ______ ____
ROOT
ATOM      1  C   UNL     1      49.017   8.147  15.979  0.00  0.00    +0.000 A 
ATOM      2  C   UNL     1      48.973   6.910  15.320  0.00  0.00    +0.000 A 
ATOM      3  C   UNL     1      48.433   6.805  14.030  0.00  0.00    +0.000 A 
ATOM      4  C   UNL     1      47.942   7.939  13.367  0.00  0.00    +0.000 A 
ATOM      5  C   UNL     1      47.973   9.170  14.034  0.00  0.00    +0.000 A 
ATOM      6  C   UNL     1      48.515   9.275  15.319  0.00  0.00    +0.000 A 
ENDROOT
BRANCH   1   7
ATOM      7  C   UNL     1      49.618   8.277  17.356  0.00  0.00    +0.000 C 
BRANCH   7  10
ATOM      8  O   UNL     1      49.590   7.407  20.054  0.00  0.00    +0.000 OA
ATOM      9  C   UNL     1      50.000   6.649  19.177  0.00  0.00    +0.000 C 
ATOM     10  N   UNL     1      50.099   7.007  17.851  0.00  0.00    +0.000 N 
ATOM     11  H   UNL     1      50.534   6.359  17.199  0.00  0.00    +0.000 HD
BRANCH   9  12
ATOM     12  C   UNL     1      50.527   5.248  19.501  0.00  0.00    +0.000 C 
BRANCH  12  13
ATOM     13  N   UNL     1      49.643   4.214  18.992  0.00  0.00    +0.000 N 
ATOM     14  C   UNL     1      49.875   3.641  17.764  0.00  0.00    +0.000 C 
ATOM     15  O   UNL     1      50.820   3.991  17.059  0.00  0.00    +0.000 OA
ATOM     16  H   UNL     1      48.904   3.860  19.590  0.00  0.00    +0.000 HD
BRANCH  14  17
ATOM     17  C   UNL     1      48.860   2.547  17.365  0.00  0.00    +0.000 C 
ATOM     18  C   UNL     1      47.441   2.880  17.793  0.00  0.00    +0.000 C 
ATOM     19  C   UNL     1      46.961   3.830  16.709  0.00  0.00    +0.000 C 
ATOM     20  C   UNL     1      47.752   3.433  15.470  0.00  0.00    +0.000 C 
ATOM     21  N   UNL     1      48.752   2.446  15.895  0.00  0.00    +0.000 NA
ATOM     22  H   UNL     1      49.644   2.638  15.443  0.00  0.00    +0.000 HD
ENDBRANCH  14  17
ENDBRANCH  12  13
ENDBRANCH   9  12
ENDBRANCH   7  10
ENDBRANCH   1   7
BRANCH   4  23
ATOM     23  C   UNL     1      47.373   7.849  11.972  0.00  0.00    +0.000 C 
BRANCH  23  24
ATOM     24  N   UNL     1      46.726   6.581  11.738  0.00  0.00    +0.000 N 
ATOM     25  C   UNL     1      45.358   6.476  11.699  0.00  0.00    +0.000 C 
ATOM     26  O   UNL     1      44.623   7.452  11.827  0.00  0.00    +0.000 OA
ATOM     27  H   UNL     1      47.281   5.747  11.898  0.00  0.00    +0.000 HD
BRANCH  25  28
ATOM     28  C   UNL     1      44.810   5.138  11.434  0.00  0.00    +0.000 A 
ATOM     29  C   UNL     1      44.074   4.484  12.413  0.00  0.00    +0.000 A 
ATOM     30  S   UNL     1      43.481   2.961  11.920  0.00  0.00    +0.000 S 
ATOM     31  C   UNL     1      44.231   3.100  10.400  0.00  0.00    +0.000 A 
ATOM     32  N   UNL     1      44.146   2.100   9.483  0.00  0.00    +0.000 NA
ATOM     33  C   UNL     1      44.790   2.324   8.386  0.00  0.00    +0.000 A 
ATOM     34  N   UNL     1      45.501   3.465   8.121  0.00  0.00    +0.000 N 
ATOM     35  C   UNL     1      45.588   4.514   9.001  0.00  0.00    +0.000 A 
ATOM     36  O   UNL     1      46.191   5.544   8.712  0.00  0.00    +0.000 OA
ATOM     37  C   UNL     1      44.902   4.302  10.261  0.00  0.00    +0.000 A 
ATOM     38  H   UNL     1      45.974   3.587   7.234  0.00  0.00    +0.000 HD
ENDBRANCH  25  28
ENDBRANCH  23  24
ENDBRANCH   4  23
TORSDOF 8
ENDMDL
MODEL 2
REMARK VINA RESULT:    -6.964      3.038      9.259
REMARK INTER + INTRA:         -12.037
REMARK INTER:                 -11.103
REMARK INTRA:                  -0.934
REMARK UNBOUND:                -1.816
REMARK  Name = 
REMARK  8 active torsions:
REMARK  status: ('A' for Active; 'I' for Inactive)
REMARK    1  A    between atoms: C_2  and  C_3
REMARK    2  A    between atoms: C_3  and  N_4
REMARK    3  A    between atoms: C_5  and  C_7
REMARK    4  A    between atoms: N_12  and  C_13
REMARK    5  A    between atoms: C_13  and  C_14
REMARK    6  A    between atoms: C_17  and  C_18
REMARK    7  A    between atoms: C_18  and  N_19
REMARK    8  A    between atoms: C_20  and  C_22
REMARK                            x       y       z     vdW  Elec       q    Type
REMARK                         _______ _______ _______ _____ _____    ______ ____
ROOT
ATOM      1  C   UNL     1      44.777   4.569  12.860  0.00  0.00    +0.000 A 
ATOM      2  C   UNL     1      46.095   4.305  13.261  0.00  0.00    +0.000 A 
ATOM      3  C   UNL     1      47.001   5.353  13.475  0.00  0.00    +0.000 A 
ATOM      4  C   UNL     1      46.603   6.687  13.309  0.00  0.00    +0.000 A 
ATOM      5  C   UNL     1      45.290   6.947  12.893  0.00  0.00    +0.000 A 
ATOM      6  C   UNL     1      44.385   5.902  12.683  0.00  0.00    +0.000 A 
ENDROOT
BRANCH   1   7
ATOM      7  C   UNL     1      43.786   3.452  12.651  0.00  0.00    +0.000 C 
BRANCH   7  10
ATOM      8  O   UNL     1      43.466   3.982   9.885  0.00  0.00    +0.000 OA
ATOM      9  C   UNL     1      44.029   2.949  10.243  0.00  0.00    +0.000 C 
ATOM     10  N   UNL     1      44.180   2.586  11.562  0.00  0.00    +0.000 N 
ATOM     11  H   UNL     1      44.573   1.673  11.779  0.00  0.00    +0.000 HD
BRANCH   9  12
ATOM     12  C   UNL     1      44.543   1.917   9.234  0.00  0.00    +0.000 C 
BRANCH  12  13
ATOM     13  N   UNL     1      45.703   2.409   8.511  0.00  0.00    +0.000 N 
ATOM     14  C   UNL     1      46.575   1.531   7.913  0.00  0.00    +0.000 C 
ATOM     15  O   UNL     1      46.411   0.314   7.980  0.00  0.00    +0.000 OA
ATOM     16  H   UNL     1      45.814   3.408   8.380  0.00  0.00    +0.000 HD
BRANCH  14  17
ATOM     17  C   UNL     1      47.751   2.202   7.169  0.00  0.00    +0.000 C 
ATOM     18  C   UNL     1      47.883   1.727   5.732  0.00  0.00    +0.000 C 
ATOM     19  C   UNL     1      46.842   2.551   4.993  0.00  0.00    +0.000 C 
ATOM     20  C   UNL     1      46.724   3.837   5.799  0.00  0.00    +0.000 C 
ATOM     21  N   UNL     1      47.515   3.654   7.022  0.00  0.00    +0.000 NA
ATOM     22  H   UNL     1      47.011   4.031   7.822  0.00  0.00    +0.000 HD
ENDBRANCH  14  17
ENDBRANCH  12  13
ENDBRANCH   9  12
ENDBRANCH   7  10
ENDBRANCH   1   7
BRANCH   4  23
ATOM     23  C   UNL     1      47.559   7.830  13.550  0.00  0.00    +0.000 C 
BRANCH  23  24
ATOM     24  N   UNL     1      48.018   7.864  14.917  0.00  0.00    +0.000 N 
ATOM     25  C   UNL     1      49.280   7.443  15.255  0.00  0.00    +0.000 C 
ATOM     26  O   UNL     1      50.086   7.051  14.414  0.00  0.00    +0.000 OA
ATOM     27  H   UNL     1      47.307   7.922  15.639  0.00  0.00    +0.000 HD
BRANCH  25  28
ATOM     28  C   UNL     1      49.646   7.542  16.675  0.00  0.00    +0.000 A 
ATOM     29  C   UNL     1      50.027   8.766  17.209  0.00  0.00    +0.000 A 
ATOM     30  S   UNL     1      50.376   8.705  18.879  0.00  0.00    +0.000 S 
ATOM     31  C   UNL     1      50.082   7.031  18.935  0.00  0.00    +0.000 A 
ATOM     32  N   UNL     1      50.237   6.331  20.090  0.00  0.00    +0.000 NA
ATOM     33  C   UNL     1      50.013   5.063  19.981  0.00  0.00    +0.000 A 
ATOM     34  N   UNL     1      49.635   4.437  18.822  0.00  0.00    +0.000 N 
ATOM     35  C   UNL     1      49.433   5.106  17.641  0.00  0.00    +0.000 A 
ATOM     36  O   UNL     1      49.044   4.523  16.634  0.00  0.00    +0.000 OA
ATOM     37  C   UNL     1      49.696   6.531  17.704  0.00  0.00    +0.000 A 
ATOM     38  H   UNL     1      49.460   3.440  18.805  0.00  0.00    +0.000 HD
ENDBRANCH  25  28
ENDBRANCH  23  24
ENDBRANCH   4  23
TORSDOF 8
ENDMDL
MODEL 3
REMARK VINA RESULT:    -6.645      3.269      9.223
REMARK INTER + INTRA:         -11.568
REMARK INTER:                 -10.332
REMARK INTRA:                  -1.236
REMARK UNBOUND:                -1.816
REMARK  Name = 
REMARK  8 active torsions:
REMARK  status: ('A' for Active; 'I' for Inactive)
REMARK    1  A    between atoms: C_2  and  C_3
REMARK    2  A    between atoms: C_3  and  N_4
REMARK    3  A    between atoms: C_5  and  C_7
REMARK    4  A    between atoms: N_12  and  C_13
REMARK    5  A    between atoms: C_13  and  C_14
REMARK    6  A    between atoms: C_17  and  C_18
REMARK    7  A    between atoms: C_18  and  N_19
REMARK    8  A    between atoms: C_20  and  C_22
REMARK                            x       y       z     vdW  Elec       q    Type
REMARK                         _______ _______ _______ _____ _____    ______ ____
ROOT
ATOM      1  C   UNL     1      45.096   4.988  13.165  0.00  0.00    +0.000 A 
ATOM      2  C   UNL     1      44.950   6.344  12.840  0.00  0.00    +0.000 A 
ATOM      3  C   UNL     1      46.034   7.227  12.947  0.00  0.00    +0.000 A 
ATOM      4  C   UNL     1      47.290   6.767  13.366  0.00  0.00    +0.000 A 
ATOM      5  C   UNL     1      47.429   5.415  13.705  0.00  0.00    +0.000 A 
ATOM      6  C   UNL     1      46.349   4.534  13.595  0.00  0.00    +0.000 A 
ENDROOT
BRANCH   1   7
ATOM      7  C   UNL     1      43.944   4.024  13.029  0.00  0.00    +0.000 C 
BRANCH   7  10
ATOM      8  O   UNL     1      43.390   4.410  10.276  0.00  0.00    +0.000 OA
ATOM      9  C   UNL     1      43.915   3.362  10.647  0.00  0.00    +0.000 C 
ATOM     10  N   UNL     1      44.171   3.068  11.968  0.00  0.00    +0.000 N 
ATOM     11  H   UNL     1      44.522   2.144  12.207  0.00  0.00    +0.000 HD
BRANCH   9  12
ATOM     12  C   UNL     1      44.258   2.237   9.665  0.00  0.00    +0.000 C 
BRANCH  12  13
ATOM     13  N   UNL     1      45.534   2.468   9.012  0.00  0.00    +0.000 N 
ATOM     14  C   UNL     1      45.617   3.288   7.913  0.00  0.00    +0.000 C 
ATOM     15  O   UNL     1      44.622   3.837   7.443  0.00  0.00    +0.000 OA
ATOM     16  H   UNL     1      46.377   2.085   9.429  0.00  0.00    +0.000 HD
BRANCH  14  17
ATOM     17  C   UNL     1      47.042   3.449   7.338  0.00  0.00    +0.000 C 
ATOM     18  C   UNL     1      47.767   2.122   7.189  0.00  0.00    +0.000 C 
ATOM     19  C   UNL     1      47.218   1.568   5.884  0.00  0.00    +0.000 C 
ATOM     20  C   UNL     1      46.840   2.798   5.071  0.00  0.00    +0.000 C 
ATOM     21  N   UNL     1      46.991   3.961   5.953  0.00  0.00    +0.000 NA
ATOM     22  H   UNL     1      46.211   4.602   5.822  0.00  0.00    +0.000 HD
ENDBRANCH  14  17
ENDBRANCH  12  13
ENDBRANCH   9  12
ENDBRANCH   7  10
ENDBRANCH   1   7
BRANCH   4  23
ATOM     23  C   UNL     1      48.473   7.699  13.473  0.00  0.00    +0.000 C 
BRANCH  23  24
ATOM     24  N   UNL     1      49.553   7.109  14.225  0.00  0.00    +0.000 N 
ATOM     25  C   UNL     1      50.409   7.883  14.968  0.00  0.00    +0.000 C 
ATOM     26  O   UNL     1      50.279   9.102  15.056  0.00  0.00    +0.000 OA
ATOM     27  H   UNL     1      49.839   6.172  13.960  0.00  0.00    +0.000 HD
BRANCH  25  28
ATOM     28  C   UNL     1      51.461   7.172  15.709  0.00  0.00    +0.000 A 
ATOM     29  C   UNL     1      52.794   7.496  15.501  0.00  0.00    +0.000 A 
ATOM     30  S   UNL     1      53.875   6.603  16.474  0.00  0.00    +0.000 S 
ATOM     31  C   UNL     1      52.601   5.715  17.169  0.00  0.00    +0.000 A 
ATOM     32  N   UNL     1      52.846   4.736  18.081  0.00  0.00    +0.000 NA
ATOM     33  C   UNL     1      51.790   4.121  18.500  0.00  0.00    +0.000 A 
ATOM     34  N   UNL     1      50.511   4.407  18.098  0.00  0.00    +0.000 N 
ATOM     35  C   UNL     1      50.213   5.408  17.207  0.00  0.00    +0.000 A 
ATOM     36  O   UNL     1      49.053   5.673  16.908  0.00  0.00    +0.000 OA
ATOM     37  C   UNL     1      51.368   6.113  16.686  0.00  0.00    +0.000 A 
ATOM     38  H   UNL     1      49.722   3.898  18.476  0.00  0.00    +0.000 HD
ENDBRANCH  25  28
ENDBRANCH  23  24
ENDBRANCH   4  23
TORSDOF 8
ENDMDL
MODEL 4
REMARK VINA RESULT:    -6.369      3.625      9.447
REMARK INTER + INTRA:         -11.164
REMARK INTER:                 -10.238
REMARK INTRA:                  -0.926
REMARK UNBOUND:                -1.816
REMARK  Name = 
REMARK  8 active torsions:
REMARK  status: ('A' for Active; 'I' for Inactive)
REMARK    1  A    between atoms: C_2  and  C_3
REMARK    2  A    between atoms: C_3  and  N_4
REMARK    3  A    between atoms: C_5  and  C_7
REMARK    4  A    between atoms: N_12  and  C_13
REMARK    5  A    between atoms: C_13  and  C_14
REMARK    6  A    between atoms: C_17  and  C_18
REMARK    7  A    between atoms: C_18  and  N_19
REMARK    8  A    between atoms: C_20  and  C_22
REMARK                            x       y       z     vdW  Elec       q    Type
REMARK                         _______ _______ _______ _____ _____    ______ ____
ROOT
ATOM      1  C   UNL     1      47.623   6.135  14.279  0.00  0.00    +0.000 A 
ATOM      2  C   UNL     1      48.615   6.736  15.067  0.00  0.00    +0.000 A 
ATOM      3  C   UNL     1      49.078   6.113  16.234  0.00  0.00    +0.000 A 
ATOM      4  C   UNL     1      48.570   4.868  16.628  0.00  0.00    +0.000 A 
ATOM      5  C   UNL     1      47.568   4.277  15.849  0.00  0.00    +0.000 A 
ATOM      6  C   UNL     1      47.108   4.897  14.682  0.00  0.00    +0.000 A 
ENDROOT
BRANCH   1   7
ATOM      7  C   UNL     1      47.135   6.783  13.008  0.00  0.00    +0.000 C 
BRANCH   7  10
ATOM      8  O   UNL     1      46.241   6.248  10.372  0.00  0.00    +0.000 OA
ATOM      9  C   UNL     1      45.496   6.017  11.323  0.00  0.00    +0.000 C 
ATOM     10  N   UNL     1      45.827   6.296  12.630  0.00  0.00    +0.000 N 
ATOM     11  H   UNL     1      45.124   6.164  13.353  0.00  0.00    +0.000 HD
BRANCH   9  12
ATOM     12  C   UNL     1      44.079   5.471  11.125  0.00  0.00    +0.000 C 
BRANCH  12  13
ATOM     13  N   UNL     1      44.011   4.555  10.000  0.00  0.00    +0.000 N 
ATOM     14  C   UNL     1      44.537   3.290  10.098  0.00  0.00    +0.000 C 
ATOM     15  O   UNL     1      45.088   2.900  11.127  0.00  0.00    +0.000 OA
ATOM     16  H   UNL     1      43.495   4.831   9.171  0.00  0.00    +0.000 HD
BRANCH  14  17
ATOM     17  C   UNL     1      44.375   2.428   8.827  0.00  0.00    +0.000 C 
ATOM     18  C   UNL     1      44.636   3.210   7.551  0.00  0.00    +0.000 C 
ATOM     19  C   UNL     1      46.152   3.218   7.448  0.00  0.00    +0.000 C 
ATOM     20  C   UNL     1      46.594   1.945   8.157  0.00  0.00    +0.000 C 
ATOM     21  N   UNL     1      45.401   1.364   8.784  0.00  0.00    +0.000 NA
ATOM     22  H   UNL     1      45.627   1.028   9.718  0.00  0.00    +0.000 HD
ENDBRANCH  14  17
ENDBRANCH  12  13
ENDBRANCH   9  12
ENDBRANCH   7  10
ENDBRANCH   1   7
BRANCH   4  23
ATOM     23  C   UNL     1      49.068   4.173  17.873  0.00  0.00    +0.000 C 
BRANCH  23  24
ATOM     24  N   UNL     1      50.430   3.724  17.727  0.00  0.00    +0.000 N 
ATOM     25  C   UNL     1      51.384   4.026  18.666  0.00  0.00    +0.000 C 
ATOM     26  O   UNL     1      51.121   4.660  19.685  0.00  0.00    +0.000 OA
ATOM     27  H   UNL     1      50.724   3.445  16.797  0.00  0.00    +0.000 HD
BRANCH  25  28
ATOM     28  C   UNL     1      52.735   3.498  18.423  0.00  0.00    +0.000 A 
ATOM     29  C   UNL     1      53.844   4.297  18.662  0.00  0.00    +0.000 A 
ATOM     30  S   UNL     1      55.330   3.511  18.367  0.00  0.00    +0.000 S 
ATOM     31  C   UNL     1      54.541   2.093  17.860  0.00  0.00    +0.000 A 
ATOM     32  N   UNL     1      55.248   1.014  17.429  0.00  0.00    +0.000 NA
ATOM     33  C   UNL     1      54.520   0.018  17.043  0.00  0.00    +0.000 A 
ATOM     34  N   UNL     1      53.151   0.002  17.060  0.00  0.00    +0.000 N 
ATOM     35  C   UNL     1      52.395   1.053  17.517  0.00  0.00    +0.000 A 
ATOM     36  O   UNL     1      51.171   0.987  17.569  0.00  0.00    +0.000 OA
ATOM     37  C   UNL     1      53.165   2.208  17.940  0.00  0.00    +0.000 A 
ATOM     38  H   UNL     1      52.637  -0.816  16.757  0.00  0.00    +0.000 HD
ENDBRANCH  25  28
ENDBRANCH  23  24
ENDBRANCH   4  23
TORSDOF 8
ENDMDL
MODEL 5
REMARK VINA RESULT:    -6.332      5.333      8.090
REMARK INTER + INTRA:         -11.109
REMARK INTER:                 -10.130
REMARK INTRA:                  -0.978
REMARK UNBOUND:                -1.816
REMARK  Name = 
REMARK  8 active torsions:
REMARK  status: ('A' for Active; 'I' for Inactive)
REMARK    1  A    between atoms: C_2  and  C_3
REMARK    2  A    between atoms: C_3  and  N_4
REMARK    3  A    between atoms: C_5  and  C_7
REMARK    4  A    between atoms: N_12  and  C_13
REMARK    5  A    between atoms: C_13  and  C_14
REMARK    6  A    between atoms: C_17  and  C_18
REMARK    7  A    between atoms: C_18  and  N_19
REMARK    8  A    between atoms: C_20  and  C_22
REMARK                            x       y       z     vdW  Elec       q    Type
REMARK                         _______ _______ _______ _____ _____    ______ ____
ROOT
ATOM      1  C   UNL     1      48.361   6.652  13.468  0.00  0.00    +0.000 A 
ATOM      2  C   UNL     1      48.344   6.905  12.089  0.00  0.00    +0.000 A 
ATOM      3  C   UNL     1      49.283   7.770  11.508  0.00  0.00    +0.000 A 
ATOM      4  C   UNL     1      50.267   8.386  12.294  0.00  0.00    +0.000 A 
ATOM      5  C   UNL     1      50.271   8.144  13.673  0.00  0.00    +0.000 A 
ATOM      6  C   UNL     1      49.337   7.279  14.251  0.00  0.00    +0.000 A 
ENDROOT
BRANCH   1   7
ATOM      7  C   UNL     1      47.373   5.704  14.100  0.00  0.00    +0.000 C 
BRANCH   7  10
ATOM      8  O   UNL     1      45.697   3.580  13.252  0.00  0.00    +0.000 OA
ATOM      9  C   UNL     1      45.293   4.739  13.174  0.00  0.00    +0.000 C 
ATOM     10  N   UNL     1      46.058   5.833  13.511  0.00  0.00    +0.000 N 
ATOM     11  H   UNL     1      45.690   6.764  13.332  0.00  0.00    +0.000 HD
BRANCH   9  12
ATOM     12  C   UNL     1      43.913   5.076  12.602  0.00  0.00    +0.000 C 
BRANCH  12  13
ATOM     13  N   UNL     1      43.712   4.471  11.297  0.00  0.00    +0.000 N 
ATOM     14  C   UNL     1      44.531   4.798  10.243  0.00  0.00    +0.000 C 
ATOM     15  O   UNL     1      45.443   5.614  10.366  0.00  0.00    +0.000 OA
ATOM     16  H   UNL     1      43.015   3.741  11.195  0.00  0.00    +0.000 HD
BRANCH  14  17
ATOM     17  C   UNL     1      44.204   4.063   8.925  0.00  0.00    +0.000 C 
ATOM     18  C   UNL     1      45.364   4.075   7.944  0.00  0.00    +0.000 C 
ATOM     19  C   UNL     1      46.256   2.950   8.442  0.00  0.00    +0.000 C 
ATOM     20  C   UNL     1      45.306   1.977   9.126  0.00  0.00    +0.000 C 
ATOM     21  N   UNL     1      43.988   2.622   9.171  0.00  0.00    +0.000 NA
ATOM     22  H   UNL     1      43.553   2.460  10.077  0.00  0.00    +0.000 HD
ENDBRANCH  14  17
ENDBRANCH  12  13
ENDBRANCH   9  12
ENDBRANCH   7  10
ENDBRANCH   1   7
BRANCH   4  23
ATOM     23  C   UNL     1      51.296   9.308  11.685  0.00  0.00    +0.000 C 
BRANCH  23  24
ATOM     24  N   UNL     1      51.636   8.917  10.339  0.00  0.00    +0.000 N 
ATOM     25  C   UNL     1      52.909   8.522  10.012  0.00  0.00    +0.000 C 
ATOM     26  O   UNL     1      53.806   8.451  10.848  0.00  0.00    +0.000 OA
ATOM     27  H   UNL     1      51.007   9.219   9.601  0.00  0.00    +0.000 HD
BRANCH  25  28
ATOM     28  C   UNL     1      53.134   8.127   8.614  0.00  0.00    +0.000 A 
ATOM     29  C   UNL     1      53.035   9.072   7.602  0.00  0.00    +0.000 A 
ATOM     30  S   UNL     1      53.369   8.450   6.049  0.00  0.00    +0.000 S 
ATOM     31  C   UNL     1      53.607   6.884   6.668  0.00  0.00    +0.000 A 
ATOM     32  N   UNL     1      53.896   5.841   5.844  0.00  0.00    +0.000 NA
ATOM     33  C   UNL     1      54.018   4.704   6.445  0.00  0.00    +0.000 A 
ATOM     34  N   UNL     1      53.889   4.520   7.796  0.00  0.00    +0.000 N 
ATOM     35  C   UNL     1      53.632   5.546   8.671  0.00  0.00    +0.000 A 
ATOM     36  O   UNL     1      53.574   5.356   9.882  0.00  0.00    +0.000 OA
ATOM     37  C   UNL     1      53.461   6.842   8.043  0.00  0.00    +0.000 A 
ATOM     38  H   UNL     1      54.011   3.604   8.209  0.00  0.00    +0.000 HD
ENDBRANCH  25  28
ENDBRANCH  23  24
ENDBRANCH   4  23
TORSDOF 8
ENDMDL
MODEL 6
REMARK VINA RESULT:    -6.068      2.425      4.124
REMARK INTER + INTRA:         -10.722
REMARK INTER:                 -10.136
REMARK INTRA:                  -0.586
REMARK UNBOUND:                -1.816
REMARK  Name = 
REMARK  8 active torsions:
REMARK  status: ('A' for Active; 'I' for Inactive)
REMARK    1  A    between atoms: C_2  and  C_3
REMARK    2  A    between atoms: C_3  and  N_4
REMARK    3  A    between atoms: C_5  and  C_7
REMARK    4  A    between atoms: N_12  and  C_13
REMARK    5  A    between atoms: C_13  and  C_14
REMARK    6  A    between atoms: C_17  and  C_18
REMARK    7  A    between atoms: C_18  and  N_19
REMARK    8  A    between atoms: C_20  and  C_22
REMARK                            x       y       z     vdW  Elec       q    Type
REMARK                         _______ _______ _______ _____ _____    ______ ____
ROOT
ATOM      1  C   UNL     1      46.553   7.920  12.492  0.00  0.00    +0.000 A 
ATOM      2  C   UNL     1      45.158   8.057  12.509  0.00  0.00    +0.000 A 
ATOM      3  C   UNL     1      44.340   7.142  11.832  0.00  0.00    +0.000 A 
ATOM      4  C   UNL     1      44.901   6.061  11.137  0.00  0.00    +0.000 A 
ATOM      5  C   UNL     1      46.296   5.936  11.107  0.00  0.00    +0.000 A 
ATOM      6  C   UNL     1      47.111   6.847  11.786  0.00  0.00    +0.000 A 
ENDROOT
BRANCH   1   7
ATOM      7  C   UNL     1      47.443   8.883  13.237  0.00  0.00    +0.000 C 
BRANCH   7  10
ATOM      8  O   UNL     1      49.920   8.001  14.297  0.00  0.00    +0.000 OA
ATOM      9  C   UNL     1      48.938   8.078  15.034  0.00  0.00    +0.000 C 
ATOM     10  N   UNL     1      47.687   8.445  14.593  0.00  0.00    +0.000 N 
ATOM     11  H   UNL     1      46.904   8.396  15.241  0.00  0.00    +0.000 HD
BRANCH   9  12
ATOM     12  C   UNL     1      49.005   7.683  16.512  0.00  0.00    +0.000 C 
BRANCH  12  13
ATOM     13  N   UNL     1      48.208   6.501  16.786  0.00  0.00    +0.000 N 
ATOM     14  C   UNL     1      48.319   5.848  17.990  0.00  0.00    +0.000 C 
ATOM     15  O   UNL     1      49.099   6.232  18.861  0.00  0.00    +0.000 OA
ATOM     16  H   UNL     1      47.506   6.213  16.112  0.00  0.00    +0.000 HD
BRANCH  14  17
ATOM     17  C   UNL     1      47.398   4.618  18.141  0.00  0.00    +0.000 C 
ATOM     18  C   UNL     1      47.128   3.922  16.817  0.00  0.00    +0.000 C 
ATOM     19  C   UNL     1      48.367   3.067  16.613  0.00  0.00    +0.000 C 
ATOM     20  C   UNL     1      48.864   2.764  18.019  0.00  0.00    +0.000 C 
ATOM     21  N   UNL     1      48.056   3.567  18.944  0.00  0.00    +0.000 NA
ATOM     22  H   UNL     1      48.651   3.969  19.666  0.00  0.00    +0.000 HD
ENDBRANCH  14  17
ENDBRANCH  12  13
ENDBRANCH   9  12
ENDBRANCH   7  10
ENDBRANCH   1   7
BRANCH   4  23
ATOM     23  C   UNL     1      44.036   5.057  10.415  0.00  0.00    +0.000 C 
BRANCH  23  24
ATOM     24  N   UNL     1      44.817   4.182   9.577  0.00  0.00    +0.000 N 
ATOM     25  C   UNL     1      44.640   2.821   9.606  0.00  0.00    +0.000 C 
ATOM     26  O   UNL     1      43.792   2.287  10.318  0.00  0.00    +0.000 OA
ATOM     27  H   UNL     1      45.680   4.559   9.197  0.00  0.00    +0.000 HD
BRANCH  25  28
ATOM     28  C   UNL     1      45.478   2.030   8.694  0.00  0.00    +0.000 A 
ATOM     29  C   UNL     1      45.432   0.644   8.738  0.00  0.00    +0.000 A 
ATOM     30  S   UNL     1      46.437  -0.112   7.582  0.00  0.00    +0.000 S 
ATOM     31  C   UNL     1      47.008   1.388   7.019  0.00  0.00    +0.000 A 
ATOM     32  N   UNL     1      47.941   1.457   6.032  0.00  0.00    +0.000 NA
ATOM     33  C   UNL     1      48.308   2.657   5.726  0.00  0.00    +0.000 A 
ATOM     34  N   UNL     1      47.816   3.794   6.311  0.00  0.00    +0.000 N 
ATOM     35  C   UNL     1      46.850   3.777   7.286  0.00  0.00    +0.000 A 
ATOM     36  O   UNL     1      46.392   4.816   7.752  0.00  0.00    +0.000 OA
ATOM     37  C   UNL     1      46.420   2.450   7.684  0.00  0.00    +0.000 A 
ATOM     38  H   UNL     1      48.134   4.709   6.016  0.00  0.00    +0.000 HD
ENDBRANCH  25  28
ENDBRANCH  23  24
ENDBRANCH   4  23
TORSDOF 8
ENDMDL
MODEL 7
REMARK VINA RESULT:    -6.022      5.135      7.550
REMARK INTER + INTRA:         -10.654
REMARK INTER:                  -9.387
REMARK INTRA:                  -1.266
REMARK UNBOUND:                -1.816
REMARK  Name = 
REMARK  8 active torsions:
REMARK  status: ('A' for Active; 'I' for Inactive)
REMARK    1  A    between atoms: C_2  and  C_3
REMARK    2  A    between atoms: C_3  and  N_4
REMARK    3  A    between atoms: C_5  and  C_7
REMARK    4  A    between atoms: N_12  and  C_13
REMARK    5  A    between atoms: C_13  and  C_14
REMARK    6  A    between atoms: C_17  and  C_18
REMARK    7  A    between atoms: C_18  and  N_19
REMARK    8  A    between atoms: C_20  and  C_22
REMARK                            x       y       z     vdW  Elec       q    Type
REMARK                         _______ _______ _______ _____ _____    ______ ____
ROOT
ATOM      1  C   UNL     1      50.445   8.725  11.394  0.00  0.00    +0.000 A 
ATOM      2  C   UNL     1      49.452   9.713  11.340  0.00  0.00    +0.000 A 
ATOM      3  C   UNL     1      48.178   9.479  11.875  0.00  0.00    +0.000 A 
ATOM      4  C   UNL     1      47.877   8.256  12.491  0.00  0.00    +0.000 A 
ATOM      5  C   UNL     1      48.866   7.264  12.530  0.00  0.00    +0.000 A 
ATOM      6  C   UNL     1      50.138   7.500  11.999  0.00  0.00    +0.000 A 
ENDROOT
BRANCH   1   7
ATOM      7  C   UNL     1      51.827   8.974  10.844  0.00  0.00    +0.000 C 
BRANCH   7  10
ATOM      8  O   UNL     1      54.109   7.322  11.160  0.00  0.00    +0.000 OA
ATOM      9  C   UNL     1      53.347   7.128  10.215  0.00  0.00    +0.000 C 
ATOM     10  N   UNL     1      52.247   7.914   9.955  0.00  0.00    +0.000 N 
ATOM     11  H   UNL     1      51.716   7.750   9.103  0.00  0.00    +0.000 HD
BRANCH   9  12
ATOM     12  C   UNL     1      53.608   6.031   9.178  0.00  0.00    +0.000 C 
BRANCH  12  13
ATOM     13  N   UNL     1      54.214   6.568   7.973  0.00  0.00    +0.000 N 
ATOM     14  C   UNL     1      53.434   6.934   6.903  0.00  0.00    +0.000 C 
ATOM     15  O   UNL     1      52.210   6.809   6.926  0.00  0.00    +0.000 OA
ATOM     16  H   UNL     1      55.212   6.749   7.963  0.00  0.00    +0.000 HD
BRANCH  14  17
ATOM     17  C   UNL     1      54.219   7.502   5.701  0.00  0.00    +0.000 C 
ATOM     18  C   UNL     1      53.443   8.567   4.944  0.00  0.00    +0.000 C 
ATOM     19  C   UNL     1      53.662   9.818   5.777  0.00  0.00    +0.000 C 
ATOM     20  C   UNL     1      55.010   9.603   6.452  0.00  0.00    +0.000 C 
ATOM     21  N   UNL     1      55.423   8.226   6.158  0.00  0.00    +0.000 NA
ATOM     22  H   UNL     1      55.821   7.796   6.992  0.00  0.00    +0.000 HD
ENDBRANCH  14  17
ENDBRANCH  12  13
ENDBRANCH   9  12
ENDBRANCH   7  10
ENDBRANCH   1   7
BRANCH   4  23
ATOM     23  C   UNL     1      46.516   7.990  13.088  0.00  0.00    +0.000 C 
BRANCH  23  24
ATOM     24  N   UNL     1      46.026   6.679  12.741  0.00  0.00    +0.000 N 
ATOM     25  C   UNL     1      45.035   6.513  11.807  0.00  0.00    +0.000 C 
ATOM     26  O   UNL     1      44.543   7.461  11.199  0.00  0.00    +0.000 OA
ATOM     27  H   UNL     1      46.213   5.930  13.401  0.00  0.00    +0.000 HD
BRANCH  25  28
ATOM     28  C   UNL     1      44.628   5.130  11.520  0.00  0.00    +0.000 A 
ATOM     29  C   UNL     1      43.916   4.406  12.467  0.00  0.00    +0.000 A 
ATOM     30  S   UNL     1      43.491   2.836  11.951  0.00  0.00    +0.000 S 
ATOM     31  C   UNL     1      44.290   3.049  10.465  0.00  0.00    +0.000 A 
ATOM     32  N   UNL     1      44.339   2.048   9.546  0.00  0.00    +0.000 NA
ATOM     33  C   UNL     1      45.007   2.335   8.478  0.00  0.00    +0.000 A 
ATOM     34  N   UNL     1      45.617   3.539   8.242  0.00  0.00    +0.000 N 
ATOM     35  C   UNL     1      45.566   4.589   9.124  0.00  0.00    +0.000 A 
ATOM     36  O   UNL     1      46.080   5.672   8.859  0.00  0.00    +0.000 OA
ATOM     37  C   UNL     1      44.849   4.309  10.353  0.00  0.00    +0.000 A 
ATOM     38  H   UNL     1      46.114   3.708   7.377  0.00  0.00    +0.000 HD
ENDBRANCH  25  28
ENDBRANCH  23  24
ENDBRANCH   4  23
TORSDOF 8
ENDMDL
MODEL 8
REMARK VINA RESULT:    -5.923      4.973      7.299
REMARK INTER + INTRA:         -10.509
REMARK INTER:                  -9.363
REMARK INTRA:                  -1.146
REMARK UNBOUND:                -1.816
REMARK  Name = 
REMARK  8 active torsions:
REMARK  status: ('A' for Active; 'I' for Inactive)
REMARK    1  A    between atoms: C_2  and  C_3
REMARK    2  A    between atoms: C_3  and  N_4
REMARK    3  A    between atoms: C_5  and  C_7
REMARK    4  A    between atoms: N_12  and  C_13
REMARK    5  A    between atoms: C_13  and  C_14
REMARK    6  A    between atoms: C_17  and  C_18
REMARK    7  A    between atoms: C_18  and  N_19
REMARK    8  A    between atoms: C_20  and  C_22
REMARK                            x       y       z     vdW  Elec       q    Type
REMARK                         _______ _______ _______ _____ _____    ______ ____
ROOT
ATOM      1  C   UNL     1      50.462   8.738  11.717  0.00  0.00    +0.000 A 
ATOM      2  C   UNL     1      49.563   9.814  11.707  0.00  0.00    +0.000 A 
ATOM      3  C   UNL     1      48.205   9.615  11.995  0.00  0.00    +0.000 A 
ATOM      4  C   UNL     1      47.722   8.339  12.316  0.00  0.00    +0.000 A 
ATOM      5  C   UNL     1      48.620   7.263  12.311  0.00  0.00    +0.000 A 
ATOM      6  C   UNL     1      49.974   7.462  12.027  0.00  0.00    +0.000 A 
ENDROOT
BRANCH   1   7
ATOM      7  C   UNL     1      51.929   8.942  11.434  0.00  0.00    +0.000 C 
BRANCH   7  10
ATOM      8  O   UNL     1      52.577  11.151   9.779  0.00  0.00    +0.000 OA
ATOM      9  C   UNL     1      52.564  10.019   9.300  0.00  0.00    +0.000 C 
ATOM     10  N   UNL     1      52.209   8.897  10.016  0.00  0.00    +0.000 N 
ATOM     11  H   UNL     1      52.133   8.007   9.529  0.00  0.00    +0.000 HD
BRANCH   9  12
ATOM     12  C   UNL     1      52.863   9.764   7.820  0.00  0.00    +0.000 C 
BRANCH  12  13
ATOM     13  N   UNL     1      53.720   8.605   7.639  0.00  0.00    +0.000 N 
ATOM     14  C   UNL     1      53.547   7.771   6.561  0.00  0.00    +0.000 C 
ATOM     15  O   UNL     1      52.663   7.969   5.729  0.00  0.00    +0.000 OA
ATOM     16  H   UNL     1      54.501   8.468   8.272  0.00  0.00    +0.000 HD
BRANCH  14  17
ATOM     17  C   UNL     1      54.543   6.592   6.496  0.00  0.00    +0.000 C 
ATOM     18  C   UNL     1      55.013   6.146   7.870  0.00  0.00    +0.000 C 
ATOM     19  C   UNL     1      53.878   5.263   8.359  0.00  0.00    +0.000 C 
ATOM     20  C   UNL     1      53.253   4.698   7.091  0.00  0.00    +0.000 C 
ATOM     21  N   UNL     1      53.886   5.383   5.957  0.00  0.00    +0.000 NA
ATOM     22  H   UNL     1      53.184   5.621   5.259  0.00  0.00    +0.000 HD
ENDBRANCH  14  17
ENDBRANCH  12  13
ENDBRANCH   9  12
ENDBRANCH   7  10
ENDBRANCH   1   7
BRANCH   4  23
ATOM     23  C   UNL     1      46.268   8.108  12.645  0.00  0.00    +0.000 C 
BRANCH  23  24
ATOM     24  N   UNL     1      45.857   6.760  12.342  0.00  0.00    +0.000 N 
ATOM     25  C   UNL     1      44.775   6.509  11.536  0.00  0.00    +0.000 C 
ATOM     26  O   UNL     1      44.127   7.412  11.011  0.00  0.00    +0.000 OA
ATOM     27  H   UNL     1      46.192   6.028  12.960  0.00  0.00    +0.000 HD
BRANCH  25  28
ATOM     28  C   UNL     1      44.460   5.096  11.280  0.00  0.00    +0.000 A 
ATOM     29  C   UNL     1      43.711   4.375  12.199  0.00  0.00    +0.000 A 
ATOM     30  S   UNL     1      43.406   2.765  11.722  0.00  0.00    +0.000 S 
ATOM     31  C   UNL     1      44.310   2.960  10.295  0.00  0.00    +0.000 A 
ATOM     32  N   UNL     1      44.482   1.926   9.429  0.00  0.00    +0.000 NA
ATOM     33  C   UNL     1      45.218   2.205   8.404  0.00  0.00    +0.000 A 
ATOM     34  N   UNL     1      45.787   3.428   8.164  0.00  0.00    +0.000 N 
ATOM     35  C   UNL     1      45.613   4.509   8.991  0.00  0.00    +0.000 A 
ATOM     36  O   UNL     1      46.093   5.606   8.720  0.00  0.00    +0.000 OA
ATOM     37  C   UNL     1      44.814   4.242  10.171  0.00  0.00    +0.000 A 
ATOM     38  H   UNL     1      46.342   3.588   7.333  0.00  0.00    +0.000 HD
ENDBRANCH  25  28
ENDBRANCH  23  24
ENDBRANCH   4  23
TORSDOF 8
ENDMDL
MODEL 9
REMARK VINA RESULT:    -5.810      3.865      9.450
REMARK INTER + INTRA:         -10.343
REMARK INTER:                  -8.785
REMARK INTRA:                  -1.558
REMARK UNBOUND:                -1.816
REMARK  Name = 
REMARK  8 active torsions:
REMARK  status: ('A' for Active; 'I' for Inactive)
REMARK    1  A    between atoms: C_2  and  C_3
REMARK    2  A    between atoms: C_3  and  N_4
REMARK    3  A    between atoms: C_5  and  C_7
REMARK    4  A    between atoms: N_12  and  C_13
REMARK    5  A    between atoms: C_13  and  C_14
REMARK    6  A    between atoms: C_17  and  C_18
REMARK    7  A    between atoms: C_18  and  N_19
REMARK    8  A    between atoms: C_20  and  C_22
REMARK                            x       y       z     vdW  Elec       q    Type
REMARK                         _______ _______ _______ _____ _____    ______ ____
ROOT
ATOM      1  C   UNL     1      47.576   3.906  15.594  0.00  0.00    +0.000 A 
ATOM      2  C   UNL     1      47.980   5.221  15.863  0.00  0.00    +0.000 A 
ATOM      3  C   UNL     1      48.684   5.528  17.036  0.00  0.00    +0.000 A 
ATOM      4  C   UNL     1      49.012   4.522  17.955  0.00  0.00    +0.000 A 
ATOM      5  C   UNL     1      48.593   3.212  17.691  0.00  0.00    +0.000 A 
ATOM      6  C   UNL     1      47.894   2.905  16.520  0.00  0.00    +0.000 A 
ENDROOT
BRANCH   1   7
ATOM      7  C   UNL     1      46.840   3.559  14.324  0.00  0.00    +0.000 C 
BRANCH   7  10
ATOM      8  O   UNL     1      44.430   3.326  12.849  0.00  0.00    +0.000 OA
ATOM      9  C   UNL     1      44.816   4.437  13.208  0.00  0.00    +0.000 C 
ATOM     10  N   UNL     1      45.999   4.648  13.879  0.00  0.00    +0.000 N 
ATOM     11  H   UNL     1      46.297   5.604  14.061  0.00  0.00    +0.000 HD
BRANCH   9  12
ATOM     12  C   UNL     1      44.044   5.713  12.856  0.00  0.00    +0.000 C 
BRANCH  12  13
ATOM     13  N   UNL     1      44.783   6.905  13.232  0.00  0.00    +0.000 N 
ATOM     14  C   UNL     1      45.428   7.656  12.278  0.00  0.00    +0.000 C 
ATOM     15  O   UNL     1      45.410   7.339  11.090  0.00  0.00    +0.000 OA
ATOM     16  H   UNL     1      44.747   7.224  14.194  0.00  0.00    +0.000 HD
BRANCH  14  17
ATOM     17  C   UNL     1      46.157   8.901  12.827  0.00  0.00    +0.000 C 
ATOM     18  C   UNL     1      47.084   8.575  13.986  0.00  0.00    +0.000 C 
ATOM     19  C   UNL     1      48.333   8.049  13.299  0.00  0.00    +0.000 C 
ATOM     20  C   UNL     1      48.347   8.740  11.942  0.00  0.00    +0.000 C 
ATOM     21  N   UNL     1      47.074   9.459  11.811  0.00  0.00    +0.000 NA
ATOM     22  H   UNL     1      46.703   9.342  10.871  0.00  0.00    +0.000 HD
ENDBRANCH  14  17
ENDBRANCH  12  13
ENDBRANCH   9  12
ENDBRANCH   7  10
ENDBRANCH   1   7
BRANCH   4  23
ATOM     23  C   UNL     1      49.784   4.830  19.215  0.00  0.00    +0.000 C 
BRANCH  23  24
ATOM     24  N   UNL     1      50.950   3.993  19.348  0.00  0.00    +0.000 N 
ATOM     25  C   UNL     1      52.121   4.295  18.699  0.00  0.00    +0.000 C 
ATOM     26  O   UNL     1      52.244   5.303  18.007  0.00  0.00    +0.000 OA
ATOM     27  H   UNL     1      50.799   3.045  19.679  0.00  0.00    +0.000 HD
BRANCH  25  28
ATOM     28  C   UNL     1      53.250   3.381  18.923  0.00  0.00    +0.000 A 
ATOM     29  C   UNL     1      54.380   3.827  19.595  0.00  0.00    +0.000 A 
ATOM     30  S   UNL     1      55.573   2.624  19.803  0.00  0.00    +0.000 S 
ATOM     31  C   UNL     1      54.642   1.479  18.956  0.00  0.00    +0.000 A 
ATOM     32  N   UNL     1      55.108   0.220  18.739  0.00  0.00    +0.000 NA
ATOM     33  C   UNL     1      54.313  -0.533  18.054  0.00  0.00    +0.000 A 
ATOM     34  N   UNL     1      53.089  -0.143  17.578  0.00  0.00    +0.000 N 
ATOM     35  C   UNL     1      52.563   1.105  17.800  0.00  0.00    +0.000 A 
ATOM     36  O   UNL     1      51.441   1.406  17.404  0.00  0.00    +0.000 OA
ATOM     37  C   UNL     1      53.429   1.999  18.545  0.00  0.00    +0.000 A 
ATOM     38  H   UNL     1      52.505  -0.786  17.058  0.00  0.00    +0.000 HD
ENDBRANCH  25  28
ENDBRANCH  23  24
ENDBRANCH   4  23
TORSDOF 8
ENDMDL
