MODEL 1
REMARK VINA RESULT:    -6.806      0.000      0.000
REMARK INTER + INTRA:          -9.723
REMARK INTER:                  -8.995
REMARK INTRA:                  -0.729
REMARK UNBOUND:                -0.729
REMARK  Name = 
REMARK  6 active torsions:
REMARK  status: ('A' for Active; 'I' for Inactive)
REMARK    1  A    between atoms: N_1  and  C_2
REMARK    2  A    between atoms: C_2  and  C_3
REMARK    3  A    between atoms: C_2  and  C_16
REMARK    4  A    between atoms: C_3  and  C_4
REMARK    5  A    between atoms: C_7  and  C_8
REMARK    6  A    between atoms: C_8  and  N_9
REMARK                            x       y       z     vdW  Elec       q    Type
REMARK                         _______ _______ _______ _____ _____    ______ ____
ROOT
ATOM      1  C   UNL     1      45.147   6.435  12.043  0.00  0.00    +0.000 C 
ENDROOT
BRANCH   1   2
ATOM      2  C   UNL     1      44.642   5.046  11.661  0.00  0.00    +0.000 A 
ATOM      3  C   UNL     1      43.847   4.284  12.507  0.00  0.00    +0.000 A 
ATOM      4  S   UNL     1      43.436   2.754  11.867  0.00  0.00    +0.000 S 
ATOM      5  C   UNL     1      44.247   3.079  10.406  0.00  0.00    +0.000 A 
ATOM      6  N   UNL     1      44.246   2.177   9.388  0.00  0.00    +0.000 NA
ATOM      7  C   UNL     1      44.860   2.574   8.323  0.00  0.00    +0.000 A 
ATOM      8  N   UNL     1      45.489   3.787   8.193  0.00  0.00    +0.000 N 
ATOM      9  C   UNL     1      45.524   4.727   9.200  0.00  0.00    +0.000 A 
ATOM     10  O   UNL     1      46.072   5.813   9.035  0.00  0.00    +0.000 OA
ATOM     11  C   UNL     1      44.842   4.330  10.416  0.00  0.00    +0.000 A 
ATOM     12  H   UNL     1      45.937   4.042   7.324  0.00  0.00    +0.000 HD
ENDBRANCH   1   2
BRANCH   1  13
ATOM     13  N   UNL     1      44.683   7.379  11.028  0.00  0.00    +0.000 NA
ATOM     14  H   UNL     1      45.461   7.957  10.715  0.00  0.00    +0.000 HD
ATOM     15  H   UNL     1      44.004   8.014  11.459  0.00  0.00    +0.000 HD
ENDBRANCH   1  13
BRANCH   1  16
ATOM     16  C   UNL     1      46.680   6.478  12.261  0.00  0.00    +0.000 C 
BRANCH  16  17
ATOM     17  C   UNL     1      47.268   6.070  13.598  0.00  0.00    +0.000 A 
ATOM     18  C   UNL     1      48.083   6.994  14.261  0.00  0.00    +0.000 A 
ATOM     19  C   UNL     1      48.660   6.679  15.488  0.00  0.00    +0.000 A 
ATOM     20  C   UNL     1      48.378   5.453  16.079  0.00  0.00    +0.000 A 
ATOM     21  N   UNL     1      47.591   4.534  15.462  0.00  0.00    +0.000 NA
ATOM     22  C   UNL     1      47.066   4.858  14.246  0.00  0.00    +0.000 A 
BRANCH  20  23
ATOM     23  C   UNL     1      48.978   5.111  17.437  0.00  0.00    +0.000 C 
BRANCH  23  24
ATOM     24  N   UNL     1      48.075   4.745  18.545  0.00  0.00    +0.000 NA
ATOM     25  C   UNL     1      47.079   5.766  18.867  0.00  0.00    +0.000 C 
ATOM     26  C   UNL     1      47.598   6.479  20.099  0.00  0.00    +0.000 C 
ATOM     27  C   UNL     1      48.397   5.420  20.835  0.00  0.00    +0.000 C 
ATOM     28  C   UNL     1      48.720   4.353  19.797  0.00  0.00    +0.000 C 
ENDBRANCH  23  24
ENDBRANCH  20  23
ENDBRANCH  16  17
ENDBRANCH   1  16
TORSDOF 6
ENDMDL
MODEL 2
REMARK VINA RESULT:    -6.559      3.423      8.544
REMARK INTER + INTRA:          -9.396
REMARK INTER:                  -8.653
REMARK INTRA:                  -0.743
REMARK UNBOUND:                -0.729
REMARK  Name = 
REMARK  6 active torsions:
REMARK  status: ('A' for Active; 'I' for Inactive)
REMARK    1  A    between atoms: N_1  and  C_2
REMARK    2  A    between atoms: C_2  and  C_3
REMARK    3  A    between atoms: C_2  and  C_16
REMARK    4  A    between atoms: C_3  and  C_4
REMARK    5  A    between atoms: C_7  and  C_8
REMARK    6  A    between atoms: C_8  and  N_9
REMARK                            x       y       z     vdW  Elec       q    Type
REMARK                         _______ _______ _______ _____ _____    ______ ____
ROOT
ATOM      1  C   UNL     1      47.576   4.791  16.481  0.00  0.00    +0.000 C 
ENDROOT
BRANCH   1   2
ATOM      2  C   UNL     1      48.903   4.672  17.225  0.00  0.00    +0.000 A 
ATOM      3  C   UNL     1      49.381   5.670  18.062  0.00  0.00    +0.000 A 
ATOM      4  S   UNL     1      50.902   5.315  18.755  0.00  0.00    +0.000 S 
ATOM      5  C   UNL     1      50.949   3.783  18.015  0.00  0.00    +0.000 A 
ATOM      6  N   UNL     1      51.986   2.930  18.234  0.00  0.00    +0.000 NA
ATOM      7  C   UNL     1      51.868   1.785  17.648  0.00  0.00    +0.000 A 
ATOM      8  N   UNL     1      50.812   1.424  16.849  0.00  0.00    +0.000 N 
ATOM      9  C   UNL     1      49.745   2.258  16.591  0.00  0.00    +0.000 A 
ATOM     10  O   UNL     1      48.805   1.887  15.894  0.00  0.00    +0.000 OA
ATOM     11  C   UNL     1      49.829   3.554  17.233  0.00  0.00    +0.000 A 
ATOM     12  H   UNL     1      50.775   0.504  16.433  0.00  0.00    +0.000 HD
ENDBRANCH   1   2
BRANCH   1  13
ATOM     13  N   UNL     1      46.779   3.605  16.787  0.00  0.00    +0.000 NA
ATOM     14  H   UNL     1      46.082   3.832  17.495  0.00  0.00    +0.000 HD
ATOM     15  H   UNL     1      47.392   2.896  17.201  0.00  0.00    +0.000 HD
ENDBRANCH   1  13
BRANCH   1  16
ATOM     16  C   UNL     1      47.757   5.031  14.961  0.00  0.00    +0.000 C 
BRANCH  16  17
ATOM     17  C   UNL     1      46.656   4.643  13.995  0.00  0.00    +0.000 A 
ATOM     18  C   UNL     1      46.717   3.373  13.411  0.00  0.00    +0.000 A 
ATOM     19  C   UNL     1      45.741   2.960  12.509  0.00  0.00    +0.000 A 
ATOM     20  C   UNL     1      44.670   3.800  12.230  0.00  0.00    +0.000 A 
ATOM     21  N   UNL     1      44.581   5.039  12.780  0.00  0.00    +0.000 NA
ATOM     22  C   UNL     1      45.568   5.430  13.635  0.00  0.00    +0.000 A 
BRANCH  20  23
ATOM     23  C   UNL     1      43.579   3.345  11.269  0.00  0.00    +0.000 C 
BRANCH  23  24
ATOM     24  N   UNL     1      43.776   3.540   9.821  0.00  0.00    +0.000 NA
ATOM     25  C   UNL     1      44.216   2.340   9.109  0.00  0.00    +0.000 C 
ATOM     26  C   UNL     1      45.706   2.508   8.896  0.00  0.00    +0.000 C 
ATOM     27  C   UNL     1      45.904   4.008   8.792  0.00  0.00    +0.000 C 
ATOM     28  C   UNL     1      44.670   4.630   9.434  0.00  0.00    +0.000 C 
ENDBRANCH  23  24
ENDBRANCH  20  23
ENDBRANCH  16  17
ENDBRANCH   1  16
TORSDOF 6
ENDMDL
MODEL 3
REMARK VINA RESULT:    -6.421      3.125      8.017
REMARK INTER + INTRA:          -9.215
REMARK INTER:                  -8.239
REMARK INTRA:                  -0.976
REMARK UNBOUND:                -0.729
REMARK  Name = 
REMARK  6 active torsions:
REMARK  status: ('A' for Active; 'I' for Inactive)
REMARK    1  A    between atoms: N_1  and  C_2
REMARK    2  A    between atoms: C_2  and  C_3
REMARK    3  A    between atoms: C_2  and  C_16
REMARK    4  A    between atoms: C_3  and  C_4
REMARK    5  A    between atoms: C_7  and  C_8
REMARK    6  A    between atoms: C_8  and  N_9
REMARK                            x       y       z     vdW  Elec       q    Type
REMARK                         _______ _______ _______ _____ _____    ______ ____
ROOT
ATOM      1  C   UNL     1      49.635   7.204  14.403  0.00  0.00    +0.000 C 
ENDROOT
BRANCH   1   2
ATOM      2  C   UNL     1      49.082   7.764  15.711  0.00  0.00    +0.000 A 
ATOM      3  C   UNL     1      48.863   9.120  15.909  0.00  0.00    +0.000 A 
ATOM      4  S   UNL     1      48.269   9.499  17.465  0.00  0.00    +0.000 S 
ATOM      5  C   UNL     1      48.216   7.858  17.911  0.00  0.00    +0.000 A 
ATOM      6  N   UNL     1      47.752   7.477  19.132  0.00  0.00    +0.000 NA
ATOM      7  C   UNL     1      47.724   6.200  19.318  0.00  0.00    +0.000 A 
ATOM      8  N   UNL     1      48.136   5.269  18.397  0.00  0.00    +0.000 N 
ATOM      9  C   UNL     1      48.622   5.608  17.153  0.00  0.00    +0.000 A 
ATOM     10  O   UNL     1      48.953   4.745  16.345  0.00  0.00    +0.000 OA
ATOM     11  C   UNL     1      48.667   7.033  16.894  0.00  0.00    +0.000 A 
ATOM     12  H   UNL     1      48.071   4.282  18.602  0.00  0.00    +0.000 HD
ENDBRANCH   1   2
BRANCH   1  13
ATOM     13  N   UNL     1      50.984   7.736  14.219  0.00  0.00    +0.000 NA
ATOM     14  H   UNL     1      51.671   7.023  14.460  0.00  0.00    +0.000 HD
ATOM     15  H   UNL     1      51.124   8.508  14.878  0.00  0.00    +0.000 HD
ENDBRANCH   1  13
BRANCH   1  16
ATOM     16  C   UNL     1      48.703   7.468  13.194  0.00  0.00    +0.000 C 
BRANCH  16  17
ATOM     17  C   UNL     1      47.339   6.812  13.130  0.00  0.00    +0.000 A 
ATOM     18  C   UNL     1      47.261   5.440  13.395  0.00  0.00    +0.000 A 
ATOM     19  C   UNL     1      46.040   4.775  13.344  0.00  0.00    +0.000 A 
ATOM     20  C   UNL     1      44.882   5.497  13.079  0.00  0.00    +0.000 A 
ATOM     21  N   UNL     1      44.922   6.829  12.817  0.00  0.00    +0.000 NA
ATOM     22  C   UNL     1      46.137   7.447  12.841  0.00  0.00    +0.000 A 
BRANCH  20  23
ATOM     23  C   UNL     1      43.535   4.785  13.053  0.00  0.00    +0.000 C 
BRANCH  23  24
ATOM     24  N   UNL     1      43.031   4.256  11.772  0.00  0.00    +0.000 NA
ATOM     25  C   UNL     1      43.373   2.855  11.527  0.00  0.00    +0.000 C 
ATOM     26  C   UNL     1      44.541   2.875  10.563  0.00  0.00    +0.000 C 
ATOM     27  C   UNL     1      44.333   4.137   9.748  0.00  0.00    +0.000 C 
ATOM     28  C   UNL     1      43.398   5.011  10.575  0.00  0.00    +0.000 C 
ENDBRANCH  23  24
ENDBRANCH  20  23
ENDBRANCH  16  17
ENDBRANCH   1  16
TORSDOF 6
ENDMDL
MODEL 4
REMARK VINA RESULT:    -6.178      1.785      2.268
REMARK INTER + INTRA:          -8.893
REMARK INTER:                  -8.287
REMARK INTRA:                  -0.607
REMARK UNBOUND:                -0.729
REMARK  Name = 
REMARK  6 active torsions:
REMARK  status: ('A' for Active; 'I' for Inactive)
REMARK    1  A    between atoms: N_1  and  C_2
REMARK    2  A    between atoms: C_2  and  C_3
REMARK    3  A    between atoms: C_2  and  C_16
REMARK    4  A    between atoms: C_3  and  C_4
REMARK    5  A    between atoms: C_7  and  C_8
REMARK    6  A    between atoms: C_8  and  N_9
REMARK                            x       y       z     vdW  Elec       q    Type
REMARK                         _______ _______ _______ _____ _____    ______ ____
ROOT
ATOM      1  C   UNL     1      45.249   6.536  11.867  0.00  0.00    +0.000 C 
ENDROOT
BRANCH   1   2
ATOM      2  C   UNL     1      44.705   5.129  11.635  0.00  0.00    +0.000 A 
ATOM      3  C   UNL     1      43.952   4.455  12.587  0.00  0.00    +0.000 A 
ATOM      4  S   UNL     1      43.485   2.884  12.105  0.00  0.00    +0.000 S 
ATOM      5  C   UNL     1      44.214   3.070  10.578  0.00  0.00    +0.000 A 
ATOM      6  N   UNL     1      44.143   2.084   9.643  0.00  0.00    +0.000 NA
ATOM      7  C   UNL     1      44.699   2.379   8.515  0.00  0.00    +0.000 A 
ATOM      8  N   UNL     1      45.334   3.566   8.245  0.00  0.00    +0.000 N 
ATOM      9  C   UNL     1      45.439   4.587   9.165  0.00  0.00    +0.000 A 
ATOM     10  O   UNL     1      45.990   5.646   8.876  0.00  0.00    +0.000 OA
ATOM     11  C   UNL     1      44.824   4.306  10.446  0.00  0.00    +0.000 A 
ATOM     12  H   UNL     1      45.734   3.737   7.334  0.00  0.00    +0.000 HD
ENDBRANCH   1   2
BRANCH   1  13
ATOM     13  N   UNL     1      44.538   7.448  10.973  0.00  0.00    +0.000 NA
ATOM     14  H   UNL     1      43.679   7.008  10.646  0.00  0.00    +0.000 HD
ATOM     15  H   UNL     1      45.115   7.609  10.142  0.00  0.00    +0.000 HD
ENDBRANCH   1  13
BRANCH   1  16
ATOM     16  C   UNL     1      46.789   6.617  11.722  0.00  0.00    +0.000 C 
BRANCH  16  17
ATOM     17  C   UNL     1      47.669   6.597  12.956  0.00  0.00    +0.000 A 
ATOM     18  C   UNL     1      48.733   7.505  13.015  0.00  0.00    +0.000 A 
ATOM     19  C   UNL     1      49.583   7.532  14.116  0.00  0.00    +0.000 A 
ATOM     20  C   UNL     1      49.336   6.683  15.189  0.00  0.00    +0.000 A 
ATOM     21  N   UNL     1      48.313   5.791  15.164  0.00  0.00    +0.000 NA
ATOM     22  C   UNL     1      47.516   5.764  14.058  0.00  0.00    +0.000 A 
BRANCH  20  23
ATOM     23  C   UNL     1      50.241   6.728  16.414  0.00  0.00    +0.000 C 
BRANCH  23  24
ATOM     24  N   UNL     1      49.976   7.732  17.461  0.00  0.00    +0.000 NA
ATOM     25  C   UNL     1      48.556   7.990  17.697  0.00  0.00    +0.000 C 
ATOM     26  C   UNL     1      48.245   9.289  16.981  0.00  0.00    +0.000 C 
ATOM     27  C   UNL     1      49.548  10.063  17.028  0.00  0.00    +0.000 C 
ATOM     28  C   UNL     1      50.634   9.027  17.292  0.00  0.00    +0.000 C 
ENDBRANCH  23  24
ENDBRANCH  20  23
ENDBRANCH  16  17
ENDBRANCH   1  16
TORSDOF 6
ENDMDL
MODEL 5
REMARK VINA RESULT:    -6.017      4.470      6.590
REMARK INTER + INTRA:          -8.680
REMARK INTER:                  -7.840
REMARK INTRA:                  -0.840
REMARK UNBOUND:                -0.729
REMARK  Name = 
REMARK  6 active torsions:
REMARK  status: ('A' for Active; 'I' for Inactive)
REMARK    1  A    between atoms: N_1  and  C_2
REMARK    2  A    between atoms: C_2  and  C_3
REMARK    3  A    between atoms: C_2  and  C_16
REMARK    4  A    between atoms: C_3  and  C_4
REMARK    5  A    between atoms: C_7  and  C_8
REMARK    6  A    between atoms: C_8  and  N_9
REMARK                            x       y       z     vdW  Elec       q    Type
REMARK                         _______ _______ _______ _____ _____    ______ ____
ROOT
ATOM      1  C   UNL     1      47.808   5.991  13.892  0.00  0.00    +0.000 C 
ENDROOT
BRANCH   1   2
ATOM      2  C   UNL     1      46.511   5.990  13.087  0.00  0.00    +0.000 A 
ATOM      3  C   UNL     1      45.961   7.149  12.557  0.00  0.00    +0.000 A 
ATOM      4  S   UNL     1      44.492   6.892  11.724  0.00  0.00    +0.000 S 
ATOM      5  C   UNL     1      44.570   5.211  11.979  0.00  0.00    +0.000 A 
ATOM      6  N   UNL     1      43.619   4.380  11.474  0.00  0.00    +0.000 NA
ATOM      7  C   UNL     1      43.829   3.127  11.704  0.00  0.00    +0.000 A 
ATOM      8  N   UNL     1      44.898   2.632  12.410  0.00  0.00    +0.000 N 
ATOM      9  C   UNL     1      45.880   3.437  12.947  0.00  0.00    +0.000 A 
ATOM     10  O   UNL     1      46.837   2.954  13.547  0.00  0.00    +0.000 OA
ATOM     11  C   UNL     1      45.692   4.854  12.710  0.00  0.00    +0.000 A 
ATOM     12  H   UNL     1      45.011   1.637  12.539  0.00  0.00    +0.000 HD
ENDBRANCH   1   2
BRANCH   1  13
ATOM     13  N   UNL     1      47.577   5.238  15.122  0.00  0.00    +0.000 NA
ATOM     14  H   UNL     1      47.077   4.375  14.908  0.00  0.00    +0.000 HD
ATOM     15  H   UNL     1      46.961   5.786  15.731  0.00  0.00    +0.000 HD
ENDBRANCH   1  13
BRANCH   1  16
ATOM     16  C   UNL     1      48.359   7.418  14.143  0.00  0.00    +0.000 C 
BRANCH  16  17
ATOM     17  C   UNL     1      49.545   7.924  13.348  0.00  0.00    +0.000 A 
ATOM     18  C   UNL     1      49.405   8.025  11.958  0.00  0.00    +0.000 A 
ATOM     19  C   UNL     1      50.460   8.475  11.170  0.00  0.00    +0.000 A 
ATOM     20  C   UNL     1      51.643   8.876  11.778  0.00  0.00    +0.000 A 
ATOM     21  N   UNL     1      51.811   8.791  13.123  0.00  0.00    +0.000 NA
ATOM     22  C   UNL     1      50.773   8.316  13.868  0.00  0.00    +0.000 A 
BRANCH  20  23
ATOM     23  C   UNL     1      52.792   9.402  10.927  0.00  0.00    +0.000 C 
BRANCH  23  24
ATOM     24  N   UNL     1      53.707   8.437  10.289  0.00  0.00    +0.000 NA
ATOM     25  C   UNL     1      53.507   8.286   8.847  0.00  0.00    +0.000 C 
ATOM     26  C   UNL     1      52.723   7.002   8.669  0.00  0.00    +0.000 C 
ATOM     27  C   UNL     1      53.152   6.136   9.838  0.00  0.00    +0.000 C 
ATOM     28  C   UNL     1      53.734   7.095  10.869  0.00  0.00    +0.000 C 
ENDBRANCH  23  24
ENDBRANCH  20  23
ENDBRANCH  16  17
ENDBRANCH   1  16
TORSDOF 6
ENDMDL
MODEL 6
REMARK VINA RESULT:    -5.922      2.049      2.678
REMARK INTER + INTRA:          -8.555
REMARK INTER:                  -7.808
REMARK INTRA:                  -0.747
REMARK UNBOUND:                -0.729
REMARK  Name = 
REMARK  6 active torsions:
REMARK  status: ('A' for Active; 'I' for Inactive)
REMARK    1  A    between atoms: N_1  and  C_2
REMARK    2  A    between atoms: C_2  and  C_3
REMARK    3  A    between atoms: C_2  and  C_16
REMARK    4  A    between atoms: C_3  and  C_4
REMARK    5  A    between atoms: C_7  and  C_8
REMARK    6  A    between atoms: C_8  and  N_9
REMARK                            x       y       z     vdW  Elec       q    Type
REMARK                         _______ _______ _______ _____ _____    ______ ____
ROOT
ATOM      1  C   UNL     1      46.206   6.853  12.233  0.00  0.00    +0.000 C 
ENDROOT
BRANCH   1   2
ATOM      2  C   UNL     1      45.650   5.791  11.288  0.00  0.00    +0.000 A 
ATOM      3  C   UNL     1      45.907   5.797   9.924  0.00  0.00    +0.000 A 
ATOM      4  S   UNL     1      45.148   4.523   9.076  0.00  0.00    +0.000 S 
ATOM      5  C   UNL     1      44.501   3.874  10.510  0.00  0.00    +0.000 A 
ATOM      6  N   UNL     1      43.765   2.730  10.492  0.00  0.00    +0.000 NA
ATOM      7  C   UNL     1      43.377   2.326  11.656  0.00  0.00    +0.000 A 
ATOM      8  N   UNL     1      43.646   2.976  12.836  0.00  0.00    +0.000 N 
ATOM      9  C   UNL     1      44.378   4.142  12.901  0.00  0.00    +0.000 A 
ATOM     10  O   UNL     1      44.622   4.678  13.978  0.00  0.00    +0.000 OA
ATOM     11  C   UNL     1      44.842   4.632  11.618  0.00  0.00    +0.000 A 
ATOM     12  H   UNL     1      43.325   2.596  13.715  0.00  0.00    +0.000 HD
ENDBRANCH   1   2
BRANCH   1  13
ATOM     13  N   UNL     1      45.740   8.158  11.770  0.00  0.00    +0.000 NA
ATOM     14  H   UNL     1      46.539   8.753  11.558  0.00  0.00    +0.000 HD
ATOM     15  H   UNL     1      45.233   8.615  12.535  0.00  0.00    +0.000 HD
ENDBRANCH   1  13
BRANCH   1  16
ATOM     16  C   UNL     1      47.746   6.773  12.387  0.00  0.00    +0.000 C 
BRANCH  16  17
ATOM     17  C   UNL     1      48.362   6.591  13.759  0.00  0.00    +0.000 A 
ATOM     18  C   UNL     1      49.505   7.338  14.066  0.00  0.00    +0.000 A 
ATOM     19  C   UNL     1      50.124   7.211  15.306  0.00  0.00    +0.000 A 
ATOM     20  C   UNL     1      49.567   6.372  16.263  0.00  0.00    +0.000 A 
ATOM     21  N   UNL     1      48.460   5.633  15.998  0.00  0.00    +0.000 NA
ATOM     22  C   UNL     1      47.893   5.753  14.764  0.00  0.00    +0.000 A 
BRANCH  20  23
ATOM     23  C   UNL     1      50.219   6.250  17.636  0.00  0.00    +0.000 C 
BRANCH  23  24
ATOM     24  N   UNL     1      49.723   7.095  18.738  0.00  0.00    +0.000 NA
ATOM     25  C   UNL     1      48.835   6.401  19.672  0.00  0.00    +0.000 C 
ATOM     26  C   UNL     1      47.429   6.819  19.296  0.00  0.00    +0.000 C 
ATOM     27  C   UNL     1      47.591   8.219  18.734  0.00  0.00    +0.000 C 
ATOM     28  C   UNL     1      49.061   8.339  18.348  0.00  0.00    +0.000 C 
ENDBRANCH  23  24
ENDBRANCH  20  23
ENDBRANCH  16  17
ENDBRANCH   1  16
TORSDOF 6
ENDMDL
MODEL 7
REMARK VINA RESULT:    -5.859      2.332      3.026
REMARK INTER + INTRA:          -8.471
REMARK INTER:                  -7.828
REMARK INTRA:                  -0.643
REMARK UNBOUND:                -0.729
REMARK  Name = 
REMARK  6 active torsions:
REMARK  status: ('A' for Active; 'I' for Inactive)
REMARK    1  A    between atoms: N_1  and  C_2
REMARK    2  A    between atoms: C_2  and  C_3
REMARK    3  A    between atoms: C_2  and  C_16
REMARK    4  A    between atoms: C_3  and  C_4
REMARK    5  A    between atoms: C_7  and  C_8
REMARK    6  A    between atoms: C_8  and  N_9
REMARK                            x       y       z     vdW  Elec       q    Type
REMARK                         _______ _______ _______ _____ _____    ______ ____
ROOT
ATOM      1  C   UNL     1      45.287   7.437  12.029  0.00  0.00    +0.000 C 
ENDROOT
BRANCH   1   2
ATOM      2  C   UNL     1      45.181   6.190  11.155  0.00  0.00    +0.000 A 
ATOM      3  C   UNL     1      45.883   6.050   9.967  0.00  0.00    +0.000 A 
ATOM      4  S   UNL     1      45.573   4.578   9.156  0.00  0.00    +0.000 S 
ATOM      5  C   UNL     1      44.540   4.042  10.398  0.00  0.00    +0.000 A 
ATOM      6  N   UNL     1      43.960   2.812  10.345  0.00  0.00    +0.000 NA
ATOM      7  C   UNL     1      43.239   2.518  11.375  0.00  0.00    +0.000 A 
ATOM      8  N   UNL     1      43.033   3.351  12.447  0.00  0.00    +0.000 N 
ATOM      9  C   UNL     1      43.592   4.608  12.538  0.00  0.00    +0.000 A 
ATOM     10  O   UNL     1      43.408   5.313  13.527  0.00  0.00    +0.000 OA
ATOM     11  C   UNL     1      44.416   4.983  11.407  0.00  0.00    +0.000 A 
ATOM     12  H   UNL     1      42.470   3.051  13.229  0.00  0.00    +0.000 HD
ENDBRANCH   1   2
BRANCH   1  13
ATOM     13  N   UNL     1      44.439   8.473  11.442  0.00  0.00    +0.000 NA
ATOM     14  H   UNL     1      43.935   8.964  12.179  0.00  0.00    +0.000 HD
ATOM     15  H   UNL     1      43.729   8.022  10.856  0.00  0.00    +0.000 HD
ENDBRANCH   1  13
BRANCH   1  16
ATOM     16  C   UNL     1      46.750   7.896  12.247  0.00  0.00    +0.000 C 
BRANCH  16  17
ATOM     17  C   UNL     1      47.524   7.415  13.458  0.00  0.00    +0.000 A 
ATOM     18  C   UNL     1      48.136   8.379  14.267  0.00  0.00    +0.000 A 
ATOM     19  C   UNL     1      48.868   8.002  15.389  0.00  0.00    +0.000 A 
ATOM     20  C   UNL     1      48.945   6.658  15.734  0.00  0.00    +0.000 A 
ATOM     21  N   UNL     1      48.363   5.698  14.970  0.00  0.00    +0.000 NA
ATOM     22  C   UNL     1      47.679   6.093  13.859  0.00  0.00    +0.000 A 
BRANCH  20  23
ATOM     23  C   UNL     1      49.716   6.238  16.978  0.00  0.00    +0.000 C 
BRANCH  23  24
ATOM     24  N   UNL     1      50.813   5.262  16.843  0.00  0.00    +0.000 NA
ATOM     25  C   UNL     1      50.683   4.089  17.708  0.00  0.00    +0.000 C 
ATOM     26  C   UNL     1      51.619   4.328  18.875  0.00  0.00    +0.000 C 
ATOM     27  C   UNL     1      52.736   5.172  18.292  0.00  0.00    +0.000 C 
ATOM     28  C   UNL     1      52.167   5.786  17.019  0.00  0.00    +0.000 C 
ENDBRANCH  23  24
ENDBRANCH  20  23
ENDBRANCH  16  17
ENDBRANCH   1  16
TORSDOF 6
ENDMDL
MODEL 8
REMARK VINA RESULT:    -5.440      3.429      4.841
REMARK INTER + INTRA:          -7.918
REMARK INTER:                  -7.271
REMARK INTRA:                  -0.647
REMARK UNBOUND:                -0.729
REMARK  Name = 
REMARK  6 active torsions:
REMARK  status: ('A' for Active; 'I' for Inactive)
REMARK    1  A    between atoms: N_1  and  C_2
REMARK    2  A    between atoms: C_2  and  C_3
REMARK    3  A    between atoms: C_2  and  C_16
REMARK    4  A    between atoms: C_3  and  C_4
REMARK    5  A    between atoms: C_7  and  C_8
REMARK    6  A    between atoms: C_8  and  N_9
REMARK                            x       y       z     vdW  Elec       q    Type
REMARK                         _______ _______ _______ _____ _____    ______ ____
ROOT
ATOM      1  C   UNL     1      48.544   7.531  13.460  0.00  0.00    +0.000 C 
ENDROOT
BRANCH   1   2
ATOM      2  C   UNL     1      47.112   7.422  12.943  0.00  0.00    +0.000 A 
ATOM      3  C   UNL     1      46.498   8.439  12.225  0.00  0.00    +0.000 A 
ATOM      4  S   UNL     1      44.885   8.091  11.784  0.00  0.00    +0.000 S 
ATOM      5  C   UNL     1      44.966   6.538  12.479  0.00  0.00    +0.000 A 
ATOM      6  N   UNL     1      43.910   5.684  12.411  0.00  0.00    +0.000 NA
ATOM      7  C   UNL     1      44.127   4.525  12.938  0.00  0.00    +0.000 A 
ATOM      8  N   UNL     1      45.302   4.150  13.541  0.00  0.00    +0.000 N 
ATOM      9  C   UNL     1      46.395   4.985  13.640  0.00  0.00    +0.000 A 
ATOM     10  O   UNL     1      47.439   4.603  14.161  0.00  0.00    +0.000 OA
ATOM     11  C   UNL     1      46.202   6.298  13.058  0.00  0.00    +0.000 A 
ATOM     12  H   UNL     1      45.411   3.220  13.918  0.00  0.00    +0.000 HD
ENDBRANCH   1   2
BRANCH   1  13
ATOM     13  N   UNL     1      49.314   6.425  12.894  0.00  0.00    +0.000 NA
ATOM     14  H   UNL     1      48.725   5.595  12.829  0.00  0.00    +0.000 HD
ATOM     15  H   UNL     1      50.074   6.191  13.541  0.00  0.00    +0.000 HD
ENDBRANCH   1  13
BRANCH   1  16
ATOM     16  C   UNL     1      48.623   7.604  15.005  0.00  0.00    +0.000 C 
BRANCH  16  17
ATOM     17  C   UNL     1      49.768   6.937  15.739  0.00  0.00    +0.000 A 
ATOM     18  C   UNL     1      49.458   5.906  16.634  0.00  0.00    +0.000 A 
ATOM     19  C   UNL     1      50.463   5.258  17.346  0.00  0.00    +0.000 A 
ATOM     20  C   UNL     1      51.790   5.606  17.122  0.00  0.00    +0.000 A 
ATOM     21  N   UNL     1      52.125   6.601  16.261  0.00  0.00    +0.000 NA
ATOM     22  C   UNL     1      51.118   7.241  15.602  0.00  0.00    +0.000 A 
BRANCH  20  23
ATOM     23  C   UNL     1      52.901   4.881  17.872  0.00  0.00    +0.000 C 
BRANCH  23  24
ATOM     24  N   UNL     1      52.570   3.660  18.631  0.00  0.00    +0.000 NA
ATOM     25  C   UNL     1      53.340   3.495  19.864  0.00  0.00    +0.000 C 
ATOM     26  C   UNL     1      54.422   2.483  19.545  0.00  0.00    +0.000 C 
ATOM     27  C   UNL     1      53.804   1.595  18.482  0.00  0.00    +0.000 C 
ATOM     28  C   UNL     1      52.652   2.401  17.892  0.00  0.00    +0.000 C 
ENDBRANCH  23  24
ENDBRANCH  20  23
ENDBRANCH  16  17
ENDBRANCH   1  16
TORSDOF 6
ENDMDL
MODEL 9
REMARK VINA RESULT:    -5.436      2.250      3.501
REMARK INTER + INTRA:          -7.912
REMARK INTER:                  -7.013
REMARK INTRA:                  -0.899
REMARK UNBOUND:                -0.729
REMARK  Name = 
REMARK  6 active torsions:
REMARK  status: ('A' for Active; 'I' for Inactive)
REMARK    1  A    between atoms: N_1  and  C_2
REMARK    2  A    between atoms: C_2  and  C_3
REMARK    3  A    between atoms: C_2  and  C_16
REMARK    4  A    between atoms: C_3  and  C_4
REMARK    5  A    between atoms: C_7  and  C_8
REMARK    6  A    between atoms: C_8  and  N_9
REMARK                            x       y       z     vdW  Elec       q    Type
REMARK                         _______ _______ _______ _____ _____    ______ ____
ROOT
ATOM      1  C   UNL     1      47.012   4.930  14.068  0.00  0.00    +0.000 C 
ENDROOT
BRANCH   1   2
ATOM      2  C   UNL     1      45.841   4.617  13.139  0.00  0.00    +0.000 A 
ATOM      3  C   UNL     1      45.440   3.318  12.857  0.00  0.00    +0.000 A 
ATOM      4  S   UNL     1      44.127   3.227  11.768  0.00  0.00    +0.000 S 
ATOM      5  C   UNL     1      44.001   4.923  11.683  0.00  0.00    +0.000 A 
ATOM      6  N   UNL     1      43.031   5.517  10.938  0.00  0.00    +0.000 NA
ATOM      7  C   UNL     1      43.023   6.807  11.003  0.00  0.00    +0.000 A 
ATOM      8  N   UNL     1      43.912   7.556  11.733  0.00  0.00    +0.000 N 
ATOM      9  C   UNL     1      44.917   6.997  12.494  0.00  0.00    +0.000 A 
ATOM     10  O   UNL     1      45.674   7.700  13.158  0.00  0.00    +0.000 OA
ATOM     11  C   UNL     1      44.962   5.549  12.459  0.00  0.00    +0.000 A 
ATOM     12  H   UNL     1      43.839   8.563  11.753  0.00  0.00    +0.000 HD
ENDBRANCH   1   2
BRANCH   1  13
ATOM     13  N   UNL     1      48.084   5.511  13.262  0.00  0.00    +0.000 NA
ATOM     14  H   UNL     1      48.309   4.887  12.489  0.00  0.00    +0.000 HD
ATOM     15  H   UNL     1      48.929   5.574  13.839  0.00  0.00    +0.000 HD
ENDBRANCH   1  13
BRANCH   1  16
ATOM     16  C   UNL     1      47.466   3.704  14.898  0.00  0.00    +0.000 C 
BRANCH  16  17
ATOM     17  C   UNL     1      47.837   3.871  16.357  0.00  0.00    +0.000 A 
ATOM     18  C   UNL     1      47.584   5.110  16.958  0.00  0.00    +0.000 A 
ATOM     19  C   UNL     1      47.909   5.331  18.293  0.00  0.00    +0.000 A 
ATOM     20  C   UNL     1      48.443   4.292  19.046  0.00  0.00    +0.000 A 
ATOM     21  N   UNL     1      48.701   3.078  18.494  0.00  0.00    +0.000 NA
ATOM     22  C   UNL     1      48.402   2.900  17.176  0.00  0.00    +0.000 A 
BRANCH  20  23
ATOM     23  C   UNL     1      48.772   4.513  20.517  0.00  0.00    +0.000 C 
BRANCH  23  24
ATOM     24  N   UNL     1      50.059   5.139  20.874  0.00  0.00    +0.000 NA
ATOM     25  C   UNL     1      49.974   6.575  21.139  0.00  0.00    +0.000 C 
ATOM     26  C   UNL     1      50.482   7.259  19.887  0.00  0.00    +0.000 C 
ATOM     27  C   UNL     1      51.490   6.284  19.310  0.00  0.00    +0.000 C 
ATOM     28  C   UNL     1      51.158   4.933  19.931  0.00  0.00    +0.000 C 
ENDBRANCH  23  24
ENDBRANCH  20  23
ENDBRANCH  16  17
ENDBRANCH   1  16
TORSDOF 6
ENDMDL
