MODEL 1
REMARK VINA RESULT:    -8.493      0.000      0.000
REMARK INTER + INTRA:         -11.147
REMARK INTER:                 -10.479
REMARK INTRA:                  -0.669
REMARK UNBOUND:                -0.669
REMARK  Name = 
REMARK  4 active torsions:
REMARK  status: ('A' for Active; 'I' for Inactive)
REMARK    1  A    between atoms: C_2  and  C_4
REMARK    2  A    between atoms: N_8  and  C_9
REMARK    3  A    between atoms: C_9  and  C_10
REMARK    4  A    between atoms: C_14  and  C_15
REMARK                            x       y       z     vdW  Elec       q    Type
REMARK                         _______ _______ _______ _____ _____    ______ ____
ROOT
ATOM      1  C   UNL     1      46.635   2.484   7.162  0.00  0.00    +0.000 A 
ATOM      2  C   UNL     1      46.021   3.694   7.466  0.00  0.00    +0.000 A 
ATOM      3  C   UNL     1      45.168   3.762   8.565  0.00  0.00    +0.000 A 
ATOM      4  C   UNL     1      44.935   2.629   9.339  0.00  0.00    +0.000 A 
ATOM      5  N   UNL     1      44.155   2.621  10.456  0.00  0.00    +0.000 N 
ATOM      6  N   UNL     1      45.502   1.444   9.030  0.00  0.00    +0.000 NA
ATOM      7  C   UNL     1      46.327   1.390   7.952  0.00  0.00    +0.000 A 
ATOM      8  H   UNL     1      44.062   1.705  10.878  0.00  0.00    +0.000 HD
ENDROOT
BRANCH   1  10
ATOM      9  N   UNL     1      47.520   3.265   5.045  0.00  0.00    +0.000 N 
ATOM     10  C   UNL     1      47.587   2.333   6.044  0.00  0.00    +0.000 C 
ATOM     11  O   UNL     1      48.422   1.440   6.029  0.00  0.00    +0.000 OA
ATOM     12  H   UNL     1      48.241   3.219   4.334  0.00  0.00    +0.000 HD
ATOM     13  H   UNL     1      47.023   4.139   5.145  0.00  0.00    +0.000 HD
ENDBRANCH   1  10
BRANCH   5  14
ATOM     14  C   UNL     1      43.506   3.752  11.066  0.00  0.00    +0.000 C 
BRANCH  14  15
ATOM     15  C   UNL     1      44.488   4.577  11.855  0.00  0.00    +0.000 A 
ATOM     16  C   UNL     1      45.285   3.989  12.838  0.00  0.00    +0.000 A 
ATOM     17  C   UNL     1      46.203   4.782  13.504  0.00  0.00    +0.000 A 
ATOM     18  N   UNL     1      46.373   6.099  13.264  0.00  0.00    +0.000 NA
ATOM     19  C   UNL     1      45.579   6.685  12.332  0.00  0.00    +0.000 A 
ATOM     20  C   UNL     1      44.639   5.947  11.609  0.00  0.00    +0.000 A 
BRANCH  19  21
ATOM     21  C   UNL     1      45.789   8.127  12.128  0.00  0.00    +0.000 A 
ATOM     22  C   UNL     1      47.012   8.745  12.426  0.00  0.00    +0.000 A 
ATOM     23  C   UNL     1      47.188  10.113  12.220  0.00  0.00    +0.000 A 
ATOM     24  C   UNL     1      46.126  10.841  11.716  0.00  0.00    +0.000 A 
ATOM     25  N   UNL     1      44.927  10.302  11.415  0.00  0.00    +0.000 NA
ATOM     26  C   UNL     1      44.791   8.970  11.637  0.00  0.00    +0.000 A 
ENDBRANCH  19  21
ENDBRANCH  14  15
ENDBRANCH   5  14
TORSDOF 4
ENDMDL
MODEL 2
REMARK VINA RESULT:    -8.477      1.805      3.803
REMARK INTER + INTRA:         -11.127
REMARK INTER:                 -10.515
REMARK INTRA:                  -0.613
REMARK UNBOUND:                -0.669
REMARK  Name = 
REMARK  4 active torsions:
REMARK  status: ('A' for Active; 'I' for Inactive)
REMARK    1  A    between atoms: C_2  and  C_4
REMARK    2  A    between atoms: N_8  and  C_9
REMARK    3  A    between atoms: C_9  and  C_10
REMARK    4  A    between atoms: C_14  and  C_15
REMARK                            x       y       z     vdW  Elec       q    Type
REMARK                         _______ _______ _______ _____ _____    ______ ____
ROOT
ATOM      1  C   UNL     1      46.419   2.474   7.692  0.00  0.00    +0.000 A 
ATOM      2  C   UNL     1      46.239   3.848   7.799  0.00  0.00    +0.000 A 
ATOM      3  C   UNL     1      45.319   4.340   8.722  0.00  0.00    +0.000 A 
ATOM      4  C   UNL     1      44.590   3.462   9.517  0.00  0.00    +0.000 A 
ATOM      5  N   UNL     1      43.708   3.859  10.475  0.00  0.00    +0.000 N 
ATOM      6  N   UNL     1      44.736   2.125   9.395  0.00  0.00    +0.000 NA
ATOM      7  C   UNL     1      45.633   1.658   8.487  0.00  0.00    +0.000 A 
ATOM      8  H   UNL     1      43.236   3.090  10.936  0.00  0.00    +0.000 HD
ENDROOT
BRANCH   1  10
ATOM      9  N   UNL     1      48.499   2.624   6.457  0.00  0.00    +0.000 N 
ATOM     10  C   UNL     1      47.403   1.869   6.774  0.00  0.00    +0.000 C 
ATOM     11  O   UNL     1      47.268   0.731   6.346  0.00  0.00    +0.000 OA
ATOM     12  H   UNL     1      49.221   2.167   5.912  0.00  0.00    +0.000 HD
ATOM     13  H   UNL     1      48.763   3.449   6.976  0.00  0.00    +0.000 HD
ENDBRANCH   1  10
BRANCH   5  14
ATOM     14  C   UNL     1      43.424   5.211  10.882  0.00  0.00    +0.000 C 
BRANCH  14  15
ATOM     15  C   UNL     1      44.572   5.791  11.666  0.00  0.00    +0.000 A 
ATOM     16  C   UNL     1      45.005   7.097  11.436  0.00  0.00    +0.000 A 
ATOM     17  C   UNL     1      46.034   7.598  12.213  0.00  0.00    +0.000 A 
ATOM     18  N   UNL     1      46.653   6.894  13.184  0.00  0.00    +0.000 NA
ATOM     19  C   UNL     1      46.260   5.612  13.391  0.00  0.00    +0.000 A 
ATOM     20  C   UNL     1      45.219   5.042  12.656  0.00  0.00    +0.000 A 
BRANCH  19  21
ATOM     21  C   UNL     1      46.986   4.883  14.444  0.00  0.00    +0.000 A 
ATOM     22  C   UNL     1      47.544   5.542  15.549  0.00  0.00    +0.000 A 
ATOM     23  C   UNL     1      48.223   4.827  16.535  0.00  0.00    +0.000 A 
ATOM     24  C   UNL     1      48.332   3.456  16.394  0.00  0.00    +0.000 A 
ATOM     25  N   UNL     1      47.819   2.771  15.352  0.00  0.00    +0.000 NA
ATOM     26  C   UNL     1      47.173   3.500  14.408  0.00  0.00    +0.000 A 
ENDBRANCH  19  21
ENDBRANCH  14  15
ENDBRANCH   5  14
TORSDOF 4
ENDMDL
MODEL 3
REMARK VINA RESULT:    -7.640      3.040      6.946
REMARK INTER + INTRA:         -10.095
REMARK INTER:                  -9.409
REMARK INTRA:                  -0.686
REMARK UNBOUND:                -0.669
REMARK  Name = 
REMARK  4 active torsions:
REMARK  status: ('A' for Active; 'I' for Inactive)
REMARK    1  A    between atoms: C_2  and  C_4
REMARK    2  A    between atoms: N_8  and  C_9
REMARK    3  A    between atoms: C_9  and  C_10
REMARK    4  A    between atoms: C_14  and  C_15
REMARK                            x       y       z     vdW  Elec       q    Type
REMARK                         _______ _______ _______ _____ _____    ______ ____
ROOT
ATOM      1  C   UNL     1      49.520   7.667  12.755  0.00  0.00    +0.000 A 
ATOM      2  C   UNL     1      48.623   7.730  11.693  0.00  0.00    +0.000 A 
ATOM      3  C   UNL     1      47.337   7.223  11.863  0.00  0.00    +0.000 A 
ATOM      4  C   UNL     1      46.964   6.659  13.079  0.00  0.00    +0.000 A 
ATOM      5  N   UNL     1      45.715   6.185  13.344  0.00  0.00    +0.000 N 
ATOM      6  N   UNL     1      47.839   6.564  14.102  0.00  0.00    +0.000 NA
ATOM      7  C   UNL     1      49.093   7.058  13.922  0.00  0.00    +0.000 A 
ATOM      8  H   UNL     1      45.625   5.773  14.265  0.00  0.00    +0.000 HD
ENDROOT
BRANCH   1  10
ATOM      9  N   UNL     1      51.692   7.736  11.683  0.00  0.00    +0.000 N 
ATOM     10  C   UNL     1      50.886   8.219  12.677  0.00  0.00    +0.000 C 
ATOM     11  O   UNL     1      51.269   9.095  13.439  0.00  0.00    +0.000 OA
ATOM     12  H   UNL     1      52.591   8.190  11.568  0.00  0.00    +0.000 HD
ATOM     13  H   UNL     1      51.336   7.207  10.899  0.00  0.00    +0.000 HD
ENDBRANCH   1  10
BRANCH   5  14
ATOM     14  C   UNL     1      44.567   6.240  12.477  0.00  0.00    +0.000 C 
BRANCH  14  15
ATOM     15  C   UNL     1      44.375   4.933  11.754  0.00  0.00    +0.000 A 
ATOM     16  C   UNL     1      43.460   3.988  12.220  0.00  0.00    +0.000 A 
ATOM     17  C   UNL     1      43.288   2.822  11.496  0.00  0.00    +0.000 A 
ATOM     18  N   UNL     1      43.960   2.537  10.360  0.00  0.00    +0.000 NA
ATOM     19  C   UNL     1      44.874   3.437   9.918  0.00  0.00    +0.000 A 
ATOM     20  C   UNL     1      45.093   4.642  10.588  0.00  0.00    +0.000 A 
BRANCH  19  21
ATOM     21  C   UNL     1      45.595   3.065   8.689  0.00  0.00    +0.000 A 
ATOM     22  C   UNL     1      46.031   1.752   8.457  0.00  0.00    +0.000 A 
ATOM     23  C   UNL     1      46.708   1.424   7.283  0.00  0.00    +0.000 A 
ATOM     24  C   UNL     1      46.939   2.425   6.358  0.00  0.00    +0.000 A 
ATOM     25  N   UNL     1      46.547   3.704   6.530  0.00  0.00    +0.000 NA
ATOM     26  C   UNL     1      45.899   3.988   7.687  0.00  0.00    +0.000 A 
ENDBRANCH  19  21
ENDBRANCH  14  15
ENDBRANCH   5  14
TORSDOF 4
ENDMDL
MODEL 4
REMARK VINA RESULT:    -7.261      2.822      6.964
REMARK INTER + INTRA:          -9.628
REMARK INTER:                  -9.190
REMARK INTRA:                  -0.438
REMARK UNBOUND:                -0.669
REMARK  Name = 
REMARK  4 active torsions:
REMARK  status: ('A' for Active; 'I' for Inactive)
REMARK    1  A    between atoms: C_2  and  C_4
REMARK    2  A    between atoms: N_8  and  C_9
REMARK    3  A    between atoms: C_9  and  C_10
REMARK    4  A    between atoms: C_14  and  C_15
REMARK                            x       y       z     vdW  Elec       q    Type
REMARK                         _______ _______ _______ _____ _____    ______ ____
ROOT
ATOM      1  C   UNL     1      47.698   7.214  13.142  0.00  0.00    +0.000 A 
ATOM      2  C   UNL     1      46.754   6.276  13.545  0.00  0.00    +0.000 A 
ATOM      3  C   UNL     1      45.523   6.232  12.895  0.00  0.00    +0.000 A 
ATOM      4  C   UNL     1      45.247   7.122  11.861  0.00  0.00    +0.000 A 
ATOM      5  N   UNL     1      44.090   7.115  11.143  0.00  0.00    +0.000 N 
ATOM      6  N   UNL     1      46.146   8.056  11.487  0.00  0.00    +0.000 NA
ATOM      7  C   UNL     1      47.341   8.092  12.133  0.00  0.00    +0.000 A 
ATOM      8  H   UNL     1      44.038   7.854  10.453  0.00  0.00    +0.000 HD
ENDROOT
BRANCH   1  10
ATOM      9  N   UNL     1      50.107   7.064  12.918  0.00  0.00    +0.000 N 
ATOM     10  C   UNL     1      49.042   7.301  13.744  0.00  0.00    +0.000 C 
ATOM     11  O   UNL     1      49.201   7.609  14.917  0.00  0.00    +0.000 OA
ATOM     12  H   UNL     1      51.027   7.226  13.309  0.00  0.00    +0.000 HD
ATOM     13  H   UNL     1      50.025   7.053  11.911  0.00  0.00    +0.000 HD
ENDBRANCH   1  10
BRANCH   5  14
ATOM     14  C   UNL     1      43.003   6.179  11.263  0.00  0.00    +0.000 C 
BRANCH  14  15
ATOM     15  C   UNL     1      43.471   4.772  10.995  0.00  0.00    +0.000 A 
ATOM     16  C   UNL     1      43.100   3.724  11.839  0.00  0.00    +0.000 A 
ATOM     17  C   UNL     1      43.520   2.444  11.525  0.00  0.00    +0.000 A 
ATOM     18  N   UNL     1      44.276   2.144  10.447  0.00  0.00    +0.000 NA
ATOM     19  C   UNL     1      44.668   3.162   9.641  0.00  0.00    +0.000 A 
ATOM     20  C   UNL     1      44.273   4.479   9.885  0.00  0.00    +0.000 A 
BRANCH  19  21
ATOM     21  C   UNL     1      45.511   2.782   8.495  0.00  0.00    +0.000 A 
ATOM     22  C   UNL     1      45.756   3.666   7.434  0.00  0.00    +0.000 A 
ATOM     23  C   UNL     1      46.563   3.283   6.362  0.00  0.00    +0.000 A 
ATOM     24  C   UNL     1      47.110   2.014   6.374  0.00  0.00    +0.000 A 
ATOM     25  N   UNL     1      46.905   1.122   7.364  0.00  0.00    +0.000 NA
ATOM     26  C   UNL     1      46.109   1.526   8.386  0.00  0.00    +0.000 A 
ENDBRANCH  19  21
ENDBRANCH  14  15
ENDBRANCH   5  14
TORSDOF 4
ENDMDL
MODEL 5
REMARK VINA RESULT:    -6.993      2.024      2.409
REMARK INTER + INTRA:          -9.297
REMARK INTER:                  -8.641
REMARK INTRA:                  -0.656
REMARK UNBOUND:                -0.669
REMARK  Name = 
REMARK  4 active torsions:
REMARK  status: ('A' for Active; 'I' for Inactive)
REMARK    1  A    between atoms: C_2  and  C_4
REMARK    2  A    between atoms: N_8  and  C_9
REMARK    3  A    between atoms: C_9  and  C_10
REMARK    4  A    between atoms: C_14  and  C_15
REMARK                            x       y       z     vdW  Elec       q    Type
REMARK                         _______ _______ _______ _____ _____    ______ ____
ROOT
ATOM      1  C   UNL     1      45.959   2.904   7.789  0.00  0.00    +0.000 A 
ATOM      2  C   UNL     1      46.089   4.243   8.140  0.00  0.00    +0.000 A 
ATOM      3  C   UNL     1      45.448   4.708   9.285  0.00  0.00    +0.000 A 
ATOM      4  C   UNL     1      44.685   3.839  10.060  0.00  0.00    +0.000 A 
ATOM      5  N   UNL     1      44.067   4.199  11.218  0.00  0.00    +0.000 N 
ATOM      6  N   UNL     1      44.528   2.546   9.707  0.00  0.00    +0.000 NA
ATOM      7  C   UNL     1      45.154   2.106   8.583  0.00  0.00    +0.000 A 
ATOM      8  H   UNL     1      43.522   3.455  11.636  0.00  0.00    +0.000 HD
ENDROOT
BRANCH   1  10
ATOM      9  N   UNL     1      47.272   1.119   6.806  0.00  0.00    +0.000 N 
ATOM     10  C   UNL     1      46.639   2.318   6.618  0.00  0.00    +0.000 C 
ATOM     11  O   UNL     1      46.606   2.856   5.521  0.00  0.00    +0.000 OA
ATOM     12  H   UNL     1      47.647   0.671   5.978  0.00  0.00    +0.000 HD
ATOM     13  H   UNL     1      47.111   0.537   7.616  0.00  0.00    +0.000 HD
ENDBRANCH   1  10
BRANCH   5  14
ATOM     14  C   UNL     1      44.139   5.479  11.875  0.00  0.00    +0.000 C 
BRANCH  14  15
ATOM     15  C   UNL     1      45.443   5.633  12.613  0.00  0.00    +0.000 A 
ATOM     16  C   UNL     1      45.772   4.780  13.667  0.00  0.00    +0.000 A 
ATOM     17  C   UNL     1      47.000   4.935  14.283  0.00  0.00    +0.000 A 
ATOM     18  N   UNL     1      47.905   5.873  13.929  0.00  0.00    +0.000 NA
ATOM     19  C   UNL     1      47.579   6.727  12.927  0.00  0.00    +0.000 A 
ATOM     20  C   UNL     1      46.363   6.624  12.248  0.00  0.00    +0.000 A 
BRANCH  19  21
ATOM     21  C   UNL     1      48.591   7.745  12.599  0.00  0.00    +0.000 A 
ATOM     22  C   UNL     1      49.901   7.669  13.093  0.00  0.00    +0.000 A 
ATOM     23  C   UNL     1      50.843   8.644  12.764  0.00  0.00    +0.000 A 
ATOM     24  C   UNL     1      50.451   9.683  11.941  0.00  0.00    +0.000 A 
ATOM     25  N   UNL     1      49.205   9.809  11.441  0.00  0.00    +0.000 NA
ATOM     26  C   UNL     1      48.314   8.847  11.789  0.00  0.00    +0.000 A 
ENDBRANCH  19  21
ENDBRANCH  14  15
ENDBRANCH   5  14
TORSDOF 4
ENDMDL
MODEL 6
REMARK VINA RESULT:    -6.493      5.927      8.613
REMARK INTER + INTRA:          -8.680
REMARK INTER:                  -8.059
REMARK INTRA:                  -0.621
REMARK UNBOUND:                -0.669
REMARK  Name = 
REMARK  4 active torsions:
REMARK  status: ('A' for Active; 'I' for Inactive)
REMARK    1  A    between atoms: C_2  and  C_4
REMARK    2  A    between atoms: N_8  and  C_9
REMARK    3  A    between atoms: C_9  and  C_10
REMARK    4  A    between atoms: C_14  and  C_15
REMARK                            x       y       z     vdW  Elec       q    Type
REMARK                         _______ _______ _______ _____ _____    ______ ____
ROOT
ATOM      1  C   UNL     1      52.529   2.294  18.014  0.00  0.00    +0.000 A 
ATOM      2  C   UNL     1      51.901   3.518  18.215  0.00  0.00    +0.000 A 
ATOM      3  C   UNL     1      50.569   3.665  17.835  0.00  0.00    +0.000 A 
ATOM      4  C   UNL     1      49.885   2.600  17.259  0.00  0.00    +0.000 A 
ATOM      5  N   UNL     1      48.571   2.644  16.904  0.00  0.00    +0.000 N 
ATOM      6  N   UNL     1      50.498   1.419  17.030  0.00  0.00    +0.000 NA
ATOM      7  C   UNL     1      51.800   1.290  17.400  0.00  0.00    +0.000 A 
ATOM      8  H   UNL     1      48.241   1.794  16.463  0.00  0.00    +0.000 HD
ENDROOT
BRANCH   1  10
ATOM      9  N   UNL     1      54.886   2.171  17.464  0.00  0.00    +0.000 N 
ATOM     10  C   UNL     1      53.922   2.036  18.426  0.00  0.00    +0.000 C 
ATOM     11  O   UNL     1      54.208   1.754  19.580  0.00  0.00    +0.000 OA
ATOM     12  H   UNL     1      55.848   2.096  17.775  0.00  0.00    +0.000 HD
ATOM     13  H   UNL     1      54.718   2.635  16.583  0.00  0.00    +0.000 HD
ENDBRANCH   1  10
BRANCH   5  14
ATOM     14  C   UNL     1      47.655   3.735  17.115  0.00  0.00    +0.000 C 
BRANCH  14  15
ATOM     15  C   UNL     1      47.607   4.639  15.910  0.00  0.00    +0.000 A 
ATOM     16  C   UNL     1      48.356   5.816  15.872  0.00  0.00    +0.000 A 
ATOM     17  C   UNL     1      48.312   6.589  14.726  0.00  0.00    +0.000 A 
ATOM     18  N   UNL     1      47.579   6.276  13.636  0.00  0.00    +0.000 NA
ATOM     19  C   UNL     1      46.822   5.150  13.678  0.00  0.00    +0.000 A 
ATOM     20  C   UNL     1      46.826   4.312  14.795  0.00  0.00    +0.000 A 
BRANCH  19  21
ATOM     21  C   UNL     1      46.024   4.870  12.474  0.00  0.00    +0.000 A 
ATOM     22  C   UNL     1      45.962   5.773  11.403  0.00  0.00    +0.000 A 
ATOM     23  C   UNL     1      45.201   5.482  10.270  0.00  0.00    +0.000 A 
ATOM     24  C   UNL     1      44.511   4.285  10.233  0.00  0.00    +0.000 A 
ATOM     25  N   UNL     1      44.531   3.382  11.235  0.00  0.00    +0.000 NA
ATOM     26  C   UNL     1      45.274   3.702  12.324  0.00  0.00    +0.000 A 
ENDBRANCH  19  21
ENDBRANCH  14  15
ENDBRANCH   5  14
TORSDOF 4
ENDMDL
MODEL 7
REMARK VINA RESULT:    -6.405      3.556      6.009
REMARK INTER + INTRA:          -8.571
REMARK INTER:                  -7.885
REMARK INTRA:                  -0.686
REMARK UNBOUND:                -0.669
REMARK  Name = 
REMARK  4 active torsions:
REMARK  status: ('A' for Active; 'I' for Inactive)
REMARK    1  A    between atoms: C_2  and  C_4
REMARK    2  A    between atoms: N_8  and  C_9
REMARK    3  A    between atoms: C_9  and  C_10
REMARK    4  A    between atoms: C_14  and  C_15
REMARK                            x       y       z     vdW  Elec       q    Type
REMARK                         _______ _______ _______ _____ _____    ______ ____
ROOT
ATOM      1  C   UNL     1      44.187   4.163  11.474  0.00  0.00    +0.000 A 
ATOM      2  C   UNL     1      44.949   4.987  10.653  0.00  0.00    +0.000 A 
ATOM      3  C   UNL     1      45.316   6.249  11.114  0.00  0.00    +0.000 A 
ATOM      4  C   UNL     1      44.918   6.673  12.377  0.00  0.00    +0.000 A 
ATOM      5  N   UNL     1      45.273   7.869  12.923  0.00  0.00    +0.000 N 
ATOM      6  N   UNL     1      44.150   5.892  13.166  0.00  0.00    +0.000 NA
ATOM      7  C   UNL     1      43.794   4.665  12.702  0.00  0.00    +0.000 A 
ATOM      8  H   UNL     1      44.866   8.036  13.835  0.00  0.00    +0.000 HD
ENDROOT
BRANCH   1  10
ATOM      9  N   UNL     1      44.454   2.239  10.024  0.00  0.00    +0.000 N 
ATOM     10  C   UNL     1      43.792   2.796  11.084  0.00  0.00    +0.000 C 
ATOM     11  O   UNL     1      42.940   2.173  11.702  0.00  0.00    +0.000 OA
ATOM     12  H   UNL     1      44.253   1.266   9.826  0.00  0.00    +0.000 HD
ATOM     13  H   UNL     1      45.315   2.619   9.657  0.00  0.00    +0.000 HD
ENDBRANCH   1  10
BRANCH   5  14
ATOM     14  C   UNL     1      46.152   8.855  12.348  0.00  0.00    +0.000 C 
BRANCH  14  15
ATOM     15  C   UNL     1      47.589   8.558  12.688  0.00  0.00    +0.000 A 
ATOM     16  C   UNL     1      48.622   8.973  11.846  0.00  0.00    +0.000 A 
ATOM     17  C   UNL     1      49.927   8.714  12.224  0.00  0.00    +0.000 A 
ATOM     18  N   UNL     1      50.266   8.076  13.365  0.00  0.00    +0.000 NA
ATOM     19  C   UNL     1      49.267   7.641  14.173  0.00  0.00    +0.000 A 
ATOM     20  C   UNL     1      47.926   7.876  13.864  0.00  0.00    +0.000 A 
BRANCH  19  21
ATOM     21  C   UNL     1      49.692   6.929  15.389  0.00  0.00    +0.000 A 
ATOM     22  C   UNL     1      51.027   6.932  15.817  0.00  0.00    +0.000 A 
ATOM     23  C   UNL     1      51.404   6.253  16.977  0.00  0.00    +0.000 A 
ATOM     24  C   UNL     1      50.430   5.579  17.688  0.00  0.00    +0.000 A 
ATOM     25  N   UNL     1      49.132   5.539  17.321  0.00  0.00    +0.000 NA
ATOM     26  C   UNL     1      48.804   6.203  16.185  0.00  0.00    +0.000 A 
ENDBRANCH  19  21
ENDBRANCH  14  15
ENDBRANCH   5  14
TORSDOF 4
ENDMDL
MODEL 8
REMARK VINA RESULT:    -6.263      3.587      6.454
REMARK INTER + INTRA:          -8.396
REMARK INTER:                  -7.709
REMARK INTRA:                  -0.687
REMARK UNBOUND:                -0.669
REMARK  Name = 
REMARK  4 active torsions:
REMARK  status: ('A' for Active; 'I' for Inactive)
REMARK    1  A    between atoms: C_2  and  C_4
REMARK    2  A    between atoms: N_8  and  C_9
REMARK    3  A    between atoms: C_9  and  C_10
REMARK    4  A    between atoms: C_14  and  C_15
REMARK                            x       y       z     vdW  Elec       q    Type
REMARK                         _______ _______ _______ _____ _____    ______ ____
ROOT
ATOM      1  C   UNL     1      44.615   5.020  10.690  0.00  0.00    +0.000 A 
ATOM      2  C   UNL     1      45.755   5.738  10.348  0.00  0.00    +0.000 A 
ATOM      3  C   UNL     1      46.236   6.703  11.229  0.00  0.00    +0.000 A 
ATOM      4  C   UNL     1      45.576   6.944  12.430  0.00  0.00    +0.000 A 
ATOM      5  N   UNL     1      46.005   7.833  13.367  0.00  0.00    +0.000 N 
ATOM      6  N   UNL     1      44.450   6.274  12.753  0.00  0.00    +0.000 NA
ATOM      7  C   UNL     1      43.988   5.338  11.881  0.00  0.00    +0.000 A 
ATOM      8  H   UNL     1      45.387   7.912  14.165  0.00  0.00    +0.000 HD
ENDROOT
BRANCH   1  10
ATOM      9  N   UNL     1      44.031   4.186   8.490  0.00  0.00    +0.000 N 
ATOM     10  C   UNL     1      44.062   3.950   9.837  0.00  0.00    +0.000 C 
ATOM     11  O   UNL     1      43.687   2.885  10.306  0.00  0.00    +0.000 OA
ATOM     12  H   UNL     1      43.748   3.412   7.901  0.00  0.00    +0.000 HD
ATOM     13  H   UNL     1      44.551   4.935   8.054  0.00  0.00    +0.000 HD
ENDBRANCH   1  10
BRANCH   5  14
ATOM     14  C   UNL     1      47.215   8.613  13.329  0.00  0.00    +0.000 C 
BRANCH  14  15
ATOM     15  C   UNL     1      48.300   7.967  14.151  0.00  0.00    +0.000 A 
ATOM     16  C   UNL     1      49.594   8.487  14.160  0.00  0.00    +0.000 A 
ATOM     17  C   UNL     1      50.543   7.883  14.965  0.00  0.00    +0.000 A 
ATOM     18  N   UNL     1      50.293   6.810  15.745  0.00  0.00    +0.000 NA
ATOM     19  C   UNL     1      49.046   6.279  15.718  0.00  0.00    +0.000 A 
ATOM     20  C   UNL     1      48.031   6.841  14.939  0.00  0.00    +0.000 A 
BRANCH  19  21
ATOM     21  C   UNL     1      48.835   5.095  16.567  0.00  0.00    +0.000 A 
ATOM     22  C   UNL     1      47.612   4.410  16.589  0.00  0.00    +0.000 A 
ATOM     23  C   UNL     1      47.439   3.288  17.400  0.00  0.00    +0.000 A 
ATOM     24  C   UNL     1      48.502   2.873  18.180  0.00  0.00    +0.000 A 
ATOM     25  N   UNL     1      49.698   3.496  18.203  0.00  0.00    +0.000 NA
ATOM     26  C   UNL     1      49.827   4.587  17.408  0.00  0.00    +0.000 A 
ENDBRANCH  19  21
ENDBRANCH  14  15
ENDBRANCH   5  14
TORSDOF 4
ENDMDL
MODEL 9
REMARK VINA RESULT:    -6.172      4.855      8.665
REMARK INTER + INTRA:          -8.284
REMARK INTER:                  -7.733
REMARK INTRA:                  -0.550
REMARK UNBOUND:                -0.669
REMARK  Name = 
REMARK  4 active torsions:
REMARK  status: ('A' for Active; 'I' for Inactive)
REMARK    1  A    between atoms: C_2  and  C_4
REMARK    2  A    between atoms: N_8  and  C_9
REMARK    3  A    between atoms: C_9  and  C_10
REMARK    4  A    between atoms: C_14  and  C_15
REMARK                            x       y       z     vdW  Elec       q    Type
REMARK                         _______ _______ _______ _____ _____    ______ ____
ROOT
ATOM      1  C   UNL     1      48.807   5.584  18.673  0.00  0.00    +0.000 A 
ATOM      2  C   UNL     1      48.741   6.909  18.258  0.00  0.00    +0.000 A 
ATOM      3  C   UNL     1      48.648   7.187  16.896  0.00  0.00    +0.000 A 
ATOM      4  C   UNL     1      48.626   6.149  15.971  0.00  0.00    +0.000 A 
ATOM      5  N   UNL     1      48.488   6.331  14.629  0.00  0.00    +0.000 N 
ATOM      6  N   UNL     1      48.724   4.861  16.365  0.00  0.00    +0.000 NA
ATOM      7  C   UNL     1      48.820   4.603  17.696  0.00  0.00    +0.000 A 
ATOM      8  H   UNL     1      48.531   5.471  14.096  0.00  0.00    +0.000 HD
ENDROOT
BRANCH   1  10
ATOM      9  N   UNL     1      48.636   3.880  20.388  0.00  0.00    +0.000 N 
ATOM     10  C   UNL     1      48.863   5.197  20.096  0.00  0.00    +0.000 C 
ATOM     11  O   UNL     1      49.140   6.006  20.971  0.00  0.00    +0.000 OA
ATOM     12  H   UNL     1      48.777   3.600  21.352  0.00  0.00    +0.000 HD
ATOM     13  H   UNL     1      48.652   3.154  19.686  0.00  0.00    +0.000 HD
ENDBRANCH   1  10
BRANCH   5  14
ATOM     14  C   UNL     1      48.275   7.579  13.943  0.00  0.00    +0.000 C 
BRANCH  14  15
ATOM     15  C   UNL     1      47.053   7.510  13.065  0.00  0.00    +0.000 A 
ATOM     16  C   UNL     1      46.164   8.583  12.994  0.00  0.00    +0.000 A 
ATOM     17  C   UNL     1      45.080   8.487  12.140  0.00  0.00    +0.000 A 
ATOM     18  N   UNL     1      44.826   7.409  11.367  0.00  0.00    +0.000 NA
ATOM     19  C   UNL     1      45.668   6.349  11.454  0.00  0.00    +0.000 A 
ATOM     20  C   UNL     1      46.790   6.377  12.285  0.00  0.00    +0.000 A 
BRANCH  19  21
ATOM     21  C   UNL     1      45.329   5.192  10.610  0.00  0.00    +0.000 A 
ATOM     22  C   UNL     1      44.669   4.069  11.127  0.00  0.00    +0.000 A 
ATOM     23  C   UNL     1      44.355   2.986  10.305  0.00  0.00    +0.000 A 
ATOM     24  C   UNL     1      44.714   3.050   8.972  0.00  0.00    +0.000 A 
ATOM     25  N   UNL     1      45.354   4.102   8.421  0.00  0.00    +0.000 NA
ATOM     26  C   UNL     1      45.650   5.132   9.252  0.00  0.00    +0.000 A 
ENDBRANCH  19  21
ENDBRANCH  14  15
ENDBRANCH   5  14
TORSDOF 4
ENDMDL
