MODEL 1
REMARK VINA RESULT:    -7.413      0.000      0.000
REMARK INTER + INTRA:          -9.693
REMARK INTER:                  -9.146
REMARK INTRA:                  -0.547
REMARK UNBOUND:                -0.547
REMARK  Name = 
REMARK  5 active torsions:
REMARK  status: ('A' for Active; 'I' for Inactive)
REMARK    1  A    between atoms: C_1  and  C_2
REMARK    2  A    between atoms: C_2  and  C_3
REMARK    3  A    between atoms: C_2  and  C_14
REMARK    4  A    between atoms: C_3  and  N_4
REMARK    5  A    between atoms: C_8  and  C_9
REMARK                            x       y       z     vdW  Elec       q    Type
REMARK                         _______ _______ _______ _____ _____    ______ ____
ROOT
ATOM      1  N   UNL     1      44.050   2.706  10.419  0.00  0.00    +0.000 N 
ATOM      2  C   UNL     1      44.929   2.638   9.314  0.00  0.00    +0.000 A 
ATOM      3  C   UNL     1      45.445   1.403   8.892  0.00  0.00    +0.000 A 
ATOM      4  N   UNL     1      46.294   1.246   7.837  0.00  0.00    +0.000 NA
ATOM      5  C   UNL     1      46.633   2.409   7.214  0.00  0.00    +0.000 A 
ATOM      6  C   UNL     1      46.149   3.636   7.627  0.00  0.00    +0.000 A 
ATOM      7  N   UNL     1      45.298   3.769   8.675  0.00  0.00    +0.000 NA
ATOM      8  H   UNL     1      43.280   2.067  10.259  0.00  0.00    +0.000 HD
ENDROOT
BRANCH   5   9
ATOM      9  C   UNL     1      47.551   2.351   6.044  0.00  0.00    +0.000 C 
ATOM     10  N   UNL     1      47.357   3.301   5.079  0.00  0.00    +0.000 N 
ATOM     11  O   UNL     1      48.434   1.509   5.946  0.00  0.00    +0.000 OA
ATOM     12  H   UNL     1      46.614   3.983   5.176  0.00  0.00    +0.000 HD
ATOM     13  H   UNL     1      47.949   3.301   4.260  0.00  0.00    +0.000 HD
ENDBRANCH   5   9
BRANCH   1  14
ATOM     14  C   UNL     1      43.595   4.071  10.671  0.00  0.00    +0.000 C 
BRANCH  14  16
ATOM     15  C   UNL     1      42.950   5.152  12.927  0.00  0.00    +0.000 C 
ATOM     16  C   UNL     1      43.995   4.516  12.055  0.00  0.00    +0.000 C 
BRANCH  16  17
ATOM     17  C   UNL     1      45.450   4.962  12.212  0.00  0.00    +0.000 C 
ATOM     18  C   UNL     1      45.904   5.006  13.683  0.00  0.00    +0.000 C 
ATOM     19  C   UNL     1      47.332   5.527  13.837  0.00  0.00    +0.000 C 
ATOM     20  C   UNL     1      47.494   6.890  13.174  0.00  0.00    +0.000 C 
ATOM     21  C   UNL     1      47.126   6.821  11.698  0.00  0.00    +0.000 C 
ATOM     22  C   UNL     1      45.701   6.305  11.499  0.00  0.00    +0.000 C 
ENDBRANCH  16  17
ENDBRANCH  14  16
ENDBRANCH   1  14
TORSDOF 4
ENDMDL
MODEL 2
REMARK VINA RESULT:    -7.277      1.181      1.825
REMARK INTER + INTRA:          -9.526
REMARK INTER:                  -9.131
REMARK INTRA:                  -0.395
REMARK UNBOUND:                -0.547
REMARK  Name = 
REMARK  5 active torsions:
REMARK  status: ('A' for Active; 'I' for Inactive)
REMARK    1  A    between atoms: C_1  and  C_2
REMARK    2  A    between atoms: C_2  and  C_3
REMARK    3  A    between atoms: C_2  and  C_14
REMARK    4  A    between atoms: C_3  and  N_4
REMARK    5  A    between atoms: C_8  and  C_9
REMARK                            x       y       z     vdW  Elec       q    Type
REMARK                         _______ _______ _______ _____ _____    ______ ____
ROOT
ATOM      1  N   UNL     1      44.221   5.096   9.670  0.00  0.00    +0.000 N 
ATOM      2  C   UNL     1      44.944   4.037   9.076  0.00  0.00    +0.000 A 
ATOM      3  C   UNL     1      45.863   4.293   8.047  0.00  0.00    +0.000 A 
ATOM      4  N   UNL     1      46.603   3.334   7.421  0.00  0.00    +0.000 NA
ATOM      5  C   UNL     1      46.367   2.068   7.864  0.00  0.00    +0.000 A 
ATOM      6  C   UNL     1      45.452   1.795   8.864  0.00  0.00    +0.000 A 
ATOM      7  N   UNL     1      44.731   2.765   9.479  0.00  0.00    +0.000 NA
ATOM      8  H   UNL     1      44.880   5.798   9.987  0.00  0.00    +0.000 HD
ENDROOT
BRANCH   5   9
ATOM      9  C   UNL     1      47.127   0.944   7.253  0.00  0.00    +0.000 C 
ATOM     10  N   UNL     1      46.760  -0.314   7.646  0.00  0.00    +0.000 N 
ATOM     11  O   UNL     1      48.025   1.126   6.442  0.00  0.00    +0.000 OA
ATOM     12  H   UNL     1      46.020  -0.441   8.326  0.00  0.00    +0.000 HD
ATOM     13  H   UNL     1      47.250  -1.112   7.266  0.00  0.00    +0.000 HD
ENDBRANCH   5   9
BRANCH   1  14
ATOM     14  C   UNL     1      43.350   4.628  10.745  0.00  0.00    +0.000 C 
BRANCH  14  16
ATOM     15  C   UNL     1      43.032   5.080  13.268  0.00  0.00    +0.000 C 
ATOM     16  C   UNL     1      43.954   4.937  12.091  0.00  0.00    +0.000 C 
BRANCH  16  17
ATOM     17  C   UNL     1      45.241   5.762  12.065  0.00  0.00    +0.000 C 
ATOM     18  C   UNL     1      46.357   5.154  12.936  0.00  0.00    +0.000 C 
ATOM     19  C   UNL     1      47.612   6.025  12.968  0.00  0.00    +0.000 C 
ATOM     20  C   UNL     1      47.284   7.446  13.413  0.00  0.00    +0.000 C 
ATOM     21  C   UNL     1      46.243   8.074  12.497  0.00  0.00    +0.000 C 
ATOM     22  C   UNL     1      44.968   7.234  12.437  0.00  0.00    +0.000 C 
ENDBRANCH  16  17
ENDBRANCH  14  16
ENDBRANCH   1  14
TORSDOF 4
ENDMDL
MODEL 3
REMARK VINA RESULT:    -6.974      3.934      7.030
REMARK INTER + INTRA:          -9.151
REMARK INTER:                  -8.773
REMARK INTRA:                  -0.378
REMARK UNBOUND:                -0.547
REMARK  Name = 
REMARK  5 active torsions:
REMARK  status: ('A' for Active; 'I' for Inactive)
REMARK    1  A    between atoms: C_1  and  C_2
REMARK    2  A    between atoms: C_2  and  C_3
REMARK    3  A    between atoms: C_2  and  C_14
REMARK    4  A    between atoms: C_3  and  N_4
REMARK    5  A    between atoms: C_8  and  C_9
REMARK                            x       y       z     vdW  Elec       q    Type
REMARK                         _______ _______ _______ _____ _____    ______ ____
ROOT
ATOM      1  N   UNL     1      44.909   6.252  10.368  0.00  0.00    +0.000 N 
ATOM      2  C   UNL     1      45.725   6.854  11.351  0.00  0.00    +0.000 A 
ATOM      3  C   UNL     1      45.179   7.766  12.268  0.00  0.00    +0.000 A 
ATOM      4  N   UNL     1      45.891   8.389  13.249  0.00  0.00    +0.000 NA
ATOM      5  C   UNL     1      47.215   8.072  13.266  0.00  0.00    +0.000 A 
ATOM      6  C   UNL     1      47.775   7.191  12.360  0.00  0.00    +0.000 A 
ATOM      7  N   UNL     1      47.046   6.575  11.396  0.00  0.00    +0.000 NA
ATOM      8  H   UNL     1      44.117   5.818  10.827  0.00  0.00    +0.000 HD
ENDROOT
BRANCH   5   9
ATOM      9  C   UNL     1      48.085   8.693  14.302  0.00  0.00    +0.000 C 
ATOM     10  N   UNL     1      47.447   9.184  15.408  0.00  0.00    +0.000 N 
ATOM     11  O   UNL     1      49.301   8.759  14.181  0.00  0.00    +0.000 OA
ATOM     12  H   UNL     1      46.438   9.127  15.483  0.00  0.00    +0.000 HD
ATOM     13  H   UNL     1      47.992   9.623  16.137  0.00  0.00    +0.000 HD
ENDBRANCH   5   9
BRANCH   1  14
ATOM     14  C   UNL     1      45.656   5.307   9.542  0.00  0.00    +0.000 C 
BRANCH  14  16
ATOM     15  C   UNL     1      43.957   3.523  10.316  0.00  0.00    +0.000 C 
ATOM     16  C   UNL     1      44.814   4.098   9.224  0.00  0.00    +0.000 C 
BRANCH  16  17
ATOM     17  C   UNL     1      45.385   3.152   8.167  0.00  0.00    +0.000 C 
ATOM     18  C   UNL     1      45.821   1.797   8.753  0.00  0.00    +0.000 C 
ATOM     19  C   UNL     1      46.463   0.888   7.706  0.00  0.00    +0.000 C 
ATOM     20  C   UNL     1      47.628   1.584   7.013  0.00  0.00    +0.000 C 
ATOM     21  C   UNL     1      47.173   2.883   6.361  0.00  0.00    +0.000 C 
ATOM     22  C   UNL     1      46.526   3.824   7.376  0.00  0.00    +0.000 C 
ENDBRANCH  16  17
ENDBRANCH  14  16
ENDBRANCH   1  14
TORSDOF 4
ENDMDL
MODEL 4
REMARK VINA RESULT:    -6.596      4.437      7.343
REMARK INTER + INTRA:          -8.685
REMARK INTER:                  -8.333
REMARK INTRA:                  -0.352
REMARK UNBOUND:                -0.547
REMARK  Name = 
REMARK  5 active torsions:
REMARK  status: ('A' for Active; 'I' for Inactive)
REMARK    1  A    between atoms: C_1  and  C_2
REMARK    2  A    between atoms: C_2  and  C_3
REMARK    3  A    between atoms: C_2  and  C_14
REMARK    4  A    between atoms: C_3  and  N_4
REMARK    5  A    between atoms: C_8  and  C_9
REMARK                            x       y       z     vdW  Elec       q    Type
REMARK                         _______ _______ _______ _____ _____    ______ ____
ROOT
ATOM      1  N   UNL     1      46.289   5.491  12.551  0.00  0.00    +0.000 N 
ATOM      2  C   UNL     1      46.865   5.244  13.817  0.00  0.00    +0.000 A 
ATOM      3  C   UNL     1      47.870   6.085  14.317  0.00  0.00    +0.000 A 
ATOM      4  N   UNL     1      48.477   5.922  15.527  0.00  0.00    +0.000 NA
ATOM      5  C   UNL     1      48.040   4.841  16.231  0.00  0.00    +0.000 A 
ATOM      6  C   UNL     1      47.063   3.991  15.746  0.00  0.00    +0.000 A 
ATOM      7  N   UNL     1      46.467   4.176  14.543  0.00  0.00    +0.000 NA
ATOM      8  H   UNL     1      45.955   6.448  12.529  0.00  0.00    +0.000 HD
ENDROOT
BRANCH   5   9
ATOM      9  C   UNL     1      48.632   4.573  17.570  0.00  0.00    +0.000 C 
ATOM     10  N   UNL     1      47.756   4.201  18.551  0.00  0.00    +0.000 N 
ATOM     11  O   UNL     1      49.832   4.674  17.786  0.00  0.00    +0.000 OA
ATOM     12  H   UNL     1      46.765   4.133  18.352  0.00  0.00    +0.000 HD
ATOM     13  H   UNL     1      48.106   4.014  19.481  0.00  0.00    +0.000 HD
ENDBRANCH   5   9
BRANCH   1  14
ATOM     14  C   UNL     1      45.236   4.530  12.232  0.00  0.00    +0.000 C 
BRANCH  14  16
ATOM     15  C   UNL     1      43.141   5.708  11.285  0.00  0.00    +0.000 C 
ATOM     16  C   UNL     1      44.439   4.992  11.039  0.00  0.00    +0.000 C 
BRANCH  16  17
ATOM     17  C   UNL     1      44.575   4.136   9.780  0.00  0.00    +0.000 C 
ATOM     18  C   UNL     1      44.758   2.639  10.095  0.00  0.00    +0.000 C 
ATOM     19  C   UNL     1      44.973   1.800   8.836  0.00  0.00    +0.000 C 
ATOM     20  C   UNL     1      46.140   2.333   8.012  0.00  0.00    +0.000 C 
ATOM     21  C   UNL     1      45.913   3.789   7.630  0.00  0.00    +0.000 C 
ATOM     22  C   UNL     1      45.696   4.665   8.863  0.00  0.00    +0.000 C 
ENDBRANCH  16  17
ENDBRANCH  14  16
ENDBRANCH   1  14
TORSDOF 4
ENDMDL
MODEL 5
REMARK VINA RESULT:    -6.583      3.627      6.134
REMARK INTER + INTRA:          -8.669
REMARK INTER:                  -8.131
REMARK INTRA:                  -0.539
REMARK UNBOUND:                -0.547
REMARK  Name = 
REMARK  5 active torsions:
REMARK  status: ('A' for Active; 'I' for Inactive)
REMARK    1  A    between atoms: C_1  and  C_2
REMARK    2  A    between atoms: C_2  and  C_3
REMARK    3  A    between atoms: C_2  and  C_14
REMARK    4  A    between atoms: C_3  and  N_4
REMARK    5  A    between atoms: C_8  and  C_9
REMARK                            x       y       z     vdW  Elec       q    Type
REMARK                         _______ _______ _______ _____ _____    ______ ____
ROOT
ATOM      1  N   UNL     1      44.987   4.708  12.829  0.00  0.00    +0.000 N 
ATOM      2  C   UNL     1      46.193   5.444  12.825  0.00  0.00    +0.000 A 
ATOM      3  C   UNL     1      47.100   5.327  13.890  0.00  0.00    +0.000 A 
ATOM      4  N   UNL     1      48.286   5.995  13.966  0.00  0.00    +0.000 NA
ATOM      5  C   UNL     1      48.528   6.825  12.914  0.00  0.00    +0.000 A 
ATOM      6  C   UNL     1      47.639   6.967  11.865  0.00  0.00    +0.000 A 
ATOM      7  N   UNL     1      46.467   6.286  11.805  0.00  0.00    +0.000 NA
ATOM      8  H   UNL     1      45.206   3.728  12.965  0.00  0.00    +0.000 HD
ENDROOT
BRANCH   5   9
ATOM      9  C   UNL     1      49.799   7.600  12.893  0.00  0.00    +0.000 C 
ATOM     10  N   UNL     1      50.570   7.461  11.772  0.00  0.00    +0.000 N 
ATOM     11  O   UNL     1      50.139   8.324  13.819  0.00  0.00    +0.000 OA
ATOM     12  H   UNL     1      50.273   6.849  11.021  0.00  0.00    +0.000 HD
ATOM     13  H   UNL     1      51.446   7.960  11.711  0.00  0.00    +0.000 HD
ENDBRANCH   5   9
BRANCH   1  14
ATOM     14  C   UNL     1      44.204   4.937  11.617  0.00  0.00    +0.000 C 
BRANCH  14  16
ATOM     15  C   UNL     1      43.331   2.510  11.480  0.00  0.00    +0.000 C 
ATOM     16  C   UNL     1      44.053   3.658  10.834  0.00  0.00    +0.000 C 
BRANCH  16  17
ATOM     17  C   UNL     1      45.176   3.352   9.843  0.00  0.00    +0.000 C 
ATOM     18  C   UNL     1      45.343   4.449   8.775  0.00  0.00    +0.000 C 
ATOM     19  C   UNL     1      46.414   4.099   7.742  0.00  0.00    +0.000 C 
ATOM     20  C   UNL     1      46.135   2.746   7.097  0.00  0.00    +0.000 C 
ATOM     21  C   UNL     1      46.056   1.650   8.151  0.00  0.00    +0.000 C 
ATOM     22  C   UNL     1      44.993   1.960   9.205  0.00  0.00    +0.000 C 
ENDBRANCH  16  17
ENDBRANCH  14  16
ENDBRANCH   1  14
TORSDOF 4
ENDMDL
MODEL 6
REMARK VINA RESULT:    -6.085      4.441      6.429
REMARK INTER + INTRA:          -8.055
REMARK INTER:                  -7.678
REMARK INTRA:                  -0.377
REMARK UNBOUND:                -0.547
REMARK  Name = 
REMARK  5 active torsions:
REMARK  status: ('A' for Active; 'I' for Inactive)
REMARK    1  A    between atoms: C_1  and  C_2
REMARK    2  A    between atoms: C_2  and  C_3
REMARK    3  A    between atoms: C_2  and  C_14
REMARK    4  A    between atoms: C_3  and  N_4
REMARK    5  A    between atoms: C_8  and  C_9
REMARK                            x       y       z     vdW  Elec       q    Type
REMARK                         _______ _______ _______ _____ _____    ______ ____
ROOT
ATOM      1  N   UNL     1      47.338   4.969  15.280  0.00  0.00    +0.000 N 
ATOM      2  C   UNL     1      46.654   4.868  14.048  0.00  0.00    +0.000 A 
ATOM      3  C   UNL     1      46.461   6.004  13.247  0.00  0.00    +0.000 A 
ATOM      4  N   UNL     1      45.816   5.997  12.045  0.00  0.00    +0.000 NA
ATOM      5  C   UNL     1      45.340   4.776  11.674  0.00  0.00    +0.000 A 
ATOM      6  C   UNL     1      45.505   3.649  12.458  0.00  0.00    +0.000 A 
ATOM      7  N   UNL     1      46.157   3.677  13.647  0.00  0.00    +0.000 NA
ATOM      8  H   UNL     1      48.236   5.410  15.115  0.00  0.00    +0.000 HD
ENDROOT
BRANCH   5   9
ATOM      9  C   UNL     1      44.625   4.654  10.374  0.00  0.00    +0.000 C 
ATOM     10  N   UNL     1      45.276   5.152   9.280  0.00  0.00    +0.000 N 
ATOM     11  O   UNL     1      43.520   4.135  10.283  0.00  0.00    +0.000 OA
ATOM     12  H   UNL     1      46.186   5.586   9.381  0.00  0.00    +0.000 HD
ATOM     13  H   UNL     1      44.830   5.100   8.375  0.00  0.00    +0.000 HD
ENDBRANCH   5   9
BRANCH   1  14
ATOM     14  C   UNL     1      47.470   3.672  15.939  0.00  0.00    +0.000 C 
BRANCH  14  16
ATOM     15  C   UNL     1      47.130   5.033  18.108  0.00  0.00    +0.000 C 
ATOM     16  C   UNL     1      47.741   3.851  17.411  0.00  0.00    +0.000 C 
BRANCH  16  17
ATOM     17  C   UNL     1      49.091   3.329  17.904  0.00  0.00    +0.000 C 
ATOM     18  C   UNL     1      50.121   4.453  18.123  0.00  0.00    +0.000 C 
ATOM     19  C   UNL     1      51.490   3.918  18.539  0.00  0.00    +0.000 C 
ATOM     20  C   UNL     1      52.007   2.891  17.537  0.00  0.00    +0.000 C 
ATOM     21  C   UNL     1      51.024   1.738  17.388  0.00  0.00    +0.000 C 
ATOM     22  C   UNL     1      49.639   2.231  16.970  0.00  0.00    +0.000 C 
ENDBRANCH  16  17
ENDBRANCH  14  16
ENDBRANCH   1  14
TORSDOF 4
ENDMDL
MODEL 7
REMARK VINA RESULT:    -5.772      4.118      6.109
REMARK INTER + INTRA:          -7.669
REMARK INTER:                  -7.281
REMARK INTRA:                  -0.388
REMARK UNBOUND:                -0.547
REMARK  Name = 
REMARK  5 active torsions:
REMARK  status: ('A' for Active; 'I' for Inactive)
REMARK    1  A    between atoms: C_1  and  C_2
REMARK    2  A    between atoms: C_2  and  C_3
REMARK    3  A    between atoms: C_2  and  C_14
REMARK    4  A    between atoms: C_3  and  N_4
REMARK    5  A    between atoms: C_8  and  C_9
REMARK                            x       y       z     vdW  Elec       q    Type
REMARK                         _______ _______ _______ _____ _____    ______ ____
ROOT
ATOM      1  N   UNL     1      47.013   5.169  14.973  0.00  0.00    +0.000 N 
ATOM      2  C   UNL     1      46.376   4.813  13.763  0.00  0.00    +0.000 A 
ATOM      3  C   UNL     1      46.149   5.778  12.770  0.00  0.00    +0.000 A 
ATOM      4  N   UNL     1      45.545   5.522  11.574  0.00  0.00    +0.000 NA
ATOM      5  C   UNL     1      45.149   4.229  11.414  0.00  0.00    +0.000 A 
ATOM      6  C   UNL     1      45.348   3.269  12.389  0.00  0.00    +0.000 A 
ATOM      7  N   UNL     1      45.958   3.543  13.568  0.00  0.00    +0.000 NA
ATOM      8  H   UNL     1      47.891   5.626  14.754  0.00  0.00    +0.000 HD
ENDROOT
BRANCH   5   9
ATOM      9  C   UNL     1      44.484   3.838  10.140  0.00  0.00    +0.000 C 
ATOM     10  N   UNL     1      44.586   4.731   9.110  0.00  0.00    +0.000 N 
ATOM     11  O   UNL     1      43.883   2.780  10.014  0.00  0.00    +0.000 OA
ATOM     12  H   UNL     1      45.081   5.606   9.239  0.00  0.00    +0.000 HD
ATOM     13  H   UNL     1      44.146   4.517   8.226  0.00  0.00    +0.000 HD
ENDBRANCH   5   9
BRANCH   1  14
ATOM     14  C   UNL     1      47.193   4.018  15.855  0.00  0.00    +0.000 C 
BRANCH  14  16
ATOM     15  C   UNL     1      49.043   2.992  17.337  0.00  0.00    +0.000 C 
ATOM     16  C   UNL     1      48.398   4.210  16.740  0.00  0.00    +0.000 C 
BRANCH  16  17
ATOM     17  C   UNL     1      48.439   5.521  17.527  0.00  0.00    +0.000 C 
ATOM     18  C   UNL     1      49.848   5.857  18.051  0.00  0.00    +0.000 C 
ATOM     19  C   UNL     1      49.866   7.125  18.903  0.00  0.00    +0.000 C 
ATOM     20  C   UNL     1      48.864   7.033  20.049  0.00  0.00    +0.000 C 
ATOM     21  C   UNL     1      47.458   6.785  19.520  0.00  0.00    +0.000 C 
ATOM     22  C   UNL     1      47.395   5.522  18.662  0.00  0.00    +0.000 C 
ENDBRANCH  16  17
ENDBRANCH  14  16
ENDBRANCH   1  14
TORSDOF 4
ENDMDL
MODEL 8
REMARK VINA RESULT:    -5.515      3.502      5.527
REMARK INTER + INTRA:          -7.352
REMARK INTER:                  -6.886
REMARK INTRA:                  -0.466
REMARK UNBOUND:                -0.547
REMARK  Name = 
REMARK  5 active torsions:
REMARK  status: ('A' for Active; 'I' for Inactive)
REMARK    1  A    between atoms: C_1  and  C_2
REMARK    2  A    between atoms: C_2  and  C_3
REMARK    3  A    between atoms: C_2  and  C_14
REMARK    4  A    between atoms: C_3  and  N_4
REMARK    5  A    between atoms: C_8  and  C_9
REMARK                            x       y       z     vdW  Elec       q    Type
REMARK                         _______ _______ _______ _____ _____    ______ ____
ROOT
ATOM      1  N   UNL     1      46.473   7.252  13.524  0.00  0.00    +0.000 N 
ATOM      2  C   UNL     1      45.836   6.148  12.913  0.00  0.00    +0.000 A 
ATOM      3  C   UNL     1      45.898   4.876  13.502  0.00  0.00    +0.000 A 
ATOM      4  N   UNL     1      45.310   3.760  12.984  0.00  0.00    +0.000 NA
ATOM      5  C   UNL     1      44.655   3.968  11.809  0.00  0.00    +0.000 A 
ATOM      6  C   UNL     1      44.598   5.210  11.204  0.00  0.00    +0.000 A 
ATOM      7  N   UNL     1      45.183   6.310  11.741  0.00  0.00    +0.000 NA
ATOM      8  H   UNL     1      46.153   7.319  14.484  0.00  0.00    +0.000 HD
ENDROOT
BRANCH   5   9
ATOM      9  C   UNL     1      43.972   2.816  11.158  0.00  0.00    +0.000 C 
ATOM     10  N   UNL     1      44.551   2.341  10.014  0.00  0.00    +0.000 N 
ATOM     11  O   UNL     1      42.954   2.316  11.617  0.00  0.00    +0.000 OA
ATOM     12  H   UNL     1      45.389   2.777   9.647  0.00  0.00    +0.000 HD
ATOM     13  H   UNL     1      44.122   1.565   9.530  0.00  0.00    +0.000 HD
ENDBRANCH   5   9
BRANCH   1  14
ATOM     14  C   UNL     1      46.256   8.489  12.779  0.00  0.00    +0.000 C 
BRANCH  14  16
ATOM     15  C   UNL     1      47.428  10.711  12.178  0.00  0.00    +0.000 C 
ATOM     16  C   UNL     1      47.495   9.348  12.805  0.00  0.00    +0.000 C 
BRANCH  16  17
ATOM     17  C   UNL     1      48.825   8.593  12.775  0.00  0.00    +0.000 C 
ATOM     18  C   UNL     1      49.883   9.215  13.706  0.00  0.00    +0.000 C 
ATOM     19  C   UNL     1      51.232   8.504  13.611  0.00  0.00    +0.000 C 
ATOM     20  C   UNL     1      51.730   8.457  12.171  0.00  0.00    +0.000 C 
ATOM     21  C   UNL     1      50.717   7.765  11.270  0.00  0.00    +0.000 C 
ATOM     22  C   UNL     1      49.351   8.448  11.333  0.00  0.00    +0.000 C 
ENDBRANCH  16  17
ENDBRANCH  14  16
ENDBRANCH   1  14
TORSDOF 4
ENDMDL
MODEL 9
REMARK VINA RESULT:    -5.508      4.183      6.571
REMARK INTER + INTRA:          -7.343
REMARK INTER:                  -6.826
REMARK INTRA:                  -0.517
REMARK UNBOUND:                -0.547
REMARK  Name = 
REMARK  5 active torsions:
REMARK  status: ('A' for Active; 'I' for Inactive)
REMARK    1  A    between atoms: C_1  and  C_2
REMARK    2  A    between atoms: C_2  and  C_3
REMARK    3  A    between atoms: C_2  and  C_14
REMARK    4  A    between atoms: C_3  and  N_4
REMARK    5  A    between atoms: C_8  and  C_9
REMARK                            x       y       z     vdW  Elec       q    Type
REMARK                         _______ _______ _______ _____ _____    ______ ____
ROOT
ATOM      1  N   UNL     1      44.841   7.089  12.583  0.00  0.00    +0.000 N 
ATOM      2  C   UNL     1      46.074   7.730  12.326  0.00  0.00    +0.000 A 
ATOM      3  C   UNL     1      46.160   9.131  12.321  0.00  0.00    +0.000 A 
ATOM      4  N   UNL     1      47.307   9.830  12.087  0.00  0.00    +0.000 NA
ATOM      5  C   UNL     1      48.393   9.051  11.830  0.00  0.00    +0.000 A 
ATOM      6  C   UNL     1      48.325   7.670  11.813  0.00  0.00    +0.000 A 
ATOM      7  N   UNL     1      47.175   6.994  12.057  0.00  0.00    +0.000 NA
ATOM      8  H   UNL     1      44.469   7.443  13.457  0.00  0.00    +0.000 HD
ENDROOT
BRANCH   5   9
ATOM      9  C   UNL     1      49.701   9.712  11.566  0.00  0.00    +0.000 C 
ATOM     10  N   UNL     1      50.810   8.923  11.692  0.00  0.00    +0.000 N 
ATOM     11  O   UNL     1      49.785  10.891  11.251  0.00  0.00    +0.000 OA
ATOM     12  H   UNL     1      50.718   7.951  11.963  0.00  0.00    +0.000 HD
ATOM     13  H   UNL     1      51.723   9.325  11.530  0.00  0.00    +0.000 HD
ENDBRANCH   5   9
BRANCH   1  14
ATOM     14  C   UNL     1      44.972   5.635  12.584  0.00  0.00    +0.000 C 
BRANCH  14  16
ATOM     15  C   UNL     1      42.796   4.620  11.630  0.00  0.00    +0.000 C 
ATOM     16  C   UNL     1      44.225   5.034  11.420  0.00  0.00    +0.000 C 
BRANCH  16  17
ATOM     17  C   UNL     1      45.076   4.248  10.422  0.00  0.00    +0.000 C 
ATOM     18  C   UNL     1      45.413   5.059   9.157  0.00  0.00    +0.000 C 
ATOM     19  C   UNL     1      46.195   4.241   8.131  0.00  0.00    +0.000 C 
ATOM     20  C   UNL     1      45.459   2.954   7.776  0.00  0.00    +0.000 C 
ATOM     21  C   UNL     1      45.205   2.115   9.020  0.00  0.00    +0.000 C 
ATOM     22  C   UNL     1      44.421   2.896  10.073  0.00  0.00    +0.000 C 
ENDBRANCH  16  17
ENDBRANCH  14  16
ENDBRANCH   1  14
TORSDOF 4
ENDMDL
