MODEL 1
REMARK VINA RESULT:    -8.836      0.000      0.000
REMARK INTER + INTRA:         -14.343
REMARK INTER:                 -12.969
REMARK INTRA:                  -1.375
REMARK UNBOUND:                -1.375
REMARK  Name = 
REMARK  10 active torsions:
REMARK  status: ('A' for Active; 'I' for Inactive)
REMARK    1  A    between atoms: C_1  and  C_2
REMARK    2  A    between atoms: C_2  and  C_3
REMARK    3  A    between atoms: C_2  and  C_14
REMARK    4  A    between atoms: C_3  and  N_4
REMARK    5  A    between atoms: N_4  and  C_5
REMARK    6  A    between atoms: C_8  and  C_9
REMARK    7  A    between atoms: C_16  and  O_17
REMARK    8  A    between atoms: O_17  and  C_18
REMARK    9  A    between atoms: N_20  and  C_21
REMARK   10  A    between atoms: C_24  and  C_25
REMARK                            x       y       z     vdW  Elec       q    Type
REMARK                         _______ _______ _______ _____ _____    ______ ____
ROOT
ATOM      1  C   UNL     1      43.557   7.150  11.288  0.00  0.00    +0.000 C 
ATOM      2  C   UNL     1      43.711   5.836  12.059  0.00  0.00    +0.000 C 
ENDROOT
BRANCH   2   3
ATOM      3  C   UNL     1      45.130   5.711  12.611  0.00  0.00    +0.000 A 
ATOM      4  C   UNL     1      45.463   4.644  13.462  0.00  0.00    +0.000 A 
ATOM      5  C   UNL     1      46.766   4.499  13.941  0.00  0.00    +0.000 A 
ATOM      6  C   UNL     1      47.757   5.403  13.555  0.00  0.00    +0.000 A 
ATOM      7  C   UNL     1      47.455   6.475  12.706  0.00  0.00    +0.000 A 
ATOM      8  C   UNL     1      46.133   6.633  12.260  0.00  0.00    +0.000 A 
BRANCH   7   9
ATOM      9  C   UNL     1      48.523   7.433  12.245  0.00  0.00    +0.000 C 
ATOM     10  F   UNL     1      48.346   8.710  12.684  0.00  0.00    +0.000 F 
ATOM     11  F   UNL     1      49.765   7.064  12.672  0.00  0.00    +0.000 F 
ATOM     12  F   UNL     1      48.608   7.510  10.888  0.00  0.00    +0.000 F 
ENDBRANCH   7   9
BRANCH   5  13
ATOM     13  O   UNL     1      47.193   3.476  14.752  0.00  0.00    +0.000 OA
BRANCH  13  14
ATOM     14  C   UNL     1      47.921   3.798  15.959  0.00  0.00    +0.000 C 
ATOM     15  C   UNL     1      48.509   2.626  16.776  0.00  0.00    +0.000 C 
ATOM     16  N   UNL     1      47.832   3.108  17.994  0.00  0.00    +0.000 NA
ATOM     17  C   UNL     1      48.772   3.807  18.868  0.00  0.00    +0.000 C 
ATOM     18  C   UNL     1      47.043   4.069  17.202  0.00  0.00    +0.000 C 
ENDBRANCH  13  14
ENDBRANCH   5  13
ENDBRANCH   2   3
BRANCH   2  19
ATOM     19  C   UNL     1      43.344   4.588  11.216  0.00  0.00    +0.000 C 
BRANCH  19  20
ATOM     20  N   UNL     1      43.626   4.781   9.789  0.00  0.00    +0.000 N 
ATOM     21  H   UNL     1      43.809   5.755   9.557  0.00  0.00    +0.000 HD
BRANCH  20  22
ATOM     22  C   UNL     1      44.595   3.954   9.192  0.00  0.00    +0.000 A 
ATOM     23  C   UNL     1      44.588   2.558   9.293  0.00  0.00    +0.000 A 
ATOM     24  C   UNL     1      45.521   1.774   8.606  0.00  0.00    +0.000 A 
ATOM     25  C   UNL     1      46.463   2.370   7.765  0.00  0.00    +0.000 A 
ATOM     26  C   UNL     1      46.476   3.760   7.634  0.00  0.00    +0.000 A 
ATOM     27  C   UNL     1      45.538   4.537   8.329  0.00  0.00    +0.000 A 
BRANCH  25  28
ATOM     28  C   UNL     1      47.412   1.486   7.038  0.00  0.00    +0.000 C 
ATOM     29  N   UNL     1      48.495   2.075   6.445  0.00  0.00    +0.000 N 
ATOM     30  O   UNL     1      47.216   0.283   6.930  0.00  0.00    +0.000 OA
ATOM     31  H   UNL     1      48.556   3.071   6.296  0.00  0.00    +0.000 HD
ATOM     32  H   UNL     1      49.049   1.477   5.846  0.00  0.00    +0.000 HD
ENDBRANCH  25  28
ENDBRANCH  20  22
ENDBRANCH  19  20
ENDBRANCH   2  19
TORSDOF 8
ENDMDL
MODEL 2
REMARK VINA RESULT:    -8.411      1.126      1.406
REMARK INTER + INTRA:         -13.719
REMARK INTER:                 -12.491
REMARK INTRA:                  -1.227
REMARK UNBOUND:                -1.375
REMARK  Name = 
REMARK  10 active torsions:
REMARK  status: ('A' for Active; 'I' for Inactive)
REMARK    1  A    between atoms: C_1  and  C_2
REMARK    2  A    between atoms: C_2  and  C_3
REMARK    3  A    between atoms: C_2  and  C_14
REMARK    4  A    between atoms: C_3  and  N_4
REMARK    5  A    between atoms: N_4  and  C_5
REMARK    6  A    between atoms: C_8  and  C_9
REMARK    7  A    between atoms: C_16  and  O_17
REMARK    8  A    between atoms: O_17  and  C_18
REMARK    9  A    between atoms: N_20  and  C_21
REMARK   10  A    between atoms: C_24  and  C_25
REMARK                            x       y       z     vdW  Elec       q    Type
REMARK                         _______ _______ _______ _____ _____    ______ ____
ROOT
ATOM      1  C   UNL     1      43.499   4.284  13.246  0.00  0.00    +0.000 C 
ATOM      2  C   UNL     1      44.573   4.593  12.198  0.00  0.00    +0.000 C 
ENDROOT
BRANCH   2   3
ATOM      3  C   UNL     1      45.802   5.207  12.867  0.00  0.00    +0.000 A 
ATOM      4  C   UNL     1      46.368   4.592  13.997  0.00  0.00    +0.000 A 
ATOM      5  C   UNL     1      47.513   5.124  14.594  0.00  0.00    +0.000 A 
ATOM      6  C   UNL     1      48.119   6.258  14.054  0.00  0.00    +0.000 A 
ATOM      7  C   UNL     1      47.579   6.890  12.928  0.00  0.00    +0.000 A 
ATOM      8  C   UNL     1      46.405   6.370  12.357  0.00  0.00    +0.000 A 
BRANCH   7   9
ATOM      9  C   UNL     1      48.247   8.091  12.307  0.00  0.00    +0.000 C 
ATOM     10  F   UNL     1      49.186   8.672  13.103  0.00  0.00    +0.000 F 
ATOM     11  F   UNL     1      48.888   7.778  11.144  0.00  0.00    +0.000 F 
ATOM     12  F   UNL     1      47.362   9.075  11.987  0.00  0.00    +0.000 F 
ENDBRANCH   7   9
BRANCH   5  13
ATOM     13  O   UNL     1      48.154   4.580  15.680  0.00  0.00    +0.000 OA
BRANCH  13  14
ATOM     14  C   UNL     1      48.284   5.370  16.884  0.00  0.00    +0.000 C 
ATOM     15  C   UNL     1      49.425   5.008  17.860  0.00  0.00    +0.000 C 
ATOM     16  N   UNL     1      48.465   4.902  18.974  0.00  0.00    +0.000 NA
ATOM     17  C   UNL     1      48.514   6.095  19.817  0.00  0.00    +0.000 C 
ATOM     18  C   UNL     1      47.332   4.974  18.035  0.00  0.00    +0.000 C 
ENDBRANCH  13  14
ENDBRANCH   5  13
ENDBRANCH   2   3
BRANCH   2  19
ATOM     19  C   UNL     1      44.063   5.507  11.055  0.00  0.00    +0.000 C 
BRANCH  19  20
ATOM     20  N   UNL     1      43.636   4.738   9.879  0.00  0.00    +0.000 N 
ATOM     21  H   UNL     1      43.168   5.317   9.186  0.00  0.00    +0.000 HD
BRANCH  20  22
ATOM     22  C   UNL     1      44.586   3.910   9.254  0.00  0.00    +0.000 A 
ATOM     23  C   UNL     1      44.552   2.512   9.316  0.00  0.00    +0.000 A 
ATOM     24  C   UNL     1      45.467   1.730   8.602  0.00  0.00    +0.000 A 
ATOM     25  C   UNL     1      46.416   2.332   7.773  0.00  0.00    +0.000 A 
ATOM     26  C   UNL     1      46.455   3.725   7.681  0.00  0.00    +0.000 A 
ATOM     27  C   UNL     1      45.536   4.499   8.403  0.00  0.00    +0.000 A 
BRANCH  25  28
ATOM     28  C   UNL     1      47.344   1.450   7.016  0.00  0.00    +0.000 C 
ATOM     29  N   UNL     1      48.390   2.046   6.365  0.00  0.00    +0.000 N 
ATOM     30  O   UNL     1      47.162   0.243   6.934  0.00  0.00    +0.000 OA
ATOM     31  H   UNL     1      48.429   3.040   6.200  0.00  0.00    +0.000 HD
ATOM     32  H   UNL     1      48.925   1.447   5.751  0.00  0.00    +0.000 HD
ENDBRANCH  25  28
ENDBRANCH  20  22
ENDBRANCH  19  20
ENDBRANCH   2  19
TORSDOF 8
ENDMDL
MODEL 3
REMARK VINA RESULT:    -7.885      3.297      4.344
REMARK INTER + INTRA:         -12.947
REMARK INTER:                 -11.956
REMARK INTRA:                  -0.991
REMARK UNBOUND:                -1.375
REMARK  Name = 
REMARK  10 active torsions:
REMARK  status: ('A' for Active; 'I' for Inactive)
REMARK    1  A    between atoms: C_1  and  C_2
REMARK    2  A    between atoms: C_2  and  C_3
REMARK    3  A    between atoms: C_2  and  C_14
REMARK    4  A    between atoms: C_3  and  N_4
REMARK    5  A    between atoms: N_4  and  C_5
REMARK    6  A    between atoms: C_8  and  C_9
REMARK    7  A    between atoms: C_16  and  O_17
REMARK    8  A    between atoms: O_17  and  C_18
REMARK    9  A    between atoms: N_20  and  C_21
REMARK   10  A    between atoms: C_24  and  C_25
REMARK                            x       y       z     vdW  Elec       q    Type
REMARK                         _______ _______ _______ _____ _____    ______ ____
ROOT
ATOM      1  C   UNL     1      45.503   4.266  13.100  0.00  0.00    +0.000 C 
ATOM      2  C   UNL     1      45.150   5.080  11.853  0.00  0.00    +0.000 C 
ENDROOT
BRANCH   2   3
ATOM      3  C   UNL     1      45.366   6.569  12.116  0.00  0.00    +0.000 A 
ATOM      4  C   UNL     1      46.427   6.992  12.935  0.00  0.00    +0.000 A 
ATOM      5  C   UNL     1      46.657   8.352  13.153  0.00  0.00    +0.000 A 
ATOM      6  C   UNL     1      45.847   9.304  12.533  0.00  0.00    +0.000 A 
ATOM      7  C   UNL     1      44.785   8.913  11.709  0.00  0.00    +0.000 A 
ATOM      8  C   UNL     1      44.539   7.542  11.528  0.00  0.00    +0.000 A 
BRANCH   7   9
ATOM      9  C   UNL     1      43.929   9.930  10.998  0.00  0.00    +0.000 C 
ATOM     10  F   UNL     1      44.462  10.378   9.828  0.00  0.00    +0.000 F 
ATOM     11  F   UNL     1      42.698   9.435  10.680  0.00  0.00    +0.000 F 
ATOM     12  F   UNL     1      43.697  11.039  11.755  0.00  0.00    +0.000 F 
ENDBRANCH   7   9
BRANCH   5  13
ATOM     13  O   UNL     1      47.681   8.861  13.912  0.00  0.00    +0.000 OA
BRANCH  13  14
ATOM     14  C   UNL     1      48.988   9.014  13.311  0.00  0.00    +0.000 C 
ATOM     15  C   UNL     1      49.075   8.992  11.769  0.00  0.00    +0.000 C 
ATOM     16  N   UNL     1      50.091   7.925  11.821  0.00  0.00    +0.000 NA
ATOM     17  C   UNL     1      51.429   8.471  11.599  0.00  0.00    +0.000 C 
ATOM     18  C   UNL     1      49.841   7.727  13.260  0.00  0.00    +0.000 C 
ENDBRANCH  13  14
ENDBRANCH   5  13
ENDBRANCH   2   3
BRANCH   2  19
ATOM     19  C   UNL     1      43.708   4.822  11.345  0.00  0.00    +0.000 C 
BRANCH  19  20
ATOM     20  N   UNL     1      43.648   4.705   9.882  0.00  0.00    +0.000 N 
ATOM     21  H   UNL     1      43.597   5.611   9.422  0.00  0.00    +0.000 HD
BRANCH  20  22
ATOM     22  C   UNL     1      44.607   3.895   9.248  0.00  0.00    +0.000 A 
ATOM     23  C   UNL     1      44.687   2.509   9.425  0.00  0.00    +0.000 A 
ATOM     24  C   UNL     1      45.601   1.734   8.700  0.00  0.00    +0.000 A 
ATOM     25  C   UNL     1      46.433   2.328   7.748  0.00  0.00    +0.000 A 
ATOM     26  C   UNL     1      46.356   3.707   7.543  0.00  0.00    +0.000 A 
ATOM     27  C   UNL     1      45.439   4.474   8.275  0.00  0.00    +0.000 A 
BRANCH  25  28
ATOM     28  C   UNL     1      47.364   1.453   6.989  0.00  0.00    +0.000 C 
ATOM     29  N   UNL     1      48.503   2.025   6.491  0.00  0.00    +0.000 N 
ATOM     30  O   UNL     1      47.109   0.276   6.773  0.00  0.00    +0.000 OA
ATOM     31  H   UNL     1      48.624   3.024   6.428  0.00  0.00    +0.000 HD
ATOM     32  H   UNL     1      49.050   1.446   5.867  0.00  0.00    +0.000 HD
ENDBRANCH  25  28
ENDBRANCH  20  22
ENDBRANCH  19  20
ENDBRANCH   2  19
TORSDOF 8
ENDMDL
MODEL 4
REMARK VINA RESULT:    -7.555      2.182      2.844
REMARK INTER + INTRA:         -12.463
REMARK INTER:                 -11.406
REMARK INTRA:                  -1.057
REMARK UNBOUND:                -1.375
REMARK  Name = 
REMARK  10 active torsions:
REMARK  status: ('A' for Active; 'I' for Inactive)
REMARK    1  A    between atoms: C_1  and  C_2
REMARK    2  A    between atoms: C_2  and  C_3
REMARK    3  A    between atoms: C_2  and  C_14
REMARK    4  A    between atoms: C_3  and  N_4
REMARK    5  A    between atoms: N_4  and  C_5
REMARK    6  A    between atoms: C_8  and  C_9
REMARK    7  A    between atoms: C_16  and  O_17
REMARK    8  A    between atoms: O_17  and  C_18
REMARK    9  A    between atoms: N_20  and  C_21
REMARK   10  A    between atoms: C_24  and  C_25
REMARK                            x       y       z     vdW  Elec       q    Type
REMARK                         _______ _______ _______ _____ _____    ______ ____
ROOT
ATOM      1  C   UNL     1      45.610   3.704  12.750  0.00  0.00    +0.000 C 
ATOM      2  C   UNL     1      45.591   4.809  11.690  0.00  0.00    +0.000 C 
ENDROOT
BRANCH   2   3
ATOM      3  C   UNL     1      46.406   6.011  12.165  0.00  0.00    +0.000 A 
ATOM      4  C   UNL     1      47.584   5.814  12.905  0.00  0.00    +0.000 A 
ATOM      5  C   UNL     1      48.356   6.903  13.312  0.00  0.00    +0.000 A 
ATOM      6  C   UNL     1      47.974   8.199  12.962  0.00  0.00    +0.000 A 
ATOM      7  C   UNL     1      46.807   8.425  12.223  0.00  0.00    +0.000 A 
ATOM      8  C   UNL     1      46.017   7.325  11.851  0.00  0.00    +0.000 A 
BRANCH   7   9
ATOM      9  C   UNL     1      46.405   9.816  11.800  0.00  0.00    +0.000 C 
ATOM     10  F   UNL     1      45.265   9.859  11.058  0.00  0.00    +0.000 F 
ATOM     11  F   UNL     1      46.184  10.634  12.868  0.00  0.00    +0.000 F 
ATOM     12  F   UNL     1      47.364  10.433  11.054  0.00  0.00    +0.000 F 
ENDBRANCH   7   9
BRANCH   5  13
ATOM     13  O   UNL     1      49.534   6.810  14.011  0.00  0.00    +0.000 OA
BRANCH  13  14
ATOM     14  C   UNL     1      49.540   7.144  15.418  0.00  0.00    +0.000 C 
ATOM     15  C   UNL     1      50.769   6.718  16.251  0.00  0.00    +0.000 C 
ATOM     16  N   UNL     1      49.897   6.033  17.223  0.00  0.00    +0.000 NA
ATOM     17  C   UNL     1      49.726   6.843  18.428  0.00  0.00    +0.000 C 
ATOM     18  C   UNL     1      48.739   6.183  16.325  0.00  0.00    +0.000 C 
ENDBRANCH  13  14
ENDBRANCH   5  13
ENDBRANCH   2   3
BRANCH   2  19
ATOM     19  C   UNL     1      44.158   5.246  11.292  0.00  0.00    +0.000 C 
BRANCH  19  20
ATOM     20  N   UNL     1      43.908   5.086   9.854  0.00  0.00    +0.000 N 
ATOM     21  H   UNL     1      43.942   5.971   9.353  0.00  0.00    +0.000 HD
BRANCH  20  22
ATOM     22  C   UNL     1      44.650   4.112   9.162  0.00  0.00    +0.000 A 
ATOM     23  C   UNL     1      45.723   4.415   8.316  0.00  0.00    +0.000 A 
ATOM     24  C   UNL     1      46.488   3.406   7.721  0.00  0.00    +0.000 A 
ATOM     25  C   UNL     1      46.220   2.062   7.992  0.00  0.00    +0.000 A 
ATOM     26  C   UNL     1      45.166   1.738   8.849  0.00  0.00    +0.000 A 
ATOM     27  C   UNL     1      44.404   2.757   9.438  0.00  0.00    +0.000 A 
BRANCH  25  28
ATOM     28  C   UNL     1      47.083   1.033   7.354  0.00  0.00    +0.000 C 
ATOM     29  N   UNL     1      46.763  -0.280   7.568  0.00  0.00    +0.000 N 
ATOM     30  O   UNL     1      48.071   1.338   6.699  0.00  0.00    +0.000 OA
ATOM     31  H   UNL     1      46.124  -0.570   8.293  0.00  0.00    +0.000 HD
ATOM     32  H   UNL     1      47.438  -0.957   7.239  0.00  0.00    +0.000 HD
ENDBRANCH  25  28
ENDBRANCH  20  22
ENDBRANCH  19  20
ENDBRANCH   2  19
TORSDOF 8
ENDMDL
MODEL 5
REMARK VINA RESULT:    -7.465      2.961      4.413
REMARK INTER + INTRA:         -12.331
REMARK INTER:                 -11.362
REMARK INTRA:                  -0.969
REMARK UNBOUND:                -1.375
REMARK  Name = 
REMARK  10 active torsions:
REMARK  status: ('A' for Active; 'I' for Inactive)
REMARK    1  A    between atoms: C_1  and  C_2
REMARK    2  A    between atoms: C_2  and  C_3
REMARK    3  A    between atoms: C_2  and  C_14
REMARK    4  A    between atoms: C_3  and  N_4
REMARK    5  A    between atoms: N_4  and  C_5
REMARK    6  A    between atoms: C_8  and  C_9
REMARK    7  A    between atoms: C_16  and  O_17
REMARK    8  A    between atoms: O_17  and  C_18
REMARK    9  A    between atoms: N_20  and  C_21
REMARK   10  A    between atoms: C_24  and  C_25
REMARK                            x       y       z     vdW  Elec       q    Type
REMARK                         _______ _______ _______ _____ _____    ______ ____
ROOT
ATOM      1  C   UNL     1      44.603   6.677  11.329  0.00  0.00    +0.000 C 
ATOM      2  C   UNL     1      44.612   5.627  12.444  0.00  0.00    +0.000 C 
ENDROOT
BRANCH   2   3
ATOM      3  C   UNL     1      45.902   5.731  13.256  0.00  0.00    +0.000 A 
ATOM      4  C   UNL     1      46.787   6.801  13.037  0.00  0.00    +0.000 A 
ATOM      5  C   UNL     1      47.950   6.926  13.799  0.00  0.00    +0.000 A 
ATOM      6  C   UNL     1      48.229   6.000  14.804  0.00  0.00    +0.000 A 
ATOM      7  C   UNL     1      47.365   4.925  15.046  0.00  0.00    +0.000 A 
ATOM      8  C   UNL     1      46.217   4.787  14.249  0.00  0.00    +0.000 A 
BRANCH   7   9
ATOM      9  C   UNL     1      47.631   3.942  16.158  0.00  0.00    +0.000 C 
ATOM     10  F   UNL     1      46.613   3.835  17.055  0.00  0.00    +0.000 F 
ATOM     11  F   UNL     1      47.845   2.680  15.687  0.00  0.00    +0.000 F 
ATOM     12  F   UNL     1      48.740   4.259  16.882  0.00  0.00    +0.000 F 
ENDBRANCH   7   9
BRANCH   5  13
ATOM     13  O   UNL     1      48.858   7.949  13.678  0.00  0.00    +0.000 OA
BRANCH  13  14
ATOM     14  C   UNL     1      49.866   7.872  12.644  0.00  0.00    +0.000 C 
ATOM     15  C   UNL     1      51.236   8.526  12.929  0.00  0.00    +0.000 C 
ATOM     16  N   UNL     1      51.142   9.310  11.683  0.00  0.00    +0.000 NA
ATOM     17  C   UNL     1      51.969   8.718  10.634  0.00  0.00    +0.000 C 
ATOM     18  C   UNL     1      49.731   8.921  11.517  0.00  0.00    +0.000 C 
ENDBRANCH  13  14
ENDBRANCH   5  13
ENDBRANCH   2   3
BRANCH   2  19
ATOM     19  C   UNL     1      44.414   4.181  11.922  0.00  0.00    +0.000 C 
BRANCH  19  20
ATOM     20  N   UNL     1      43.991   4.153  10.516  0.00  0.00    +0.000 N 
ATOM     21  H   UNL     1      43.607   5.044  10.208  0.00  0.00    +0.000 HD
BRANCH  20  22
ATOM     22  C   UNL     1      44.904   3.667   9.563  0.00  0.00    +0.000 A 
ATOM     23  C   UNL     1      45.165   2.307   9.367  0.00  0.00    +0.000 A 
ATOM     24  C   UNL     1      46.015   1.869   8.344  0.00  0.00    +0.000 A 
ATOM     25  C   UNL     1      46.595   2.787   7.466  0.00  0.00    +0.000 A 
ATOM     26  C   UNL     1      46.333   4.148   7.632  0.00  0.00    +0.000 A 
ATOM     27  C   UNL     1      45.483   4.576   8.661  0.00  0.00    +0.000 A 
BRANCH  25  28
ATOM     28  C   UNL     1      47.467   2.263   6.381  0.00  0.00    +0.000 C 
ATOM     29  N   UNL     1      47.507   2.967   5.208  0.00  0.00    +0.000 N 
ATOM     30  O   UNL     1      48.093   1.219   6.506  0.00  0.00    +0.000 OA
ATOM     31  H   UNL     1      46.826   3.675   4.978  0.00  0.00    +0.000 HD
ATOM     32  H   UNL     1      47.997   2.521   4.444  0.00  0.00    +0.000 HD
ENDBRANCH  25  28
ENDBRANCH  20  22
ENDBRANCH  19  20
ENDBRANCH   2  19
TORSDOF 8
ENDMDL
MODEL 6
REMARK VINA RESULT:    -6.974      2.983      7.873
REMARK INTER + INTRA:         -11.610
REMARK INTER:                 -10.158
REMARK INTRA:                  -1.453
REMARK UNBOUND:                -1.375
REMARK  Name = 
REMARK  10 active torsions:
REMARK  status: ('A' for Active; 'I' for Inactive)
REMARK    1  A    between atoms: C_1  and  C_2
REMARK    2  A    between atoms: C_2  and  C_3
REMARK    3  A    between atoms: C_2  and  C_14
REMARK    4  A    between atoms: C_3  and  N_4
REMARK    5  A    between atoms: N_4  and  C_5
REMARK    6  A    between atoms: C_8  and  C_9
REMARK    7  A    between atoms: C_16  and  O_17
REMARK    8  A    between atoms: O_17  and  C_18
REMARK    9  A    between atoms: N_20  and  C_21
REMARK   10  A    between atoms: C_24  and  C_25
REMARK                            x       y       z     vdW  Elec       q    Type
REMARK                         _______ _______ _______ _____ _____    ______ ____
ROOT
ATOM      1  C   UNL     1      46.516   8.663  12.824  0.00  0.00    +0.000 C 
ATOM      2  C   UNL     1      47.236   7.684  11.892  0.00  0.00    +0.000 C 
ENDROOT
BRANCH   2   3
ATOM      3  C   UNL     1      46.255   6.638  11.366  0.00  0.00    +0.000 A 
ATOM      4  C   UNL     1      46.316   6.229  10.023  0.00  0.00    +0.000 A 
ATOM      5  C   UNL     1      45.449   5.247   9.540  0.00  0.00    +0.000 A 
ATOM      6  C   UNL     1      44.530   4.644  10.400  0.00  0.00    +0.000 A 
ATOM      7  C   UNL     1      44.449   5.028  11.744  0.00  0.00    +0.000 A 
ATOM      8  C   UNL     1      45.300   6.044  12.209  0.00  0.00    +0.000 A 
BRANCH   7   9
ATOM      9  C   UNL     1      43.492   4.355  12.694  0.00  0.00    +0.000 C 
ATOM     10  F   UNL     1      42.450   5.142  13.079  0.00  0.00    +0.000 F 
ATOM     11  F   UNL     1      42.932   3.235  12.153  0.00  0.00    +0.000 F 
ATOM     12  F   UNL     1      44.099   3.945  13.844  0.00  0.00    +0.000 F 
ENDBRANCH   7   9
BRANCH   5  13
ATOM     13  O   UNL     1      45.451   4.764   8.255  0.00  0.00    +0.000 OA
BRANCH  13  14
ATOM     14  C   UNL     1      46.496   3.847   7.855  0.00  0.00    +0.000 C 
ATOM     15  C   UNL     1      46.623   3.517   6.351  0.00  0.00    +0.000 C 
ATOM     16  N   UNL     1      46.552   2.073   6.642  0.00  0.00    +0.000 NA
ATOM     17  C   UNL     1      47.881   1.467   6.589  0.00  0.00    +0.000 C 
ATOM     18  C   UNL     1      46.159   2.350   8.035  0.00  0.00    +0.000 C 
ENDBRANCH  13  14
ENDBRANCH   5  13
ENDBRANCH   2   3
BRANCH   2  19
ATOM     19  C   UNL     1      48.458   6.998  12.555  0.00  0.00    +0.000 C 
BRANCH  19  20
ATOM     20  N   UNL     1      48.578   7.336  13.979  0.00  0.00    +0.000 N 
ATOM     21  H   UNL     1      48.008   8.139  14.237  0.00  0.00    +0.000 HD
BRANCH  20  22
ATOM     22  C   UNL     1      48.406   6.302  14.917  0.00  0.00    +0.000 A 
ATOM     23  C   UNL     1      48.957   6.327  16.203  0.00  0.00    +0.000 A 
ATOM     24  C   UNL     1      48.682   5.316  17.133  0.00  0.00    +0.000 A 
ATOM     25  C   UNL     1      47.813   4.273  16.805  0.00  0.00    +0.000 A 
ATOM     26  C   UNL     1      47.238   4.239  15.533  0.00  0.00    +0.000 A 
ATOM     27  C   UNL     1      47.522   5.254  14.610  0.00  0.00    +0.000 A 
BRANCH  25  28
ATOM     28  C   UNL     1      47.536   3.242  17.841  0.00  0.00    +0.000 C 
ATOM     29  N   UNL     1      48.372   3.195  18.923  0.00  0.00    +0.000 N 
ATOM     30  O   UNL     1      46.626   2.433  17.717  0.00  0.00    +0.000 OA
ATOM     31  H   UNL     1      49.265   3.664  18.939  0.00  0.00    +0.000 HD
ATOM     32  H   UNL     1      48.247   2.405  19.542  0.00  0.00    +0.000 HD
ENDBRANCH  25  28
ENDBRANCH  20  22
ENDBRANCH  19  20
ENDBRANCH   2  19
TORSDOF 8
ENDMDL
MODEL 7
REMARK VINA RESULT:    -6.632      2.870      7.529
REMARK INTER + INTRA:         -11.108
REMARK INTER:                 -10.067
REMARK INTRA:                  -1.041
REMARK UNBOUND:                -1.375
REMARK  Name = 
REMARK  10 active torsions:
REMARK  status: ('A' for Active; 'I' for Inactive)
REMARK    1  A    between atoms: C_1  and  C_2
REMARK    2  A    between atoms: C_2  and  C_3
REMARK    3  A    between atoms: C_2  and  C_14
REMARK    4  A    between atoms: C_3  and  N_4
REMARK    5  A    between atoms: N_4  and  C_5
REMARK    6  A    between atoms: C_8  and  C_9
REMARK    7  A    between atoms: C_16  and  O_17
REMARK    8  A    between atoms: O_17  and  C_18
REMARK    9  A    between atoms: N_20  and  C_21
REMARK   10  A    between atoms: C_24  and  C_25
REMARK                            x       y       z     vdW  Elec       q    Type
REMARK                         _______ _______ _______ _____ _____    ______ ____
ROOT
ATOM      1  C   UNL     1      49.980   7.860  13.348  0.00  0.00    +0.000 C 
ATOM      2  C   UNL     1      48.998   7.081  14.228  0.00  0.00    +0.000 C 
ENDROOT
BRANCH   2   3
ATOM      3  C   UNL     1      47.629   7.009  13.554  0.00  0.00    +0.000 A 
ATOM      4  C   UNL     1      46.900   5.808  13.569  0.00  0.00    +0.000 A 
ATOM      5  C   UNL     1      45.632   5.741  12.989  0.00  0.00    +0.000 A 
ATOM      6  C   UNL     1      45.067   6.879  12.412  0.00  0.00    +0.000 A 
ATOM      7  C   UNL     1      45.769   8.090  12.385  0.00  0.00    +0.000 A 
ATOM      8  C   UNL     1      47.059   8.137  12.938  0.00  0.00    +0.000 A 
BRANCH   7   9
ATOM      9  C   UNL     1      45.154   9.338  11.805  0.00  0.00    +0.000 C 
ATOM     10  F   UNL     1      44.347   9.109  10.733  0.00  0.00    +0.000 F 
ATOM     11  F   UNL     1      44.384  10.003  12.713  0.00  0.00    +0.000 F 
ATOM     12  F   UNL     1      46.090  10.236  11.387  0.00  0.00    +0.000 F 
ENDBRANCH   7   9
BRANCH   5  13
ATOM     13  O   UNL     1      44.834   4.623  12.979  0.00  0.00    +0.000 OA
BRANCH  13  14
ATOM     14  C   UNL     1      44.978   3.671  11.901  0.00  0.00    +0.000 C 
ATOM     15  C   UNL     1      45.011   4.220  10.457  0.00  0.00    +0.000 C 
ATOM     16  N   UNL     1      43.919   3.310  10.065  0.00  0.00    +0.000 NA
ATOM     17  C   UNL     1      44.441   2.161   9.329  0.00  0.00    +0.000 C 
ATOM     18  C   UNL     1      43.674   2.959  11.475  0.00  0.00    +0.000 C 
ENDBRANCH  13  14
ENDBRANCH   5  13
ENDBRANCH   2   3
BRANCH   2  19
ATOM     19  C   UNL     1      48.870   7.662  15.660  0.00  0.00    +0.000 C 
BRANCH  19  20
ATOM     20  N   UNL     1      48.245   6.712  16.589  0.00  0.00    +0.000 N 
ATOM     21  H   UNL     1      47.296   6.467  16.313  0.00  0.00    +0.000 HD
BRANCH  20  22
ATOM     22  C   UNL     1      48.964   5.552  16.927  0.00  0.00    +0.000 A 
ATOM     23  C   UNL     1      48.416   4.265  16.890  0.00  0.00    +0.000 A 
ATOM     24  C   UNL     1      49.198   3.133  17.148  0.00  0.00    +0.000 A 
ATOM     25  C   UNL     1      50.564   3.262  17.410  0.00  0.00    +0.000 A 
ATOM     26  C   UNL     1      51.135   4.536  17.433  0.00  0.00    +0.000 A 
ATOM     27  C   UNL     1      50.342   5.663  17.176  0.00  0.00    +0.000 A 
BRANCH  25  28
ATOM     28  C   UNL     1      51.351   2.023  17.649  0.00  0.00    +0.000 C 
ATOM     29  N   UNL     1      52.406   2.104  18.516  0.00  0.00    +0.000 N 
ATOM     30  O   UNL     1      51.101   0.979  17.062  0.00  0.00    +0.000 OA
ATOM     31  H   UNL     1      52.793   2.985  18.817  0.00  0.00    +0.000 HD
ATOM     32  H   UNL     1      53.004   1.290  18.558  0.00  0.00    +0.000 HD
ENDBRANCH  25  28
ENDBRANCH  20  22
ENDBRANCH  19  20
ENDBRANCH   2  19
TORSDOF 8
ENDMDL
MODEL 8
REMARK VINA RESULT:    -6.544      3.416      4.158
REMARK INTER + INTRA:         -10.980
REMARK INTER:                 -10.288
REMARK INTRA:                  -0.691
REMARK UNBOUND:                -1.375
REMARK  Name = 
REMARK  10 active torsions:
REMARK  status: ('A' for Active; 'I' for Inactive)
REMARK    1  A    between atoms: C_1  and  C_2
REMARK    2  A    between atoms: C_2  and  C_3
REMARK    3  A    between atoms: C_2  and  C_14
REMARK    4  A    between atoms: C_3  and  N_4
REMARK    5  A    between atoms: N_4  and  C_5
REMARK    6  A    between atoms: C_8  and  C_9
REMARK    7  A    between atoms: C_16  and  O_17
REMARK    8  A    between atoms: O_17  and  C_18
REMARK    9  A    between atoms: N_20  and  C_21
REMARK   10  A    between atoms: C_24  and  C_25
REMARK                            x       y       z     vdW  Elec       q    Type
REMARK                         _______ _______ _______ _____ _____    ______ ____
ROOT
ATOM      1  C   UNL     1      45.811   6.666  11.369  0.00  0.00    +0.000 C 
ATOM      2  C   UNL     1      45.426   5.763  12.545  0.00  0.00    +0.000 C 
ENDROOT
BRANCH   2   3
ATOM      3  C   UNL     1      46.541   5.753  13.590  0.00  0.00    +0.000 A 
ATOM      4  C   UNL     1      47.402   6.857  13.711  0.00  0.00    +0.000 A 
ATOM      5  C   UNL     1      48.400   6.874  14.687  0.00  0.00    +0.000 A 
ATOM      6  C   UNL     1      48.531   5.802  15.570  0.00  0.00    +0.000 A 
ATOM      7  C   UNL     1      47.686   4.690  15.475  0.00  0.00    +0.000 A 
ATOM      8  C   UNL     1      46.710   4.666  14.465  0.00  0.00    +0.000 A 
BRANCH   7   9
ATOM      9  C   UNL     1      47.788   3.544  16.449  0.00  0.00    +0.000 C 
ATOM     10  F   UNL     1      48.711   3.735  17.431  0.00  0.00    +0.000 F 
ATOM     11  F   UNL     1      46.607   3.308  17.090  0.00  0.00    +0.000 F 
ATOM     12  F   UNL     1      48.119   2.370  15.843  0.00  0.00    +0.000 F 
ENDBRANCH   7   9
BRANCH   5  13
ATOM     13  O   UNL     1      49.268   7.916  14.900  0.00  0.00    +0.000 OA
BRANCH  13  14
ATOM     14  C   UNL     1      49.085   8.752  16.066  0.00  0.00    +0.000 C 
ATOM     15  C   UNL     1      49.085  10.283  15.858  0.00  0.00    +0.000 C 
ATOM     16  N   UNL     1      50.136  10.441  16.881  0.00  0.00    +0.000 NA
ATOM     17  C   UNL     1      49.565  10.905  18.144  0.00  0.00    +0.000 C 
ATOM     18  C   UNL     1      50.357   8.985  16.912  0.00  0.00    +0.000 C 
ENDBRANCH  13  14
ENDBRANCH   5  13
ENDBRANCH   2   3
BRANCH   2  19
ATOM     19  C   UNL     1      45.074   4.317  12.112  0.00  0.00    +0.000 C 
BRANCH  19  20
ATOM     20  N   UNL     1      44.448   4.273  10.784  0.00  0.00    +0.000 N 
ATOM     21  H   UNL     1      44.047   5.168  10.514  0.00  0.00    +0.000 HD
BRANCH  20  22
ATOM     22  C   UNL     1      45.198   3.740   9.721  0.00  0.00    +0.000 A 
ATOM     23  C   UNL     1      45.328   2.368   9.477  0.00  0.00    +0.000 A 
ATOM     24  C   UNL     1      46.010   1.890   8.352  0.00  0.00    +0.000 A 
ATOM     25  C   UNL     1      46.547   2.780   7.420  0.00  0.00    +0.000 A 
ATOM     26  C   UNL     1      46.413   4.153   7.634  0.00  0.00    +0.000 A 
ATOM     27  C   UNL     1      45.730   4.622   8.765  0.00  0.00    +0.000 A 
BRANCH  25  28
ATOM     28  C   UNL     1      47.237   2.216   6.230  0.00  0.00    +0.000 C 
ATOM     29  N   UNL     1      47.176   2.933   5.066  0.00  0.00    +0.000 N 
ATOM     30  O   UNL     1      47.802   1.131   6.268  0.00  0.00    +0.000 OA
ATOM     31  H   UNL     1      46.521   3.687   4.929  0.00  0.00    +0.000 HD
ATOM     32  H   UNL     1      47.534   2.467   4.243  0.00  0.00    +0.000 HD
ENDBRANCH  25  28
ENDBRANCH  20  22
ENDBRANCH  19  20
ENDBRANCH   2  19
TORSDOF 8
ENDMDL
MODEL 9
REMARK VINA RESULT:    -6.374      4.281      7.294
REMARK INTER + INTRA:         -10.729
REMARK INTER:                  -8.983
REMARK INTRA:                  -1.746
REMARK UNBOUND:                -1.375
REMARK  Name = 
REMARK  10 active torsions:
REMARK  status: ('A' for Active; 'I' for Inactive)
REMARK    1  A    between atoms: C_1  and  C_2
REMARK    2  A    between atoms: C_2  and  C_3
REMARK    3  A    between atoms: C_2  and  C_14
REMARK    4  A    between atoms: C_3  and  N_4
REMARK    5  A    between atoms: N_4  and  C_5
REMARK    6  A    between atoms: C_8  and  C_9
REMARK    7  A    between atoms: C_16  and  O_17
REMARK    8  A    between atoms: O_17  and  C_18
REMARK    9  A    between atoms: N_20  and  C_21
REMARK   10  A    between atoms: C_24  and  C_25
REMARK                            x       y       z     vdW  Elec       q    Type
REMARK                         _______ _______ _______ _____ _____    ______ ____
ROOT
ATOM      1  C   UNL     1      47.499   8.982  12.075  0.00  0.00    +0.000 C 
ATOM      2  C   UNL     1      47.999   7.551  11.851  0.00  0.00    +0.000 C 
ENDROOT
BRANCH   2   3
ATOM      3  C   UNL     1      46.935   6.546  12.288  0.00  0.00    +0.000 A 
ATOM      4  C   UNL     1      47.170   5.707  13.390  0.00  0.00    +0.000 A 
ATOM      5  C   UNL     1      46.191   4.810  13.821  0.00  0.00    +0.000 A 
ATOM      6  C   UNL     1      44.956   4.762  13.174  0.00  0.00    +0.000 A 
ATOM      7  C   UNL     1      44.692   5.587  12.075  0.00  0.00    +0.000 A 
ATOM      8  C   UNL     1      45.698   6.458  11.625  0.00  0.00    +0.000 A 
BRANCH   7   9
ATOM      9  C   UNL     1      43.347   5.577  11.393  0.00  0.00    +0.000 C 
ATOM     10  F   UNL     1      42.890   6.814  11.056  0.00  0.00    +0.000 F 
ATOM     11  F   UNL     1      43.364   4.859  10.233  0.00  0.00    +0.000 F 
ATOM     12  F   UNL     1      42.375   5.012  12.162  0.00  0.00    +0.000 F 
ENDBRANCH   7   9
BRANCH   5  13
ATOM     13  O   UNL     1      46.318   3.973  14.902  0.00  0.00    +0.000 OA
BRANCH  13  14
ATOM     14  C   UNL     1      47.479   4.102  15.754  0.00  0.00    +0.000 C 
ATOM     15  C   UNL     1      48.166   2.803  16.232  0.00  0.00    +0.000 C 
ATOM     16  N   UNL     1      48.062   3.242  17.636  0.00  0.00    +0.000 NA
ATOM     17  C   UNL     1      49.344   3.752  18.117  0.00  0.00    +0.000 C 
ATOM     18  C   UNL     1      47.171   4.350  17.248  0.00  0.00    +0.000 C 
ENDBRANCH  13  14
ENDBRANCH   5  13
ENDBRANCH   2   3
BRANCH   2  19
ATOM     19  C   UNL     1      49.347   7.259  12.559  0.00  0.00    +0.000 C 
BRANCH  19  20
ATOM     20  N   UNL     1      49.747   8.347  13.459  0.00  0.00    +0.000 N 
ATOM     21  H   UNL     1      49.400   9.253  13.151  0.00  0.00    +0.000 HD
BRANCH  20  22
ATOM     22  C   UNL     1      49.511   8.183  14.835  0.00  0.00    +0.000 A 
ATOM     23  C   UNL     1      48.537   8.897  15.543  0.00  0.00    +0.000 A 
ATOM     24  C   UNL     1      48.278   8.633  16.893  0.00  0.00    +0.000 A 
ATOM     25  C   UNL     1      48.967   7.616  17.559  0.00  0.00    +0.000 A 
ATOM     26  C   UNL     1      49.930   6.880  16.867  0.00  0.00    +0.000 A 
ATOM     27  C   UNL     1      50.183   7.154  15.515  0.00  0.00    +0.000 A 
BRANCH  25  28
ATOM     28  C   UNL     1      48.631   7.361  18.985  0.00  0.00    +0.000 C 
ATOM     29  N   UNL     1      49.658   7.024  19.824  0.00  0.00    +0.000 N 
ATOM     30  O   UNL     1      47.478   7.404  19.392  0.00  0.00    +0.000 OA
ATOM     31  H   UNL     1      50.563   6.735  19.484  0.00  0.00    +0.000 HD
ATOM     32  H   UNL     1      49.388   6.725  20.752  0.00  0.00    +0.000 HD
ENDBRANCH  25  28
ENDBRANCH  20  22
ENDBRANCH  19  20
ENDBRANCH   2  19
TORSDOF 8
ENDMDL
