MODEL 1
REMARK VINA RESULT:    -7.973      0.000      0.000
REMARK INTER + INTRA:         -11.707
REMARK INTER:                 -10.770
REMARK INTRA:                  -0.937
REMARK UNBOUND:                -0.937
REMARK  Name = 
REMARK  6 active torsions:
REMARK  status: ('A' for Active; 'I' for Inactive)
REMARK    1  A    between atoms: C_2  and  C_19
REMARK    2  A    between atoms: N_3  and  C_4
REMARK    3  A    between atoms: C_4  and  C_5
REMARK    4  A    between atoms: C_8  and  C_9
REMARK    5  A    between atoms: C_9  and  O_10
REMARK    6  A    between atoms: O_10  and  C_11
REMARK                            x       y       z     vdW  Elec       q    Type
REMARK                         _______ _______ _______ _____ _____    ______ ____
ROOT
ATOM      1  O   UNL     1      49.390   6.941  13.671  0.00  0.00    +0.000 OA
ATOM      2  C   UNL     1      48.610   7.234  14.566  0.00  0.00    +0.000 C 
ATOM      3  N   UNL     1      47.497   8.032  14.399  0.00  0.00    +0.000 N 
ATOM      4  H   UNL     1      46.851   8.122  15.171  0.00  0.00    +0.000 HD
ENDROOT
BRANCH   2   5
ATOM      5  C   UNL     1      48.613   6.626  15.886  0.00  0.00    +0.000 A 
ATOM      6  C   UNL     1      49.178   7.242  16.989  0.00  0.00    +0.000 A 
ATOM      7  S   UNL     1      49.528   6.113  18.237  0.00  0.00    +0.000 S 
ATOM      8  C   UNL     1      48.819   4.832  17.361  0.00  0.00    +0.000 A 
ATOM      9  N   UNL     1      48.894   3.537  17.764  0.00  0.00    +0.000 NA
ATOM     10  C   UNL     1      48.274   2.702  16.991  0.00  0.00    +0.000 A 
ATOM     11  N   UNL     1      47.540   3.049  15.884  0.00  0.00    +0.000 N 
ATOM     12  C   UNL     1      47.411   4.349  15.457  0.00  0.00    +0.000 A 
ATOM     13  O   UNL     1      46.693   4.655  14.514  0.00  0.00    +0.000 OA
ATOM     14  C   UNL     1      48.206   5.292  16.216  0.00  0.00    +0.000 A 
ATOM     15  H   UNL     1      47.013   2.361  15.368  0.00  0.00    +0.000 HD
ENDBRANCH   2   5
BRANCH   3  16
ATOM     16  C   UNL     1      46.992   8.472  13.126  0.00  0.00    +0.000 C 
BRANCH  16  17
ATOM     17  C   UNL     1      46.251   7.317  12.492  0.00  0.00    +0.000 A 
ATOM     18  C   UNL     1      46.773   6.652  11.375  0.00  0.00    +0.000 A 
ATOM     19  C   UNL     1      46.035   5.651  10.733  0.00  0.00    +0.000 A 
ATOM     20  C   UNL     1      44.750   5.314  11.179  0.00  0.00    +0.000 A 
ATOM     21  C   UNL     1      44.227   5.980  12.295  0.00  0.00    +0.000 A 
ATOM     22  C   UNL     1      44.964   6.978  12.937  0.00  0.00    +0.000 A 
BRANCH  20  23
ATOM     23  C   UNL     1      43.940   4.246  10.480  0.00  0.00    +0.000 C 
BRANCH  23  24
ATOM     24  O   UNL     1      44.044   4.434   9.074  0.00  0.00    +0.000 OA
BRANCH  24  25
ATOM     25  C   UNL     1      44.967   3.572   8.522  0.00  0.00    +0.000 A 
ATOM     26  N   UNL     1      45.732   4.101   7.557  0.00  0.00    +0.000 NA
ATOM     27  C   UNL     1      46.635   3.273   7.000  0.00  0.00    +0.000 A 
ATOM     28  C   UNL     1      46.802   1.961   7.381  0.00  0.00    +0.000 A 
ATOM     29  C   UNL     1      45.976   1.530   8.392  0.00  0.00    +0.000 A 
ATOM     30  N   UNL     1      45.048   2.309   8.978  0.00  0.00    +0.000 NA
ENDBRANCH  24  25
ENDBRANCH  23  24
ENDBRANCH  20  23
ENDBRANCH  16  17
ENDBRANCH   3  16
TORSDOF 6
ENDMDL
MODEL 2
REMARK VINA RESULT:    -7.824      1.484      1.881
REMARK INTER + INTRA:         -11.505
REMARK INTER:                 -10.503
REMARK INTRA:                  -1.002
REMARK UNBOUND:                -0.937
REMARK  Name = 
REMARK  6 active torsions:
REMARK  status: ('A' for Active; 'I' for Inactive)
REMARK    1  A    between atoms: C_2  and  C_19
REMARK    2  A    between atoms: N_3  and  C_4
REMARK    3  A    between atoms: C_4  and  C_5
REMARK    4  A    between atoms: C_8  and  C_9
REMARK    5  A    between atoms: C_9  and  O_10
REMARK    6  A    between atoms: O_10  and  C_11
REMARK                            x       y       z     vdW  Elec       q    Type
REMARK                         _______ _______ _______ _____ _____    ______ ____
ROOT
ATOM      1  O   UNL     1      48.320   8.147  16.584  0.00  0.00    +0.000 OA
ATOM      2  C   UNL     1      48.641   7.024  16.223  0.00  0.00    +0.000 C 
ATOM      3  N   UNL     1      48.368   6.497  14.978  0.00  0.00    +0.000 N 
ATOM      4  H   UNL     1      48.774   5.605  14.733  0.00  0.00    +0.000 HD
ENDROOT
BRANCH   2   5
ATOM      5  C   UNL     1      49.535   6.149  16.965  0.00  0.00    +0.000 A 
ATOM      6  C   UNL     1      50.756   6.577  17.458  0.00  0.00    +0.000 A 
ATOM      7  S   UNL     1      51.807   5.257  17.783  0.00  0.00    +0.000 S 
ATOM      8  C   UNL     1      50.600   4.118  17.384  0.00  0.00    +0.000 A 
ATOM      9  N   UNL     1      50.848   2.786  17.294  0.00  0.00    +0.000 NA
ATOM     10  C   UNL     1      49.808   2.068  17.008  0.00  0.00    +0.000 A 
ATOM     11  N   UNL     1      48.533   2.554  16.860  0.00  0.00    +0.000 N 
ATOM     12  C   UNL     1      48.229   3.889  16.973  0.00  0.00    +0.000 A 
ATOM     13  O   UNL     1      47.078   4.301  16.914  0.00  0.00    +0.000 OA
ATOM     14  C   UNL     1      49.391   4.736  17.153  0.00  0.00    +0.000 A 
ATOM     15  H   UNL     1      47.750   1.934  16.717  0.00  0.00    +0.000 HD
ENDBRANCH   2   5
BRANCH   3  16
ATOM     16  C   UNL     1      47.841   7.252  13.871  0.00  0.00    +0.000 C 
BRANCH  16  17
ATOM     17  C   UNL     1      46.785   6.410  13.192  0.00  0.00    +0.000 A 
ATOM     18  C   UNL     1      46.633   5.052  13.507  0.00  0.00    +0.000 A 
ATOM     19  C   UNL     1      45.723   4.256  12.804  0.00  0.00    +0.000 A 
ATOM     20  C   UNL     1      44.965   4.794  11.755  0.00  0.00    +0.000 A 
ATOM     21  C   UNL     1      45.116   6.150  11.440  0.00  0.00    +0.000 A 
ATOM     22  C   UNL     1      46.025   6.946  12.143  0.00  0.00    +0.000 A 
BRANCH  20  23
ATOM     23  C   UNL     1      43.992   3.935  10.979  0.00  0.00    +0.000 C 
BRANCH  23  24
ATOM     24  O   UNL     1      43.979   4.362   9.623  0.00  0.00    +0.000 OA
BRANCH  24  25
ATOM     25  C   UNL     1      44.908   3.675   8.873  0.00  0.00    +0.000 A 
ATOM     26  N   UNL     1      44.975   2.358   9.118  0.00  0.00    +0.000 NA
ATOM     27  C   UNL     1      45.881   1.671   8.400  0.00  0.00    +0.000 A 
ATOM     28  C   UNL     1      46.698   2.246   7.453  0.00  0.00    +0.000 A 
ATOM     29  C   UNL     1      46.532   3.598   7.272  0.00  0.00    +0.000 A 
ATOM     30  N   UNL     1      45.650   4.339   7.969  0.00  0.00    +0.000 NA
ENDBRANCH  24  25
ENDBRANCH  23  24
ENDBRANCH  20  23
ENDBRANCH  16  17
ENDBRANCH   3  16
TORSDOF 6
ENDMDL
MODEL 3
REMARK VINA RESULT:    -7.619      1.357      1.834
REMARK INTER + INTRA:         -11.228
REMARK INTER:                 -10.297
REMARK INTRA:                  -0.932
REMARK UNBOUND:                -0.937
REMARK  Name = 
REMARK  6 active torsions:
REMARK  status: ('A' for Active; 'I' for Inactive)
REMARK    1  A    between atoms: C_2  and  C_19
REMARK    2  A    between atoms: N_3  and  C_4
REMARK    3  A    between atoms: C_4  and  C_5
REMARK    4  A    between atoms: C_8  and  C_9
REMARK    5  A    between atoms: C_9  and  O_10
REMARK    6  A    between atoms: O_10  and  C_11
REMARK                            x       y       z     vdW  Elec       q    Type
REMARK                         _______ _______ _______ _____ _____    ______ ____
ROOT
ATOM      1  O   UNL     1      50.446   6.901  15.341  0.00  0.00    +0.000 OA
ATOM      2  C   UNL     1      49.265   7.003  15.642  0.00  0.00    +0.000 C 
ATOM      3  N   UNL     1      48.236   7.116  14.731  0.00  0.00    +0.000 N 
ATOM      4  H   UNL     1      47.285   7.079  15.072  0.00  0.00    +0.000 HD
ENDROOT
BRANCH   2   5
ATOM      5  C   UNL     1      48.742   6.813  16.985  0.00  0.00    +0.000 A 
ATOM      6  C   UNL     1      48.572   7.860  17.874  0.00  0.00    +0.000 A 
ATOM      7  S   UNL     1      48.480   7.306  19.498  0.00  0.00    +0.000 S 
ATOM      8  C   UNL     1      48.546   5.672  19.009  0.00  0.00    +0.000 A 
ATOM      9  N   UNL     1      48.661   4.645  19.890  0.00  0.00    +0.000 NA
ATOM     10  C   UNL     1      48.666   3.471  19.344  0.00  0.00    +0.000 A 
ATOM     11  N   UNL     1      48.511   3.227  18.002  0.00  0.00    +0.000 N 
ATOM     12  C   UNL     1      48.360   4.232  17.076  0.00  0.00    +0.000 A 
ATOM     13  O   UNL     1      48.147   4.000  15.894  0.00  0.00    +0.000 OA
ATOM     14  C   UNL     1      48.490   5.561  17.637  0.00  0.00    +0.000 A 
ATOM     15  H   UNL     1      48.444   2.286  17.645  0.00  0.00    +0.000 HD
ENDBRANCH   2   5
BRANCH   3  16
ATOM     16  C   UNL     1      48.381   6.940  13.310  0.00  0.00    +0.000 C 
BRANCH  16  17
ATOM     17  C   UNL     1      47.103   6.331  12.781  0.00  0.00    +0.000 A 
ATOM     18  C   UNL     1      46.678   5.065  13.207  0.00  0.00    +0.000 A 
ATOM     19  C   UNL     1      45.549   4.464  12.640  0.00  0.00    +0.000 A 
ATOM     20  C   UNL     1      44.838   5.105  11.617  0.00  0.00    +0.000 A 
ATOM     21  C   UNL     1      45.262   6.370  11.189  0.00  0.00    +0.000 A 
ATOM     22  C   UNL     1      46.389   6.970  11.757  0.00  0.00    +0.000 A 
BRANCH  20  23
ATOM     23  C   UNL     1      43.627   4.454  10.986  0.00  0.00    +0.000 C 
BRANCH  23  24
ATOM     24  O   UNL     1      43.664   4.674   9.582  0.00  0.00    +0.000 OA
BRANCH  24  25
ATOM     25  C   UNL     1      44.570   3.836   8.968  0.00  0.00    +0.000 A 
ATOM     26  N   UNL     1      44.495   2.550   9.337  0.00  0.00    +0.000 NA
ATOM     27  C   UNL     1      45.376   1.718   8.754  0.00  0.00    +0.000 A 
ATOM     28  C   UNL     1      46.303   2.121   7.821  0.00  0.00    +0.000 A 
ATOM     29  C   UNL     1      46.279   3.459   7.505  0.00  0.00    +0.000 A 
ATOM     30  N   UNL     1      45.429   4.340   8.063  0.00  0.00    +0.000 NA
ENDBRANCH  24  25
ENDBRANCH  23  24
ENDBRANCH  20  23
ENDBRANCH  16  17
ENDBRANCH   3  16
TORSDOF 6
ENDMDL
MODEL 4
REMARK VINA RESULT:    -7.344      2.855      8.028
REMARK INTER + INTRA:         -10.856
REMARK INTER:                  -9.933
REMARK INTRA:                  -0.923
REMARK UNBOUND:                -0.937
REMARK  Name = 
REMARK  6 active torsions:
REMARK  status: ('A' for Active; 'I' for Inactive)
REMARK    1  A    between atoms: C_2  and  C_19
REMARK    2  A    between atoms: N_3  and  C_4
REMARK    3  A    between atoms: C_4  and  C_5
REMARK    4  A    between atoms: C_8  and  C_9
REMARK    5  A    between atoms: C_9  and  O_10
REMARK    6  A    between atoms: O_10  and  C_11
REMARK                            x       y       z     vdW  Elec       q    Type
REMARK                         _______ _______ _______ _____ _____    ______ ____
ROOT
ATOM      1  O   UNL     1      44.831   7.380  11.417  0.00  0.00    +0.000 OA
ATOM      2  C   UNL     1      45.312   6.255  11.395  0.00  0.00    +0.000 C 
ATOM      3  N   UNL     1      46.558   5.931  11.888  0.00  0.00    +0.000 N 
ATOM      4  H   UNL     1      46.819   4.956  11.930  0.00  0.00    +0.000 HD
ENDROOT
BRANCH   2   5
ATOM      5  C   UNL     1      44.571   5.055  11.041  0.00  0.00    +0.000 A 
ATOM      6  C   UNL     1      43.573   4.531  11.844  0.00  0.00    +0.000 A 
ATOM      7  S   UNL     1      43.270   2.879  11.484  0.00  0.00    +0.000 S 
ATOM      8  C   UNL     1      44.377   2.895  10.185  0.00  0.00    +0.000 A 
ATOM      9  N   UNL     1      44.738   1.772   9.513  0.00  0.00    +0.000 NA
ATOM     10  C   UNL     1      45.566   1.976   8.538  0.00  0.00    +0.000 A 
ATOM     11  N   UNL     1      46.023   3.207   8.139  0.00  0.00    +0.000 N 
ATOM     12  C   UNL     1      45.662   4.374   8.769  0.00  0.00    +0.000 A 
ATOM     13  O   UNL     1      46.015   5.472   8.358  0.00  0.00    +0.000 OA
ATOM     14  C   UNL     1      44.848   4.168   9.949  0.00  0.00    +0.000 A 
ATOM     15  H   UNL     1      46.605   3.310   7.322  0.00  0.00    +0.000 HD
ENDBRANCH   2   5
BRANCH   3  16
ATOM     16  C   UNL     1      47.385   6.818  12.663  0.00  0.00    +0.000 C 
BRANCH  16  17
ATOM     17  C   UNL     1      47.733   6.120  13.958  0.00  0.00    +0.000 A 
ATOM     18  C   UNL     1      47.105   4.921  14.323  0.00  0.00    +0.000 A 
ATOM     19  C   UNL     1      47.358   4.335  15.567  0.00  0.00    +0.000 A 
ATOM     20  C   UNL     1      48.223   4.948  16.483  0.00  0.00    +0.000 A 
ATOM     21  C   UNL     1      48.849   6.147  16.121  0.00  0.00    +0.000 A 
ATOM     22  C   UNL     1      48.598   6.733  14.877  0.00  0.00    +0.000 A 
BRANCH  20  23
ATOM     23  C   UNL     1      48.487   4.329  17.837  0.00  0.00    +0.000 C 
BRANCH  23  24
ATOM     24  O   UNL     1      48.786   2.950  17.664  0.00  0.00    +0.000 OA
BRANCH  24  25
ATOM     25  C   UNL     1      50.143   2.720  17.741  0.00  0.00    +0.000 A 
ATOM     26  N   UNL     1      50.540   1.514  17.310  0.00  0.00    +0.000 NA
ATOM     27  C   UNL     1      51.860   1.268  17.383  0.00  0.00    +0.000 A 
ATOM     28  C   UNL     1      52.780   2.176  17.853  0.00  0.00    +0.000 A 
ATOM     29  C   UNL     1      52.264   3.386  18.252  0.00  0.00    +0.000 A 
ATOM     30  N   UNL     1      50.952   3.685  18.212  0.00  0.00    +0.000 NA
ENDBRANCH  24  25
ENDBRANCH  23  24
ENDBRANCH  20  23
ENDBRANCH  16  17
ENDBRANCH   3  16
TORSDOF 6
ENDMDL
MODEL 5
REMARK VINA RESULT:    -6.963      1.626      2.310
REMARK INTER + INTRA:         -10.342
REMARK INTER:                  -9.759
REMARK INTRA:                  -0.583
REMARK UNBOUND:                -0.937
REMARK  Name = 
REMARK  6 active torsions:
REMARK  status: ('A' for Active; 'I' for Inactive)
REMARK    1  A    between atoms: C_2  and  C_19
REMARK    2  A    between atoms: N_3  and  C_4
REMARK    3  A    between atoms: C_4  and  C_5
REMARK    4  A    between atoms: C_8  and  C_9
REMARK    5  A    between atoms: C_9  and  O_10
REMARK    6  A    between atoms: O_10  and  C_11
REMARK                            x       y       z     vdW  Elec       q    Type
REMARK                         _______ _______ _______ _____ _____    ______ ____
ROOT
ATOM      1  O   UNL     1      49.612   6.816  14.279  0.00  0.00    +0.000 OA
ATOM      2  C   UNL     1      48.573   6.614  14.893  0.00  0.00    +0.000 C 
ATOM      3  N   UNL     1      47.340   7.104  14.519  0.00  0.00    +0.000 N 
ATOM      4  H   UNL     1      46.524   6.788  15.024  0.00  0.00    +0.000 HD
ENDROOT
BRANCH   2   5
ATOM      5  C   UNL     1      48.438   5.662  15.983  0.00  0.00    +0.000 A 
ATOM      6  C   UNL     1      47.700   4.497  15.868  0.00  0.00    +0.000 A 
ATOM      7  S   UNL     1      47.262   3.868  17.406  0.00  0.00    +0.000 S 
ATOM      8  C   UNL     1      48.153   5.074  18.221  0.00  0.00    +0.000 A 
ATOM      9  N   UNL     1      48.106   5.238  19.569  0.00  0.00    +0.000 NA
ATOM     10  C   UNL     1      48.868   6.184  20.018  0.00  0.00    +0.000 A 
ATOM     11  N   UNL     1      49.716   6.943  19.250  0.00  0.00    +0.000 N 
ATOM     12  C   UNL     1      49.820   6.792  17.888  0.00  0.00    +0.000 A 
ATOM     13  O   UNL     1      50.633   7.421  17.224  0.00  0.00    +0.000 OA
ATOM     14  C   UNL     1      48.879   5.839  17.336  0.00  0.00    +0.000 A 
ATOM     15  H   UNL     1      50.345   7.612  19.668  0.00  0.00    +0.000 HD
ENDBRANCH   2   5
BRANCH   3  16
ATOM     16  C   UNL     1      47.067   7.757  13.266  0.00  0.00    +0.000 C 
BRANCH  16  17
ATOM     17  C   UNL     1      46.367   6.765  12.365  0.00  0.00    +0.000 A 
ATOM     18  C   UNL     1      46.747   6.616  11.024  0.00  0.00    +0.000 A 
ATOM     19  C   UNL     1      46.030   5.770  10.171  0.00  0.00    +0.000 A 
ATOM     20  C   UNL     1      44.903   5.078  10.634  0.00  0.00    +0.000 A 
ATOM     21  C   UNL     1      44.522   5.228  11.973  0.00  0.00    +0.000 A 
ATOM     22  C   UNL     1      45.238   6.071  12.826  0.00  0.00    +0.000 A 
BRANCH  20  23
ATOM     23  C   UNL     1      44.113   4.176   9.712  0.00  0.00    +0.000 C 
BRANCH  23  24
ATOM     24  O   UNL     1      44.654   2.863   9.775  0.00  0.00    +0.000 OA
BRANCH  24  25
ATOM     25  C   UNL     1      45.439   2.592   8.676  0.00  0.00    +0.000 A 
ATOM     26  N   UNL     1      45.482   3.564   7.754  0.00  0.00    +0.000 NA
ATOM     27  C   UNL     1      46.238   3.316   6.670  0.00  0.00    +0.000 A 
ATOM     28  C   UNL     1      46.950   2.153   6.488  0.00  0.00    +0.000 A 
ATOM     29  C   UNL     1      46.847   1.232   7.504  0.00  0.00    +0.000 A 
ATOM     30  N   UNL     1      46.098   1.421   8.606  0.00  0.00    +0.000 NA
ENDBRANCH  24  25
ENDBRANCH  23  24
ENDBRANCH  20  23
ENDBRANCH  16  17
ENDBRANCH   3  16
TORSDOF 6
ENDMDL
MODEL 6
REMARK VINA RESULT:    -6.833      2.578      3.926
REMARK INTER + INTRA:         -10.166
REMARK INTER:                  -9.336
REMARK INTRA:                  -0.831
REMARK UNBOUND:                -0.937
REMARK  Name = 
REMARK  6 active torsions:
REMARK  status: ('A' for Active; 'I' for Inactive)
REMARK    1  A    between atoms: C_2  and  C_19
REMARK    2  A    between atoms: N_3  and  C_4
REMARK    3  A    between atoms: C_4  and  C_5
REMARK    4  A    between atoms: C_8  and  C_9
REMARK    5  A    between atoms: C_9  and  O_10
REMARK    6  A    between atoms: O_10  and  C_11
REMARK                            x       y       z     vdW  Elec       q    Type
REMARK                         _______ _______ _______ _____ _____    ______ ____
ROOT
ATOM      1  O   UNL     1      49.416   6.691  13.179  0.00  0.00    +0.000 OA
ATOM      2  C   UNL     1      48.526   7.401  13.627  0.00  0.00    +0.000 C 
ATOM      3  N   UNL     1      47.321   6.931  14.105  0.00  0.00    +0.000 N 
ATOM      4  H   UNL     1      46.698   7.583  14.560  0.00  0.00    +0.000 HD
ENDROOT
BRANCH   2   5
ATOM      5  C   UNL     1      48.677   8.817  13.919  0.00  0.00    +0.000 A 
ATOM      6  C   UNL     1      48.541   9.796  12.951  0.00  0.00    +0.000 A 
ATOM      7  S   UNL     1      49.292  11.267  13.424  0.00  0.00    +0.000 S 
ATOM      8  C   UNL     1      49.691  10.640  14.960  0.00  0.00    +0.000 A 
ATOM      9  N   UNL     1      50.480  11.306  15.843  0.00  0.00    +0.000 NA
ATOM     10  C   UNL     1      50.654  10.692  16.970  0.00  0.00    +0.000 A 
ATOM     11  N   UNL     1      50.067   9.500  17.317  0.00  0.00    +0.000 N 
ATOM     12  C   UNL     1      49.238   8.806  16.468  0.00  0.00    +0.000 A 
ATOM     13  O   UNL     1      48.660   7.785  16.815  0.00  0.00    +0.000 OA
ATOM     14  C   UNL     1      49.134   9.395  15.149  0.00  0.00    +0.000 A 
ATOM     15  H   UNL     1      50.178   9.111  18.241  0.00  0.00    +0.000 HD
ENDBRANCH   2   5
BRANCH   3  16
ATOM     16  C   UNL     1      47.014   5.542  14.320  0.00  0.00    +0.000 C 
BRANCH  16  17
ATOM     17  C   UNL     1      46.357   5.008  13.068  0.00  0.00    +0.000 A 
ATOM     18  C   UNL     1      45.990   5.869  12.024  0.00  0.00    +0.000 A 
ATOM     19  C   UNL     1      45.292   5.383  10.913  0.00  0.00    +0.000 A 
ATOM     20  C   UNL     1      44.924   4.034  10.835  0.00  0.00    +0.000 A 
ATOM     21  C   UNL     1      45.289   3.173  11.878  0.00  0.00    +0.000 A 
ATOM     22  C   UNL     1      45.987   3.658  12.987  0.00  0.00    +0.000 A 
BRANCH  20  23
ATOM     23  C   UNL     1      44.154   3.506   9.646  0.00  0.00    +0.000 C 
BRANCH  23  24
ATOM     24  O   UNL     1      44.593   2.184   9.361  0.00  0.00    +0.000 OA
BRANCH  24  25
ATOM     25  C   UNL     1      45.561   2.179   8.380  0.00  0.00    +0.000 A 
ATOM     26  N   UNL     1      45.665   3.316   7.678  0.00  0.00    +0.000 NA
ATOM     27  C   UNL     1      46.600   3.329   6.711  0.00  0.00    +0.000 A 
ATOM     28  C   UNL     1      47.427   2.264   6.438  0.00  0.00    +0.000 A 
ATOM     29  C   UNL     1      47.245   1.156   7.230  0.00  0.00    +0.000 A 
ATOM     30  N   UNL     1      46.319   1.082   8.205  0.00  0.00    +0.000 NA
ENDBRANCH  24  25
ENDBRANCH  23  24
ENDBRANCH  20  23
ENDBRANCH  16  17
ENDBRANCH   3  16
TORSDOF 6
ENDMDL
MODEL 7
REMARK VINA RESULT:    -6.730      3.040      7.571
REMARK INTER + INTRA:         -10.028
REMARK INTER:                  -8.927
REMARK INTRA:                  -1.101
REMARK UNBOUND:                -0.937
REMARK  Name = 
REMARK  6 active torsions:
REMARK  status: ('A' for Active; 'I' for Inactive)
REMARK    1  A    between atoms: C_2  and  C_19
REMARK    2  A    between atoms: N_3  and  C_4
REMARK    3  A    between atoms: C_4  and  C_5
REMARK    4  A    between atoms: C_8  and  C_9
REMARK    5  A    between atoms: C_9  and  O_10
REMARK    6  A    between atoms: O_10  and  C_11
REMARK                            x       y       z     vdW  Elec       q    Type
REMARK                         _______ _______ _______ _____ _____    ______ ____
ROOT
ATOM      1  O   UNL     1      44.535   7.923  11.161  0.00  0.00    +0.000 OA
ATOM      2  C   UNL     1      45.493   7.163  11.148  0.00  0.00    +0.000 C 
ATOM      3  N   UNL     1      46.696   7.416  11.772  0.00  0.00    +0.000 N 
ATOM      4  H   UNL     1      47.386   6.679  11.803  0.00  0.00    +0.000 HD
ENDROOT
BRANCH   2   5
ATOM      5  C   UNL     1      45.448   5.796  10.656  0.00  0.00    +0.000 A 
ATOM      6  C   UNL     1      45.789   5.459   9.358  0.00  0.00    +0.000 A 
ATOM      7  S   UNL     1      45.135   3.937   8.903  0.00  0.00    +0.000 S 
ATOM      8  C   UNL     1      44.502   3.673  10.466  0.00  0.00    +0.000 A 
ATOM      9  N   UNL     1      43.685   2.629  10.761  0.00  0.00    +0.000 NA
ATOM     10  C   UNL     1      43.324   2.570  12.003  0.00  0.00    +0.000 A 
ATOM     11  N   UNL     1      43.748   3.426  12.989  0.00  0.00    +0.000 N 
ATOM     12  C   UNL     1      44.598   4.478  12.743  0.00  0.00    +0.000 A 
ATOM     13  O   UNL     1      45.030   5.189  13.641  0.00  0.00    +0.000 OA
ATOM     14  C   UNL     1      44.911   4.656  11.340  0.00  0.00    +0.000 A 
ATOM     15  H   UNL     1      43.494   3.281  13.954  0.00  0.00    +0.000 HD
ENDBRANCH   2   5
BRANCH   3  16
ATOM     16  C   UNL     1      46.931   8.510  12.678  0.00  0.00    +0.000 C 
BRANCH  16  17
ATOM     17  C   UNL     1      47.603   7.957  13.914  0.00  0.00    +0.000 A 
ATOM     18  C   UNL     1      48.021   8.805  14.948  0.00  0.00    +0.000 A 
ATOM     19  C   UNL     1      48.731   8.299  16.042  0.00  0.00    +0.000 A 
ATOM     20  C   UNL     1      49.061   6.939  16.111  0.00  0.00    +0.000 A 
ATOM     21  C   UNL     1      48.645   6.090  15.077  0.00  0.00    +0.000 A 
ATOM     22  C   UNL     1      47.935   6.596  13.985  0.00  0.00    +0.000 A 
BRANCH  20  23
ATOM     23  C   UNL     1      49.844   6.387  17.281  0.00  0.00    +0.000 C 
BRANCH  23  24
ATOM     24  O   UNL     1      49.213   5.199  17.740  0.00  0.00    +0.000 OA
BRANCH  24  25
ATOM     25  C   UNL     1      50.061   4.116  17.652  0.00  0.00    +0.000 A 
ATOM     26  N   UNL     1      49.514   3.005  17.140  0.00  0.00    +0.000 NA
ATOM     27  C   UNL     1      50.324   1.935  17.052  0.00  0.00    +0.000 A 
ATOM     28  C   UNL     1      51.644   1.946  17.440  0.00  0.00    +0.000 A 
ATOM     29  C   UNL     1      52.105   3.143  17.933  0.00  0.00    +0.000 A 
ATOM     30  N   UNL     1      51.339   4.242  18.055  0.00  0.00    +0.000 NA
ENDBRANCH  24  25
ENDBRANCH  23  24
ENDBRANCH  20  23
ENDBRANCH  16  17
ENDBRANCH   3  16
TORSDOF 6
ENDMDL
MODEL 8
REMARK VINA RESULT:    -6.643      2.165      3.051
REMARK INTER + INTRA:          -9.910
REMARK INTER:                  -9.525
REMARK INTRA:                  -0.385
REMARK UNBOUND:                -0.937
REMARK  Name = 
REMARK  6 active torsions:
REMARK  status: ('A' for Active; 'I' for Inactive)
REMARK    1  A    between atoms: C_2  and  C_19
REMARK    2  A    between atoms: N_3  and  C_4
REMARK    3  A    between atoms: C_4  and  C_5
REMARK    4  A    between atoms: C_8  and  C_9
REMARK    5  A    between atoms: C_9  and  O_10
REMARK    6  A    between atoms: O_10  and  C_11
REMARK                            x       y       z     vdW  Elec       q    Type
REMARK                         _______ _______ _______ _____ _____    ______ ____
ROOT
ATOM      1  O   UNL     1      48.350   4.128  16.075  0.00  0.00    +0.000 OA
ATOM      2  C   UNL     1      48.097   5.196  15.536  0.00  0.00    +0.000 C 
ATOM      3  N   UNL     1      47.013   5.415  14.711  0.00  0.00    +0.000 N 
ATOM      4  H   UNL     1      46.824   6.360  14.407  0.00  0.00    +0.000 HD
ENDROOT
BRANCH   2   5
ATOM      5  C   UNL     1      48.770   6.447  15.842  0.00  0.00    +0.000 A 
ATOM      6  C   UNL     1      49.406   7.207  14.876  0.00  0.00    +0.000 A 
ATOM      7  S   UNL     1      50.547   8.289  15.569  0.00  0.00    +0.000 S 
ATOM      8  C   UNL     1      50.109   7.834  17.154  0.00  0.00    +0.000 A 
ATOM      9  N   UNL     1      50.787   8.255  18.253  0.00  0.00    +0.000 NA
ATOM     10  C   UNL     1      50.297   7.834  19.375  0.00  0.00    +0.000 A 
ATOM     11  N   UNL     1      49.158   7.077  19.503  0.00  0.00    +0.000 N 
ATOM     12  C   UNL     1      48.423   6.653  18.421  0.00  0.00    +0.000 A 
ATOM     13  O   UNL     1      47.369   6.044  18.550  0.00  0.00    +0.000 OA
ATOM     14  C   UNL     1      49.021   6.989  17.146  0.00  0.00    +0.000 A 
ATOM     15  H   UNL     1      48.781   6.846  20.409  0.00  0.00    +0.000 HD
ENDBRANCH   2   5
BRANCH   3  16
ATOM     16  C   UNL     1      45.932   4.484  14.520  0.00  0.00    +0.000 C 
BRANCH  16  17
ATOM     17  C   UNL     1      45.629   4.419  13.041  0.00  0.00    +0.000 A 
ATOM     18  C   UNL     1      45.834   5.531  12.212  0.00  0.00    +0.000 A 
ATOM     19  C   UNL     1      45.457   5.495  10.866  0.00  0.00    +0.000 A 
ATOM     20  C   UNL     1      44.843   4.357  10.326  0.00  0.00    +0.000 A 
ATOM     21  C   UNL     1      44.637   3.245  11.153  0.00  0.00    +0.000 A 
ATOM     22  C   UNL     1      45.015   3.280  12.498  0.00  0.00    +0.000 A 
BRANCH  20  23
ATOM     23  C   UNL     1      44.417   4.317   8.876  0.00  0.00    +0.000 C 
BRANCH  23  24
ATOM     24  O   UNL     1      45.547   4.582   8.055  0.00  0.00    +0.000 OA
BRANCH  24  25
ATOM     25  C   UNL     1      46.212   3.420   7.729  0.00  0.00    +0.000 A 
ATOM     26  N   UNL     1      47.290   3.581   6.950  0.00  0.00    +0.000 NA
ATOM     27  C   UNL     1      47.949   2.458   6.615  0.00  0.00    +0.000 A 
ATOM     28  C   UNL     1      47.578   1.202   7.039  0.00  0.00    +0.000 A 
ATOM     29  C   UNL     1      46.468   1.156   7.848  0.00  0.00    +0.000 A 
ATOM     30  N   UNL     1      45.763   2.245   8.206  0.00  0.00    +0.000 NA
ENDBRANCH  24  25
ENDBRANCH  23  24
ENDBRANCH  20  23
ENDBRANCH  16  17
ENDBRANCH   3  16
TORSDOF 6
ENDMDL
MODEL 9
REMARK VINA RESULT:    -6.423      3.958      8.299
REMARK INTER + INTRA:          -9.613
REMARK INTER:                  -8.659
REMARK INTRA:                  -0.954
REMARK UNBOUND:                -0.937
REMARK  Name = 
REMARK  6 active torsions:
REMARK  status: ('A' for Active; 'I' for Inactive)
REMARK    1  A    between atoms: C_2  and  C_19
REMARK    2  A    between atoms: N_3  and  C_4
REMARK    3  A    between atoms: C_4  and  C_5
REMARK    4  A    between atoms: C_8  and  C_9
REMARK    5  A    between atoms: C_9  and  O_10
REMARK    6  A    between atoms: O_10  and  C_11
REMARK                            x       y       z     vdW  Elec       q    Type
REMARK                         _______ _______ _______ _____ _____    ______ ____
ROOT
ATOM      1  O   UNL     1      49.170   6.627  13.401  0.00  0.00    +0.000 OA
ATOM      2  C   UNL     1      48.019   6.404  13.745  0.00  0.00    +0.000 C 
ATOM      3  N   UNL     1      47.608   6.272  15.055  0.00  0.00    +0.000 N 
ATOM      4  H   UNL     1      46.617   6.204  15.243  0.00  0.00    +0.000 HD
ENDROOT
BRANCH   2   5
ATOM      5  C   UNL     1      46.874   6.448  12.850  0.00  0.00    +0.000 A 
ATOM      6  C   UNL     1      46.587   7.549  12.061  0.00  0.00    +0.000 A 
ATOM      7  S   UNL     1      44.946   7.555  11.552  0.00  0.00    +0.000 S 
ATOM      8  C   UNL     1      44.651   6.038  12.277  0.00  0.00    +0.000 A 
ATOM      9  N   UNL     1      43.410   5.494  12.363  0.00  0.00    +0.000 NA
ATOM     10  C   UNL     1      43.378   4.325  12.919  0.00  0.00    +0.000 A 
ATOM     11  N   UNL     1      44.480   3.626  13.346  0.00  0.00    +0.000 N 
ATOM     12  C   UNL     1      45.757   4.123  13.252  0.00  0.00    +0.000 A 
ATOM     13  O   UNL     1      46.738   3.461  13.566  0.00  0.00    +0.000 OA
ATOM     14  C   UNL     1      45.815   5.485  12.763  0.00  0.00    +0.000 A 
ATOM     15  H   UNL     1      44.398   2.685  13.700  0.00  0.00    +0.000 HD
ENDBRANCH   2   5
BRANCH   3  16
ATOM     16  C   UNL     1      48.428   6.566  16.200  0.00  0.00    +0.000 C 
BRANCH  16  17
ATOM     17  C   UNL     1      49.005   5.264  16.707  0.00  0.00    +0.000 A 
ATOM     18  C   UNL     1      50.337   5.185  17.138  0.00  0.00    +0.000 A 
ATOM     19  C   UNL     1      50.893   3.957  17.511  0.00  0.00    +0.000 A 
ATOM     20  C   UNL     1      50.138   2.779  17.435  0.00  0.00    +0.000 A 
ATOM     21  C   UNL     1      48.808   2.856  17.003  0.00  0.00    +0.000 A 
ATOM     22  C   UNL     1      48.252   4.083  16.632  0.00  0.00    +0.000 A 
BRANCH  20  23
ATOM     23  C   UNL     1      50.738   1.446  17.819  0.00  0.00    +0.000 C 
BRANCH  23  24
ATOM     24  O   UNL     1      51.722   1.087  16.857  0.00  0.00    +0.000 OA
BRANCH  24  25
ATOM     25  C   UNL     1      52.953   0.897  17.448  0.00  0.00    +0.000 A 
ATOM     26  N   UNL     1      53.758   0.031  16.815  0.00  0.00    +0.000 NA
ATOM     27  C   UNL     1      54.962  -0.173  17.380  0.00  0.00    +0.000 A 
ATOM     28  C   UNL     1      55.382   0.459  18.527  0.00  0.00    +0.000 A 
ATOM     29  C   UNL     1      54.482   1.338  19.081  0.00  0.00    +0.000 A 
ATOM     30  N   UNL     1      53.261   1.575  18.568  0.00  0.00    +0.000 NA
ENDBRANCH  24  25
ENDBRANCH  23  24
ENDBRANCH  20  23
ENDBRANCH  16  17
ENDBRANCH   3  16
TORSDOF 6
ENDMDL
