MODEL 1
REMARK VINA RESULT:    -9.052      0.000      0.000
REMARK INTER + INTRA:         -12.381
REMARK INTER:                 -11.698
REMARK INTRA:                  -0.683
REMARK UNBOUND:                -0.683
REMARK  Name = 
REMARK  5 active torsions:
REMARK  status: ('A' for Active; 'I' for Inactive)
REMARK    1  A    between atoms: C_2  and  C_4
REMARK    2  A    between atoms: N_8  and  C_9
REMARK    3  A    between atoms: C_9  and  C_10
REMARK    4  A    between atoms: C_10  and  C_11
REMARK    5  A    between atoms: C_15  and  C_16
REMARK                            x       y       z     vdW  Elec       q    Type
REMARK                         _______ _______ _______ _____ _____    ______ ____
ROOT
ATOM      1  C   UNL     1      43.032   4.458  10.877  0.00  0.00    +0.000 C 
ENDROOT
BRANCH   1   6
ATOM      2  C   UNL     1      46.431   2.364   7.695  0.00  0.00    +0.000 A 
ATOM      3  C   UNL     1      45.666   1.820   8.718  0.00  0.00    +0.000 A 
ATOM      4  C   UNL     1      44.828   2.655   9.452  0.00  0.00    +0.000 A 
ATOM      5  C   UNL     1      44.764   4.017   9.160  0.00  0.00    +0.000 A 
ATOM      6  N   UNL     1      43.943   4.884   9.838  0.00  0.00    +0.000 N 
ATOM      7  N   UNL     1      45.521   4.557   8.185  0.00  0.00    +0.000 NA
ATOM      8  C   UNL     1      46.343   3.732   7.483  0.00  0.00    +0.000 A 
ATOM      9  H   UNL     1      43.983   5.841   9.512  0.00  0.00    +0.000 HD
BRANCH   2  11
ATOM     10  N   UNL     1      48.435   2.150   6.348  0.00  0.00    +0.000 N 
ATOM     11  C   UNL     1      47.324   1.539   6.857  0.00  0.00    +0.000 C 
ATOM     12  O   UNL     1      47.098   0.354   6.657  0.00  0.00    +0.000 OA
ATOM     13  H   UNL     1      49.094   1.560   5.855  0.00  0.00    +0.000 HD
ATOM     14  H   UNL     1      48.773   3.039   6.691  0.00  0.00    +0.000 HD
ENDBRANCH   2  11
ENDBRANCH   1   6
BRANCH   1  15
ATOM     15  C   UNL     1      43.127   5.326  12.132  0.00  0.00    +0.000 C 
BRANCH  15  16
ATOM     16  C   UNL     1      44.561   5.401  12.597  0.00  0.00    +0.000 A 
ATOM     17  C   UNL     1      45.067   4.481  13.504  0.00  0.00    +0.000 A 
ATOM     18  N   UNL     1      46.310   4.545  14.021  0.00  0.00    +0.000 NA
ATOM     19  C   UNL     1      47.087   5.580  13.616  0.00  0.00    +0.000 A 
ATOM     20  C   UNL     1      46.707   6.571  12.706  0.00  0.00    +0.000 A 
ATOM     21  C   UNL     1      45.403   6.450  12.199  0.00  0.00    +0.000 A 
BRANCH  20  22
ATOM     22  C   UNL     1      47.612   7.678  12.316  0.00  0.00    +0.000 A 
ATOM     23  C   UNL     1      47.169   9.014  12.279  0.00  0.00    +0.000 A 
ATOM     24  C   UNL     1      48.020  10.061  11.910  0.00  0.00    +0.000 A 
ATOM     25  C   UNL     1      49.345   9.799  11.579  0.00  0.00    +0.000 A 
ATOM     26  C   UNL     1      49.808   8.489  11.609  0.00  0.00    +0.000 A 
ATOM     27 CL   UNL     1      51.448   8.153  11.207  0.00  0.00    +0.000 Cl
ATOM     28  C   UNL     1      48.955   7.440  11.965  0.00  0.00    +0.000 A 
ENDBRANCH  20  22
ENDBRANCH  15  16
ENDBRANCH   1  15
TORSDOF 5
ENDMDL
MODEL 2
REMARK VINA RESULT:    -8.621      3.813      7.334
REMARK INTER + INTRA:         -11.824
REMARK INTER:                 -11.287
REMARK INTRA:                  -0.537
REMARK UNBOUND:                -0.683
REMARK  Name = 
REMARK  5 active torsions:
REMARK  status: ('A' for Active; 'I' for Inactive)
REMARK    1  A    between atoms: C_2  and  C_4
REMARK    2  A    between atoms: N_8  and  C_9
REMARK    3  A    between atoms: C_9  and  C_10
REMARK    4  A    between atoms: C_10  and  C_11
REMARK    5  A    between atoms: C_15  and  C_16
REMARK                            x       y       z     vdW  Elec       q    Type
REMARK                         _______ _______ _______ _____ _____    ______ ____
ROOT
ATOM      1  C   UNL     1      47.388   7.082  11.657  0.00  0.00    +0.000 C 
ENDROOT
BRANCH   1   6
ATOM      2  C   UNL     1      47.583   4.434  16.018  0.00  0.00    +0.000 A 
ATOM      3  C   UNL     1      46.855   4.241  14.852  0.00  0.00    +0.000 A 
ATOM      4  C   UNL     1      46.985   5.160  13.814  0.00  0.00    +0.000 A 
ATOM      5  C   UNL     1      47.835   6.257  13.951  0.00  0.00    +0.000 A 
ATOM      6  N   UNL     1      48.017   7.184  12.955  0.00  0.00    +0.000 N 
ATOM      7  N   UNL     1      48.527   6.464  15.088  0.00  0.00    +0.000 NA
ATOM      8  C   UNL     1      48.382   5.565  16.099  0.00  0.00    +0.000 A 
ATOM      9  H   UNL     1      48.676   7.920  13.182  0.00  0.00    +0.000 HD
BRANCH   2  11
ATOM     10  N   UNL     1      48.661   3.309  17.875  0.00  0.00    +0.000 N 
ATOM     11  C   UNL     1      47.516   3.490  17.151  0.00  0.00    +0.000 C 
ATOM     12  O   UNL     1      46.474   2.923  17.450  0.00  0.00    +0.000 OA
ATOM     13  H   UNL     1      48.589   2.737  18.707  0.00  0.00    +0.000 HD
ATOM     14  H   UNL     1      49.452   3.935  17.809  0.00  0.00    +0.000 HD
ENDBRANCH   2  11
ENDBRANCH   1   6
BRANCH   1  15
ATOM     15  C   UNL     1      45.876   7.297  11.719  0.00  0.00    +0.000 C 
BRANCH  15  16
ATOM     16  C   UNL     1      45.167   6.157  11.032  0.00  0.00    +0.000 A 
ATOM     17  C   UNL     1      43.902   5.753  11.437  0.00  0.00    +0.000 A 
ATOM     18  N   UNL     1      43.255   4.689  10.922  0.00  0.00    +0.000 NA
ATOM     19  C   UNL     1      43.901   3.990   9.955  0.00  0.00    +0.000 A 
ATOM     20  C   UNL     1      45.169   4.289   9.450  0.00  0.00    +0.000 A 
ATOM     21  C   UNL     1      45.794   5.409  10.023  0.00  0.00    +0.000 A 
BRANCH  20  22
ATOM     22  C   UNL     1      45.815   3.473   8.396  0.00  0.00    +0.000 A 
ATOM     23  C   UNL     1      46.366   4.062   7.241  0.00  0.00    +0.000 A 
ATOM     24  C   UNL     1      46.976   3.294   6.243  0.00  0.00    +0.000 A 
ATOM     25  C   UNL     1      47.061   1.913   6.380  0.00  0.00    +0.000 A 
ATOM     26  C   UNL     1      46.526   1.307   7.511  0.00  0.00    +0.000 A 
ATOM     27 CL   UNL     1      46.631  -0.402   7.695  0.00  0.00    +0.000 Cl
ATOM     28  C   UNL     1      45.905   2.071   8.504  0.00  0.00    +0.000 A 
ENDBRANCH  20  22
ENDBRANCH  15  16
ENDBRANCH   1  15
TORSDOF 5
ENDMDL
MODEL 3
REMARK VINA RESULT:    -8.441      4.433      8.110
REMARK INTER + INTRA:         -11.592
REMARK INTER:                 -10.963
REMARK INTRA:                  -0.629
REMARK UNBOUND:                -0.683
REMARK  Name = 
REMARK  5 active torsions:
REMARK  status: ('A' for Active; 'I' for Inactive)
REMARK    1  A    between atoms: C_2  and  C_4
REMARK    2  A    between atoms: N_8  and  C_9
REMARK    3  A    between atoms: C_9  and  C_10
REMARK    4  A    between atoms: C_10  and  C_11
REMARK    5  A    between atoms: C_15  and  C_16
REMARK                            x       y       z     vdW  Elec       q    Type
REMARK                         _______ _______ _______ _____ _____    ______ ____
ROOT
ATOM      1  C   UNL     1      46.676   5.893  13.402  0.00  0.00    +0.000 C 
ENDROOT
BRANCH   1   6
ATOM      2  C   UNL     1      48.494   4.421  17.940  0.00  0.00    +0.000 A 
ATOM      3  C   UNL     1      48.814   5.495  17.121  0.00  0.00    +0.000 A 
ATOM      4  C   UNL     1      48.160   5.633  15.900  0.00  0.00    +0.000 A 
ATOM      5  C   UNL     1      47.201   4.699  15.510  0.00  0.00    +0.000 A 
ATOM      6  N   UNL     1      46.511   4.793  14.326  0.00  0.00    +0.000 N 
ATOM      7  N   UNL     1      46.901   3.640  16.287  0.00  0.00    +0.000 NA
ATOM      8  C   UNL     1      47.556   3.513  17.474  0.00  0.00    +0.000 A 
ATOM      9  H   UNL     1      45.831   4.058  14.177  0.00  0.00    +0.000 HD
BRANCH   2  11
ATOM     10  N   UNL     1      48.413   3.521  20.189  0.00  0.00    +0.000 N 
ATOM     11  C   UNL     1      49.127   4.223  19.259  0.00  0.00    +0.000 C 
ATOM     12  O   UNL     1      50.253   4.638  19.497  0.00  0.00    +0.000 OA
ATOM     13  H   UNL     1      48.886   3.304  21.058  0.00  0.00    +0.000 HD
ATOM     14  H   UNL     1      47.605   2.964  19.948  0.00  0.00    +0.000 HD
ENDBRANCH   2  11
ENDBRANCH   1   6
BRANCH   1  15
ATOM     15  C   UNL     1      45.345   6.388  12.835  0.00  0.00    +0.000 C 
BRANCH  15  16
ATOM     16  C   UNL     1      44.728   5.318  11.968  0.00  0.00    +0.000 A 
ATOM     17  C   UNL     1      43.520   4.727  12.311  0.00  0.00    +0.000 A 
ATOM     18  N   UNL     1      42.962   3.710  11.626  0.00  0.00    +0.000 NA
ATOM     19  C   UNL     1      43.644   3.256  10.544  0.00  0.00    +0.000 A 
ATOM     20  C   UNL     1      44.863   3.762  10.084  0.00  0.00    +0.000 A 
ATOM     21  C   UNL     1      45.394   4.822  10.837  0.00  0.00    +0.000 A 
BRANCH  20  22
ATOM     22  C   UNL     1      45.553   3.207   8.895  0.00  0.00    +0.000 A 
ATOM     23  C   UNL     1      46.007   4.038   7.853  0.00  0.00    +0.000 A 
ATOM     24  C   UNL     1      46.658   3.519   6.729  0.00  0.00    +0.000 A 
ATOM     25  C   UNL     1      46.882   2.150   6.623  0.00  0.00    +0.000 A 
ATOM     26  C   UNL     1      46.446   1.309   7.640  0.00  0.00    +0.000 A 
ATOM     27 CL   UNL     1      46.723  -0.386   7.523  0.00  0.00    +0.000 Cl
ATOM     28  C   UNL     1      45.783   1.825   8.758  0.00  0.00    +0.000 A 
ENDBRANCH  20  22
ENDBRANCH  15  16
ENDBRANCH   1  15
TORSDOF 5
ENDMDL
MODEL 4
REMARK VINA RESULT:    -8.335      2.291      3.650
REMARK INTER + INTRA:         -11.454
REMARK INTER:                 -11.191
REMARK INTRA:                  -0.264
REMARK UNBOUND:                -0.683
REMARK  Name = 
REMARK  5 active torsions:
REMARK  status: ('A' for Active; 'I' for Inactive)
REMARK    1  A    between atoms: C_2  and  C_4
REMARK    2  A    between atoms: N_8  and  C_9
REMARK    3  A    between atoms: C_9  and  C_10
REMARK    4  A    between atoms: C_10  and  C_11
REMARK    5  A    between atoms: C_15  and  C_16
REMARK                            x       y       z     vdW  Elec       q    Type
REMARK                         _______ _______ _______ _____ _____    ______ ____
ROOT
ATOM      1  C   UNL     1      43.270   4.499  10.985  0.00  0.00    +0.000 C 
ENDROOT
BRANCH   1   6
ATOM      2  C   UNL     1      46.447   2.309   7.642  0.00  0.00    +0.000 A 
ATOM      3  C   UNL     1      45.780   1.804   8.749  0.00  0.00    +0.000 A 
ATOM      4  C   UNL     1      44.985   2.659   9.508  0.00  0.00    +0.000 A 
ATOM      5  C   UNL     1      44.867   4.003   9.155  0.00  0.00    +0.000 A 
ATOM      6  N   UNL     1      44.084   4.888   9.855  0.00  0.00    +0.000 N 
ATOM      7  N   UNL     1      45.530   4.507   8.096  0.00  0.00    +0.000 NA
ATOM      8  C   UNL     1      46.312   3.663   7.370  0.00  0.00    +0.000 A 
ATOM      9  H   UNL     1      44.075   5.829   9.479  0.00  0.00    +0.000 HD
BRANCH   2  11
ATOM     10  N   UNL     1      48.362   2.056   6.176  0.00  0.00    +0.000 N 
ATOM     11  C   UNL     1      47.288   1.459   6.776  0.00  0.00    +0.000 C 
ATOM     12  O   UNL     1      47.055   0.267   6.629  0.00  0.00    +0.000 OA
ATOM     13  H   UNL     1      48.989   1.452   5.661  0.00  0.00    +0.000 HD
ATOM     14  H   UNL     1      48.717   2.956   6.468  0.00  0.00    +0.000 HD
ENDBRANCH   2  11
ENDBRANCH   1   6
BRANCH   1  15
ATOM     15  C   UNL     1      43.299   5.532  12.112  0.00  0.00    +0.000 C 
BRANCH  15  16
ATOM     16  C   UNL     1      44.727   5.864  12.466  0.00  0.00    +0.000 A 
ATOM     17  C   UNL     1      45.496   6.680  11.647  0.00  0.00    +0.000 A 
ATOM     18  N   UNL     1      46.800   6.942  11.864  0.00  0.00    +0.000 NA
ATOM     19  C   UNL     1      47.368   6.361  12.950  0.00  0.00    +0.000 A 
ATOM     20  C   UNL     1      46.711   5.527  13.859  0.00  0.00    +0.000 A 
ATOM     21  C   UNL     1      45.354   5.292  13.583  0.00  0.00    +0.000 A 
BRANCH  20  22
ATOM     22  C   UNL     1      47.402   4.922  15.022  0.00  0.00    +0.000 A 
ATOM     23  C   UNL     1      47.295   3.547  15.310  0.00  0.00    +0.000 A 
ATOM     24  C   UNL     1      47.946   2.973  16.407  0.00  0.00    +0.000 A 
ATOM     25  C   UNL     1      48.732   3.759  17.242  0.00  0.00    +0.000 A 
ATOM     26  C   UNL     1      48.855   5.119  16.979  0.00  0.00    +0.000 A 
ATOM     27 CL   UNL     1      49.831   6.101  18.001  0.00  0.00    +0.000 Cl
ATOM     28  C   UNL     1      48.196   5.697  15.890  0.00  0.00    +0.000 A 
ENDBRANCH  20  22
ENDBRANCH  15  16
ENDBRANCH   1  15
TORSDOF 5
ENDMDL
MODEL 5
REMARK VINA RESULT:    -7.339      2.100      2.336
REMARK INTER + INTRA:         -10.168
REMARK INTER:                 -10.634
REMARK INTRA:                   0.466
REMARK UNBOUND:                -0.683
REMARK  Name = 
REMARK  5 active torsions:
REMARK  status: ('A' for Active; 'I' for Inactive)
REMARK    1  A    between atoms: C_2  and  C_4
REMARK    2  A    between atoms: N_8  and  C_9
REMARK    3  A    between atoms: C_9  and  C_10
REMARK    4  A    between atoms: C_10  and  C_11
REMARK    5  A    between atoms: C_15  and  C_16
REMARK                            x       y       z     vdW  Elec       q    Type
REMARK                         _______ _______ _______ _____ _____    ______ ____
ROOT
ATOM      1  C   UNL     1      43.577   3.798  11.025  0.00  0.00    +0.000 C 
ENDROOT
BRANCH   1   6
ATOM      2  C   UNL     1      46.666   2.458   7.187  0.00  0.00    +0.000 A 
ATOM      3  C   UNL     1      46.133   3.685   7.559  0.00  0.00    +0.000 A 
ATOM      4  C   UNL     1      45.280   3.747   8.658  0.00  0.00    +0.000 A 
ATOM      5  C   UNL     1      44.968   2.589   9.368  0.00  0.00    +0.000 A 
ATOM      6  N   UNL     1      44.148   2.592  10.470  0.00  0.00    +0.000 N 
ATOM      7  N   UNL     1      45.462   1.390   9.000  0.00  0.00    +0.000 NA
ATOM      8  C   UNL     1      46.286   1.343   7.918  0.00  0.00    +0.000 A 
ATOM      9  H   UNL     1      44.020   1.684  10.900  0.00  0.00    +0.000 HD
BRANCH   2  11
ATOM     10  N   UNL     1      47.503   3.250   5.054  0.00  0.00    +0.000 N 
ATOM     11  C   UNL     1      47.596   2.318   6.050  0.00  0.00    +0.000 C 
ATOM     12  O   UNL     1      48.437   1.429   6.016  0.00  0.00    +0.000 OA
ATOM     13  H   UNL     1      48.202   3.208   4.324  0.00  0.00    +0.000 HD
ATOM     14  H   UNL     1      47.000   4.119   5.168  0.00  0.00    +0.000 HD
ENDBRANCH   2  11
ENDBRANCH   1   6
BRANCH   1  15
ATOM     15  C   UNL     1      44.545   4.981  10.977  0.00  0.00    +0.000 C 
BRANCH  15  16
ATOM     16  C   UNL     1      45.547   4.868  12.100  0.00  0.00    +0.000 A 
ATOM     17  C   UNL     1      45.584   3.746  12.916  0.00  0.00    +0.000 A 
ATOM     18  N   UNL     1      46.395   3.623  13.985  0.00  0.00    +0.000 NA
ATOM     19  C   UNL     1      47.210   4.673  14.257  0.00  0.00    +0.000 A 
ATOM     20  C   UNL     1      47.280   5.857  13.517  0.00  0.00    +0.000 A 
ATOM     21  C   UNL     1      46.414   5.926  12.414  0.00  0.00    +0.000 A 
BRANCH  20  22
ATOM     22  C   UNL     1      48.193   6.966  13.881  0.00  0.00    +0.000 A 
ATOM     23  C   UNL     1      48.568   7.949  12.945  0.00  0.00    +0.000 A 
ATOM     24  C   UNL     1      49.431   8.997  13.285  0.00  0.00    +0.000 A 
ATOM     25  C   UNL     1      49.934   9.095  14.578  0.00  0.00    +0.000 A 
ATOM     26  C   UNL     1      49.577   8.139  15.521  0.00  0.00    +0.000 A 
ATOM     27 CL   UNL     1      50.188   8.253  17.126  0.00  0.00    +0.000 Cl
ATOM     28  C   UNL     1      48.726   7.083  15.180  0.00  0.00    +0.000 A 
ENDBRANCH  20  22
ENDBRANCH  15  16
ENDBRANCH   1  15
TORSDOF 5
ENDMDL
MODEL 6
REMARK VINA RESULT:    -7.295      1.805      2.230
REMARK INTER + INTRA:         -10.111
REMARK INTER:                  -9.943
REMARK INTRA:                  -0.168
REMARK UNBOUND:                -0.683
REMARK  Name = 
REMARK  5 active torsions:
REMARK  status: ('A' for Active; 'I' for Inactive)
REMARK    1  A    between atoms: C_2  and  C_4
REMARK    2  A    between atoms: N_8  and  C_9
REMARK    3  A    between atoms: C_9  and  C_10
REMARK    4  A    between atoms: C_10  and  C_11
REMARK    5  A    between atoms: C_15  and  C_16
REMARK                            x       y       z     vdW  Elec       q    Type
REMARK                         _______ _______ _______ _____ _____    ______ ____
ROOT
ATOM      1  C   UNL     1      43.188   3.553  11.240  0.00  0.00    +0.000 C 
ENDROOT
BRANCH   1   6
ATOM      2  C   UNL     1      46.487   2.459   7.499  0.00  0.00    +0.000 A 
ATOM      3  C   UNL     1      46.004   1.700   8.557  0.00  0.00    +0.000 A 
ATOM      4  C   UNL     1      45.115   2.282   9.457  0.00  0.00    +0.000 A 
ATOM      5  C   UNL     1      44.722   3.610   9.294  0.00  0.00    +0.000 A 
ATOM      6  N   UNL     1      43.835   4.231  10.139  0.00  0.00    +0.000 N 
ATOM      7  N   UNL     1      45.204   4.361   8.285  0.00  0.00    +0.000 NA
ATOM      8  C   UNL     1      46.080   3.783   7.419  0.00  0.00    +0.000 A 
ATOM      9  H   UNL     1      43.624   5.190   9.894  0.00  0.00    +0.000 HD
BRANCH   2  11
ATOM     10  N   UNL     1      48.618   2.532   6.346  0.00  0.00    +0.000 N 
ATOM     11  C   UNL     1      47.412   1.905   6.492  0.00  0.00    +0.000 C 
ATOM     12  O   UNL     1      47.127   0.908   5.842  0.00  0.00    +0.000 OA
ATOM     13  H   UNL     1      49.286   2.094   5.724  0.00  0.00    +0.000 HD
ATOM     14  H   UNL     1      48.975   3.189   7.025  0.00  0.00    +0.000 HD
ENDBRANCH   2  11
ENDBRANCH   1   6
BRANCH   1  15
ATOM     15  C   UNL     1      43.381   4.280  12.571  0.00  0.00    +0.000 C 
BRANCH  15  16
ATOM     16  C   UNL     1      43.935   5.662  12.324  0.00  0.00    +0.000 A 
ATOM     17  C   UNL     1      43.213   6.603  11.604  0.00  0.00    +0.000 A 
ATOM     18  N   UNL     1      43.688   7.822  11.278  0.00  0.00    +0.000 NA
ATOM     19  C   UNL     1      44.947   8.116  11.687  0.00  0.00    +0.000 A 
ATOM     20  C   UNL     1      45.779   7.267  12.422  0.00  0.00    +0.000 A 
ATOM     21  C   UNL     1      45.230   6.013  12.735  0.00  0.00    +0.000 A 
BRANCH  20  22
ATOM     22  C   UNL     1      47.150   7.658  12.829  0.00  0.00    +0.000 A 
ATOM     23  C   UNL     1      48.288   7.045  12.269  0.00  0.00    +0.000 A 
ATOM     24  C   UNL     1      49.583   7.411  12.652  0.00  0.00    +0.000 A 
ATOM     25  C   UNL     1      49.775   8.411  13.599  0.00  0.00    +0.000 A 
ATOM     26  C   UNL     1      48.668   9.034  14.164  0.00  0.00    +0.000 A 
ATOM     27 CL   UNL     1      48.892  10.277  15.333  0.00  0.00    +0.000 Cl
ATOM     28  C   UNL     1      47.373   8.660  13.793  0.00  0.00    +0.000 A 
ENDBRANCH  20  22
ENDBRANCH  15  16
ENDBRANCH   1  15
TORSDOF 5
ENDMDL
MODEL 7
REMARK VINA RESULT:    -7.150      4.051      7.510
REMARK INTER + INTRA:          -9.923
REMARK INTER:                  -8.905
REMARK INTRA:                  -1.018
REMARK UNBOUND:                -0.683
REMARK  Name = 
REMARK  5 active torsions:
REMARK  status: ('A' for Active; 'I' for Inactive)
REMARK    1  A    between atoms: C_2  and  C_4
REMARK    2  A    between atoms: N_8  and  C_9
REMARK    3  A    between atoms: C_9  and  C_10
REMARK    4  A    between atoms: C_10  and  C_11
REMARK    5  A    between atoms: C_15  and  C_16
REMARK                            x       y       z     vdW  Elec       q    Type
REMARK                         _______ _______ _______ _____ _____    ______ ____
ROOT
ATOM      1  C   UNL     1      49.749   7.472  12.477  0.00  0.00    +0.000 C 
ENDROOT
BRANCH   1   6
ATOM      2  C   UNL     1      47.837   5.099  16.573  0.00  0.00    +0.000 A 
ATOM      3  C   UNL     1      47.443   5.106  15.242  0.00  0.00    +0.000 A 
ATOM      4  C   UNL     1      48.152   5.885  14.332  0.00  0.00    +0.000 A 
ATOM      5  C   UNL     1      49.240   6.646  14.758  0.00  0.00    +0.000 A 
ATOM      6  N   UNL     1      49.986   7.418  13.902  0.00  0.00    +0.000 N 
ATOM      7  N   UNL     1      49.615   6.663  16.052  0.00  0.00    +0.000 NA
ATOM      8  C   UNL     1      48.906   5.906  16.933  0.00  0.00    +0.000 A 
ATOM      9  H   UNL     1      50.758   7.905  14.341  0.00  0.00    +0.000 HD
BRANCH   2  11
ATOM     10  N   UNL     1      47.026   4.820  18.840  0.00  0.00    +0.000 N 
ATOM     11  C   UNL     1      47.151   4.280  17.591  0.00  0.00    +0.000 C 
ATOM     12  O   UNL     1      46.684   3.182  17.321  0.00  0.00    +0.000 OA
ATOM     13  H   UNL     1      46.473   4.299  19.509  0.00  0.00    +0.000 HD
ATOM     14  H   UNL     1      47.176   5.802  19.026  0.00  0.00    +0.000 HD
ENDBRANCH   2  11
ENDBRANCH   1   6
BRANCH   1  15
ATOM     15  C   UNL     1      48.922   8.691  12.066  0.00  0.00    +0.000 C 
BRANCH  15  16
ATOM     16  C   UNL     1      47.471   8.301  11.924  0.00  0.00    +0.000 A 
ATOM     17  C   UNL     1      46.461   9.104  12.438  0.00  0.00    +0.000 A 
ATOM     18  N   UNL     1      45.156   8.769  12.418  0.00  0.00    +0.000 NA
ATOM     19  C   UNL     1      44.840   7.573  11.861  0.00  0.00    +0.000 A 
ATOM     20  C   UNL     1      45.752   6.674  11.303  0.00  0.00    +0.000 A 
ATOM     21  C   UNL     1      47.097   7.077  11.349  0.00  0.00    +0.000 A 
BRANCH  20  22
ATOM     22  C   UNL     1      45.331   5.379  10.717  0.00  0.00    +0.000 A 
ATOM     23  C   UNL     1      44.607   4.431  11.466  0.00  0.00    +0.000 A 
ATOM     24  C   UNL     1      44.208   3.208  10.916  0.00  0.00    +0.000 A 
ATOM     25  C   UNL     1      44.515   2.905   9.594  0.00  0.00    +0.000 A 
ATOM     26  C   UNL     1      45.227   3.824   8.832  0.00  0.00    +0.000 A 
ATOM     27 CL   UNL     1      45.607   3.462   7.193  0.00  0.00    +0.000 Cl
ATOM     28  C   UNL     1      45.637   5.042   9.384  0.00  0.00    +0.000 A 
ENDBRANCH  20  22
ENDBRANCH  15  16
ENDBRANCH   1  15
TORSDOF 5
ENDMDL
MODEL 8
REMARK VINA RESULT:    -7.146      4.275      7.810
REMARK INTER + INTRA:          -9.918
REMARK INTER:                  -9.270
REMARK INTRA:                  -0.647
REMARK UNBOUND:                -0.683
REMARK  Name = 
REMARK  5 active torsions:
REMARK  status: ('A' for Active; 'I' for Inactive)
REMARK    1  A    between atoms: C_2  and  C_4
REMARK    2  A    between atoms: N_8  and  C_9
REMARK    3  A    between atoms: C_9  and  C_10
REMARK    4  A    between atoms: C_10  and  C_11
REMARK    5  A    between atoms: C_15  and  C_16
REMARK                            x       y       z     vdW  Elec       q    Type
REMARK                         _______ _______ _______ _____ _____    ______ ____
ROOT
ATOM      1  C   UNL     1      46.490   7.212  11.749  0.00  0.00    +0.000 C 
ENDROOT
BRANCH   1   6
ATOM      2  C   UNL     1      49.158   7.091  16.101  0.00  0.00    +0.000 A 
ATOM      3  C   UNL     1      48.552   6.085  15.361  0.00  0.00    +0.000 A 
ATOM      4  C   UNL     1      47.854   6.424  14.205  0.00  0.00    +0.000 A 
ATOM      5  C   UNL     1      47.766   7.756  13.804  0.00  0.00    +0.000 A 
ATOM      6  N   UNL     1      47.107   8.147  12.664  0.00  0.00    +0.000 N 
ATOM      7  N   UNL     1      48.331   8.741  14.529  0.00  0.00    +0.000 NA
ATOM      8  C   UNL     1      49.001   8.397  15.662  0.00  0.00    +0.000 A 
ATOM      9  H   UNL     1      47.137   9.143  12.483  0.00  0.00    +0.000 HD
BRANCH   2  11
ATOM     10  N   UNL     1      50.436   5.542  17.459  0.00  0.00    +0.000 N 
ATOM     11  C   UNL     1      49.936   6.807  17.323  0.00  0.00    +0.000 C 
ATOM     12  O   UNL     1      50.152   7.673  18.159  0.00  0.00    +0.000 OA
ATOM     13  H   UNL     1      51.047   5.377  18.249  0.00  0.00    +0.000 HD
ATOM     14  H   UNL     1      50.485   4.890  16.689  0.00  0.00    +0.000 HD
ENDBRANCH   2  11
ENDBRANCH   1   6
BRANCH   1  15
ATOM     15  C   UNL     1      45.004   7.001  12.040  0.00  0.00    +0.000 C 
BRANCH  15  16
ATOM     16  C   UNL     1      44.531   5.725  11.390  0.00  0.00    +0.000 A 
ATOM     17  C   UNL     1      43.423   5.043  11.876  0.00  0.00    +0.000 A 
ATOM     18  N   UNL     1      43.003   3.857  11.394  0.00  0.00    +0.000 NA
ATOM     19  C   UNL     1      43.725   3.320  10.379  0.00  0.00    +0.000 A 
ATOM     20  C   UNL     1      44.854   3.899   9.793  0.00  0.00    +0.000 A 
ATOM     21  C   UNL     1      45.242   5.136  10.334  0.00  0.00    +0.000 A 
BRANCH  20  22
ATOM     22  C   UNL     1      45.597   3.247   8.689  0.00  0.00    +0.000 A 
ATOM     23  C   UNL     1      46.157   3.995   7.635  0.00  0.00    +0.000 A 
ATOM     24  C   UNL     1      46.859   3.382   6.590  0.00  0.00    +0.000 A 
ATOM     25  C   UNL     1      47.028   2.002   6.579  0.00  0.00    +0.000 A 
ATOM     26  C   UNL     1      46.486   1.241   7.609  0.00  0.00    +0.000 A 
ATOM     27 CL   UNL     1      46.694  -0.467   7.609  0.00  0.00    +0.000 Cl
ATOM     28  C   UNL     1      45.774   1.850   8.647  0.00  0.00    +0.000 A 
ENDBRANCH  20  22
ENDBRANCH  15  16
ENDBRANCH   1  15
TORSDOF 5
ENDMDL
MODEL 9
REMARK VINA RESULT:    -6.808      3.809      5.882
REMARK INTER + INTRA:          -9.481
REMARK INTER:                  -8.713
REMARK INTRA:                  -0.768
REMARK UNBOUND:                -0.683
REMARK  Name = 
REMARK  5 active torsions:
REMARK  status: ('A' for Active; 'I' for Inactive)
REMARK    1  A    between atoms: C_2  and  C_4
REMARK    2  A    between atoms: N_8  and  C_9
REMARK    3  A    between atoms: C_9  and  C_10
REMARK    4  A    between atoms: C_10  and  C_11
REMARK    5  A    between atoms: C_15  and  C_16
REMARK                            x       y       z     vdW  Elec       q    Type
REMARK                         _______ _______ _______ _____ _____    ______ ____
ROOT
ATOM      1  C   UNL     1      46.522   8.719  12.413  0.00  0.00    +0.000 C 
ENDROOT
BRANCH   1   6
ATOM      2  C   UNL     1      44.338   4.195  11.500  0.00  0.00    +0.000 A 
ATOM      3  C   UNL     1      45.168   4.994  10.725  0.00  0.00    +0.000 A 
ATOM      4  C   UNL     1      45.597   6.217  11.234  0.00  0.00    +0.000 A 
ATOM      5  C   UNL     1      45.193   6.629  12.503  0.00  0.00    +0.000 A 
ATOM      6  N   UNL     1      45.599   7.815  13.063  0.00  0.00    +0.000 N 
ATOM      7  N   UNL     1      44.369   5.871  13.252  0.00  0.00    +0.000 NA
ATOM      8  C   UNL     1      43.948   4.683  12.739  0.00  0.00    +0.000 A 
ATOM      9  H   UNL     1      45.245   7.981  13.997  0.00  0.00    +0.000 HD
BRANCH   2  11
ATOM     10  N   UNL     1      44.513   2.321   9.973  0.00  0.00    +0.000 N 
ATOM     11  C   UNL     1      43.862   2.876  11.039  0.00  0.00    +0.000 C 
ATOM     12  O   UNL     1      42.951   2.291  11.608  0.00  0.00    +0.000 OA
ATOM     13  H   UNL     1      44.249   1.377   9.720  0.00  0.00    +0.000 HD
ATOM     14  H   UNL     1      45.408   2.657   9.647  0.00  0.00    +0.000 HD
ENDBRANCH   2  11
ENDBRANCH   1   6
BRANCH   1  15
ATOM     15  C   UNL     1      47.983   8.338  12.652  0.00  0.00    +0.000 C 
BRANCH  15  16
ATOM     16  C   UNL     1      48.223   8.127  14.127  0.00  0.00    +0.000 A 
ATOM     17  C   UNL     1      48.317   9.205  14.997  0.00  0.00    +0.000 A 
ATOM     18  N   UNL     1      48.615   9.086  16.306  0.00  0.00    +0.000 NA
ATOM     19  C   UNL     1      48.833   7.831  16.772  0.00  0.00    +0.000 A 
ATOM     20  C   UNL     1      48.764   6.661  16.010  0.00  0.00    +0.000 A 
ATOM     21  C   UNL     1      48.447   6.846  14.654  0.00  0.00    +0.000 A 
BRANCH  20  22
ATOM     22  C   UNL     1      49.022   5.322  16.590  0.00  0.00    +0.000 A 
ATOM     23  C   UNL     1      48.030   4.321  16.604  0.00  0.00    +0.000 A 
ATOM     24  C   UNL     1      48.270   3.056  17.151  0.00  0.00    +0.000 A 
ATOM     25  C   UNL     1      49.516   2.754  17.690  0.00  0.00    +0.000 A 
ATOM     26  C   UNL     1      50.512   3.723  17.686  0.00  0.00    +0.000 A 
ATOM     27 CL   UNL     1      52.060   3.359  18.345  0.00  0.00    +0.000 Cl
ATOM     28  C   UNL     1      50.271   4.992  17.152  0.00  0.00    +0.000 A 
ENDBRANCH  20  22
ENDBRANCH  15  16
ENDBRANCH   1  15
TORSDOF 5
ENDMDL
