MODEL 1
REMARK VINA RESULT:    -7.465      0.000      0.000
REMARK INTER + INTRA:          -9.453
REMARK INTER:                  -9.211
REMARK INTRA:                  -0.242
REMARK UNBOUND:                -0.242
REMARK  Name = 
REMARK  6 active torsions:
REMARK  status: ('A' for Active; 'I' for Inactive)
REMARK    1  A    between atoms: C_1  and  N_2
REMARK    2  A    between atoms: C_3  and  C_5
REMARK    3  A    between atoms: C_8  and  N_9
REMARK    4  A    between atoms: N_9  and  C_10
REMARK    5  A    between atoms: C_10  and  C_11
REMARK    6  A    between atoms: C_10  and  C_12
REMARK                            x       y       z     vdW  Elec       q    Type
REMARK                         _______ _______ _______ _____ _____    ______ ____
ROOT
ATOM      1  C   UNL     1      46.322   4.568  13.872  0.00  0.00    +0.000 A 
ATOM      2  C   UNL     1      45.550   5.577  13.291  0.00  0.00    +0.000 A 
ATOM      3  C   UNL     1      44.870   5.337  12.093  0.00  0.00    +0.000 A 
ATOM      4  C   UNL     1      44.962   4.109  11.434  0.00  0.00    +0.000 A 
ATOM      5  C   UNL     1      45.680   3.085  12.064  0.00  0.00    +0.000 A 
ATOM      6  C   UNL     1      46.376   3.313  13.257  0.00  0.00    +0.000 A 
ENDROOT
BRANCH   1   9
ATOM      7  C   UNL     1      47.410   4.386  17.492  0.00  0.00    +0.000 C 
ATOM      8  N   UNL     1      46.715   4.187  16.248  0.00  0.00    +0.000 N 
ATOM      9  C   UNL     1      47.138   4.810  15.093  0.00  0.00    +0.000 C 
ATOM     10  O   UNL     1      48.132   5.527  15.039  0.00  0.00    +0.000 OA
ATOM     11  H   UNL     1      46.001   3.471  16.203  0.00  0.00    +0.000 HD
ENDBRANCH   1   9
BRANCH   4  12
ATOM     12  N   UNL     1      44.333   3.821  10.222  0.00  0.00    +0.000 N 
ATOM     13  H   UNL     1      43.330   3.971  10.285  0.00  0.00    +0.000 HD
BRANCH  12  14
ATOM     14  C   UNL     1      44.911   4.285   8.955  0.00  0.00    +0.000 C 
ATOM     15  C   UNL     1      45.793   5.503   9.246  0.00  0.00    +0.000 C 
BRANCH  14  16
ATOM     16  C   UNL     1      45.702   3.196   8.249  0.00  0.00    +0.000 A 
ATOM     17  C   UNL     1      46.537   3.532   7.166  0.00  0.00    +0.000 A 
ATOM     18  C   UNL     1      47.252   2.549   6.480  0.00  0.00    +0.000 A 
ATOM     19  C   UNL     1      47.164   1.219   6.880  0.00  0.00    +0.000 A 
ATOM     20  C   UNL     1      46.365   0.871   7.969  0.00  0.00    +0.000 A 
ATOM     21  C   UNL     1      45.638   1.852   8.647  0.00  0.00    +0.000 A 
ENDBRANCH  14  16
ENDBRANCH  12  14
ENDBRANCH   4  12
TORSDOF 4
ENDMDL
MODEL 2
REMARK VINA RESULT:    -7.308      2.916      6.784
REMARK INTER + INTRA:          -9.260
REMARK INTER:                  -8.505
REMARK INTRA:                  -0.754
REMARK UNBOUND:                -0.242
REMARK  Name = 
REMARK  6 active torsions:
REMARK  status: ('A' for Active; 'I' for Inactive)
REMARK    1  A    between atoms: C_1  and  N_2
REMARK    2  A    between atoms: C_3  and  C_5
REMARK    3  A    between atoms: C_8  and  N_9
REMARK    4  A    between atoms: N_9  and  C_10
REMARK    5  A    between atoms: C_10  and  C_11
REMARK    6  A    between atoms: C_10  and  C_12
REMARK                            x       y       z     vdW  Elec       q    Type
REMARK                         _______ _______ _______ _____ _____    ______ ____
ROOT
ATOM      1  C   UNL     1      46.080   2.488   7.835  0.00  0.00    +0.000 A 
ATOM      2  C   UNL     1      45.483   1.637   8.768  0.00  0.00    +0.000 A 
ATOM      3  C   UNL     1      44.579   2.147   9.704  0.00  0.00    +0.000 A 
ATOM      4  C   UNL     1      44.269   3.507   9.754  0.00  0.00    +0.000 A 
ATOM      5  C   UNL     1      44.819   4.337   8.769  0.00  0.00    +0.000 A 
ATOM      6  C   UNL     1      45.735   3.843   7.832  0.00  0.00    +0.000 A 
ENDROOT
BRANCH   1   9
ATOM      7  C   UNL     1      48.260   2.356   4.744  0.00  0.00    +0.000 C 
ATOM      8  N   UNL     1      47.307   2.757   5.745  0.00  0.00    +0.000 N 
ATOM      9  C   UNL     1      47.119   2.005   6.885  0.00  0.00    +0.000 C 
ATOM     10  O   UNL     1      47.761   0.989   7.135  0.00  0.00    +0.000 OA
ATOM     11  H   UNL     1      46.884   3.673   5.670  0.00  0.00    +0.000 HD
ENDBRANCH   1   9
BRANCH   4  12
ATOM     12  N   UNL     1      43.400   4.080  10.684  0.00  0.00    +0.000 N 
ATOM     13  H   UNL     1      43.180   3.426  11.430  0.00  0.00    +0.000 HD
BRANCH  12  14
ATOM     14  C   UNL     1      43.617   5.451  11.160  0.00  0.00    +0.000 C 
ATOM     15  C   UNL     1      42.403   5.867  11.998  0.00  0.00    +0.000 C 
BRANCH  14  16
ATOM     16  C   UNL     1      44.902   5.587  11.960  0.00  0.00    +0.000 A 
ATOM     17  C   UNL     1      45.106   4.777  13.094  0.00  0.00    +0.000 A 
ATOM     18  C   UNL     1      46.263   4.899  13.864  0.00  0.00    +0.000 A 
ATOM     19  C   UNL     1      47.245   5.816  13.502  0.00  0.00    +0.000 A 
ATOM     20  C   UNL     1      47.074   6.607  12.366  0.00  0.00    +0.000 A 
ATOM     21  C   UNL     1      45.910   6.494  11.602  0.00  0.00    +0.000 A 
ENDBRANCH  14  16
ENDBRANCH  12  14
ENDBRANCH   4  12
TORSDOF 4
ENDMDL
MODEL 3
REMARK VINA RESULT:    -7.224      2.907      6.675
REMARK INTER + INTRA:          -9.155
REMARK INTER:                  -8.424
REMARK INTRA:                  -0.731
REMARK UNBOUND:                -0.242
REMARK  Name = 
REMARK  6 active torsions:
REMARK  status: ('A' for Active; 'I' for Inactive)
REMARK    1  A    between atoms: C_1  and  N_2
REMARK    2  A    between atoms: C_3  and  C_5
REMARK    3  A    between atoms: C_8  and  N_9
REMARK    4  A    between atoms: N_9  and  C_10
REMARK    5  A    between atoms: C_10  and  C_11
REMARK    6  A    between atoms: C_10  and  C_12
REMARK                            x       y       z     vdW  Elec       q    Type
REMARK                         _______ _______ _______ _____ _____    ______ ____
ROOT
ATOM      1  C   UNL     1      46.055   2.542   7.867  0.00  0.00    +0.000 A 
ATOM      2  C   UNL     1      45.439   1.666   8.764  0.00  0.00    +0.000 A 
ATOM      3  C   UNL     1      44.543   2.156   9.718  0.00  0.00    +0.000 A 
ATOM      4  C   UNL     1      44.260   3.519   9.822  0.00  0.00    +0.000 A 
ATOM      5  C   UNL     1      44.830   4.377   8.872  0.00  0.00    +0.000 A 
ATOM      6  C   UNL     1      45.738   3.902   7.919  0.00  0.00    +0.000 A 
ENDROOT
BRANCH   1   9
ATOM      7  C   UNL     1      48.275   2.516   4.802  0.00  0.00    +0.000 C 
ATOM      8  N   UNL     1      47.325   2.892   5.816  0.00  0.00    +0.000 N 
ATOM      9  C   UNL     1      47.087   2.076   6.901  0.00  0.00    +0.000 C 
ATOM     10  O   UNL     1      47.681   1.019   7.092  0.00  0.00    +0.000 OA
ATOM     11  H   UNL     1      46.943   3.829   5.796  0.00  0.00    +0.000 HD
ENDBRANCH   1   9
BRANCH   4  12
ATOM     12  N   UNL     1      43.400   4.071  10.773  0.00  0.00    +0.000 N 
ATOM     13  H   UNL     1      43.188   3.402  11.507  0.00  0.00    +0.000 HD
BRANCH  12  14
ATOM     14  C   UNL     1      43.620   5.433  11.275  0.00  0.00    +0.000 C 
ATOM     15  C   UNL     1      42.418   5.827  12.138  0.00  0.00    +0.000 C 
BRANCH  14  16
ATOM     16  C   UNL     1      44.917   5.555  12.059  0.00  0.00    +0.000 A 
ATOM     17  C   UNL     1      45.869   6.523  11.685  0.00  0.00    +0.000 A 
ATOM     18  C   UNL     1      47.081   6.638  12.367  0.00  0.00    +0.000 A 
ATOM     19  C   UNL     1      47.351   5.805  13.449  0.00  0.00    +0.000 A 
ATOM     20  C   UNL     1      46.408   4.859  13.852  0.00  0.00    +0.000 A 
ATOM     21  C   UNL     1      45.201   4.734  13.161  0.00  0.00    +0.000 A 
ENDBRANCH  14  16
ENDBRANCH  12  14
ENDBRANCH   4  12
TORSDOF 4
ENDMDL
MODEL 4
REMARK VINA RESULT:    -6.667      1.810      2.777
REMARK INTER + INTRA:          -8.468
REMARK INTER:                  -7.842
REMARK INTRA:                  -0.626
REMARK UNBOUND:                -0.242
REMARK  Name = 
REMARK  6 active torsions:
REMARK  status: ('A' for Active; 'I' for Inactive)
REMARK    1  A    between atoms: C_1  and  N_2
REMARK    2  A    between atoms: C_3  and  C_5
REMARK    3  A    between atoms: C_8  and  N_9
REMARK    4  A    between atoms: N_9  and  C_10
REMARK    5  A    between atoms: C_10  and  C_11
REMARK    6  A    between atoms: C_10  and  C_12
REMARK                            x       y       z     vdW  Elec       q    Type
REMARK                         _______ _______ _______ _____ _____    ______ ____
ROOT
ATOM      1  C   UNL     1      47.984   6.177  14.660  0.00  0.00    +0.000 A 
ATOM      2  C   UNL     1      47.152   5.064  14.525  0.00  0.00    +0.000 A 
ATOM      3  C   UNL     1      46.294   4.959  13.426  0.00  0.00    +0.000 A 
ATOM      4  C   UNL     1      46.222   5.962  12.458  0.00  0.00    +0.000 A 
ATOM      5  C   UNL     1      47.112   7.038  12.567  0.00  0.00    +0.000 A 
ATOM      6  C   UNL     1      47.969   7.162  13.668  0.00  0.00    +0.000 A 
ENDROOT
BRANCH   1   9
ATOM      7  C   UNL     1      48.930   6.589  18.301  0.00  0.00    +0.000 C 
ATOM      8  N   UNL     1      48.200   6.369  17.081  0.00  0.00    +0.000 N 
ATOM      9  C   UNL     1      48.841   6.374  15.861  0.00  0.00    +0.000 C 
ATOM     10  O   UNL     1      50.052   6.526  15.737  0.00  0.00    +0.000 OA
ATOM     11  H   UNL     1      47.236   6.065  17.143  0.00  0.00    +0.000 HD
ENDBRANCH   1   9
BRANCH   4  12
ATOM     12  N   UNL     1      45.364   5.930  11.357  0.00  0.00    +0.000 N 
ATOM     13  H   UNL     1      45.802   6.343  10.539  0.00  0.00    +0.000 HD
BRANCH  12  14
ATOM     14  C   UNL     1      44.589   4.721  11.052  0.00  0.00    +0.000 C 
ATOM     15  C   UNL     1      43.123   5.124  10.863  0.00  0.00    +0.000 C 
BRANCH  14  16
ATOM     16  C   UNL     1      45.116   3.993   9.826  0.00  0.00    +0.000 A 
ATOM     17  C   UNL     1      44.984   2.594   9.736  0.00  0.00    +0.000 A 
ATOM     18  C   UNL     1      45.484   1.896   8.636  0.00  0.00    +0.000 A 
ATOM     19  C   UNL     1      46.104   2.586   7.598  0.00  0.00    +0.000 A 
ATOM     20  C   UNL     1      46.219   3.975   7.656  0.00  0.00    +0.000 A 
ATOM     21  C   UNL     1      45.730   4.673   8.763  0.00  0.00    +0.000 A 
ENDBRANCH  14  16
ENDBRANCH  12  14
ENDBRANCH   4  12
TORSDOF 4
ENDMDL
MODEL 5
REMARK VINA RESULT:    -6.118      2.117      3.521
REMARK INTER + INTRA:          -7.790
REMARK INTER:                  -7.177
REMARK INTRA:                  -0.613
REMARK UNBOUND:                -0.242
REMARK  Name = 
REMARK  6 active torsions:
REMARK  status: ('A' for Active; 'I' for Inactive)
REMARK    1  A    between atoms: C_1  and  N_2
REMARK    2  A    between atoms: C_3  and  C_5
REMARK    3  A    between atoms: C_8  and  N_9
REMARK    4  A    between atoms: N_9  and  C_10
REMARK    5  A    between atoms: C_10  and  C_11
REMARK    6  A    between atoms: C_10  and  C_12
REMARK                            x       y       z     vdW  Elec       q    Type
REMARK                         _______ _______ _______ _____ _____    ______ ____
ROOT
ATOM      1  C   UNL     1      48.041   5.161  16.094  0.00  0.00    +0.000 A 
ATOM      2  C   UNL     1      47.157   4.280  15.468  0.00  0.00    +0.000 A 
ATOM      3  C   UNL     1      46.721   4.533  14.164  0.00  0.00    +0.000 A 
ATOM      4  C   UNL     1      47.127   5.673  13.467  0.00  0.00    +0.000 A 
ATOM      5  C   UNL     1      48.068   6.510  14.080  0.00  0.00    +0.000 A 
ATOM      6  C   UNL     1      48.504   6.275  15.389  0.00  0.00    +0.000 A 
ENDROOT
BRANCH   1   9
ATOM      7  C   UNL     1      50.303   4.955  19.122  0.00  0.00    +0.000 C 
ATOM      8  N   UNL     1      49.794   5.145  17.789  0.00  0.00    +0.000 N 
ATOM      9  C   UNL     1      48.453   4.981  17.514  0.00  0.00    +0.000 C 
ATOM     10  O   UNL     1      47.618   4.706  18.369  0.00  0.00    +0.000 OA
ATOM     11  H   UNL     1      50.407   5.543  17.090  0.00  0.00    +0.000 HD
ENDBRANCH   1   9
BRANCH   4  12
ATOM     12  N   UNL     1      46.702   5.996  12.177  0.00  0.00    +0.000 N 
ATOM     13  H   UNL     1      47.350   5.643  11.479  0.00  0.00    +0.000 HD
BRANCH  12  14
ATOM     14  C   UNL     1      45.294   5.836  11.795  0.00  0.00    +0.000 C 
ATOM     15  C   UNL     1      44.747   7.209  11.392  0.00  0.00    +0.000 C 
BRANCH  14  16
ATOM     16  C   UNL     1      45.113   4.827  10.672  0.00  0.00    +0.000 A 
ATOM     17  C   UNL     1      44.508   3.585  10.944  0.00  0.00    +0.000 A 
ATOM     18  C   UNL     1      44.355   2.627   9.940  0.00  0.00    +0.000 A 
ATOM     19  C   UNL     1      44.783   2.903   8.645  0.00  0.00    +0.000 A 
ATOM     20  C   UNL     1      45.359   4.139   8.351  0.00  0.00    +0.000 A 
ATOM     21  C   UNL     1      45.524   5.093   9.358  0.00  0.00    +0.000 A 
ENDBRANCH  14  16
ENDBRANCH  12  14
ENDBRANCH   4  12
TORSDOF 4
ENDMDL
MODEL 6
REMARK VINA RESULT:    -5.968      3.275      6.547
REMARK INTER + INTRA:          -7.605
REMARK INTER:                  -6.885
REMARK INTRA:                  -0.720
REMARK UNBOUND:                -0.242
REMARK  Name = 
REMARK  6 active torsions:
REMARK  status: ('A' for Active; 'I' for Inactive)
REMARK    1  A    between atoms: C_1  and  N_2
REMARK    2  A    between atoms: C_3  and  C_5
REMARK    3  A    between atoms: C_8  and  N_9
REMARK    4  A    between atoms: N_9  and  C_10
REMARK    5  A    between atoms: C_10  and  C_11
REMARK    6  A    between atoms: C_10  and  C_12
REMARK                            x       y       z     vdW  Elec       q    Type
REMARK                         _______ _______ _______ _____ _____    ______ ____
ROOT
ATOM      1  C   UNL     1      45.235   3.351   9.755  0.00  0.00    +0.000 A 
ATOM      2  C   UNL     1      44.802   3.202  11.074  0.00  0.00    +0.000 A 
ATOM      3  C   UNL     1      44.699   4.318  11.909  0.00  0.00    +0.000 A 
ATOM      4  C   UNL     1      45.048   5.595  11.466  0.00  0.00    +0.000 A 
ATOM      5  C   UNL     1      45.413   5.741  10.121  0.00  0.00    +0.000 A 
ATOM      6  C   UNL     1      45.532   4.631   9.277  0.00  0.00    +0.000 A 
ENDROOT
BRANCH   1   9
ATOM      7  C   UNL     1      46.862   1.142   7.147  0.00  0.00    +0.000 C 
ATOM      8  N   UNL     1      46.580   2.207   8.073  0.00  0.00    +0.000 N 
ATOM      9  C   UNL     1      45.451   2.179   8.863  0.00  0.00    +0.000 C 
ATOM     10  O   UNL     1      44.649   1.250   8.858  0.00  0.00    +0.000 OA
ATOM     11  H   UNL     1      47.296   2.903   8.241  0.00  0.00    +0.000 HD
ENDBRANCH   1   9
BRANCH   4  12
ATOM     12  N   UNL     1      44.997   6.742  12.260  0.00  0.00    +0.000 N 
ATOM     13  H   UNL     1      45.006   6.503  13.248  0.00  0.00    +0.000 HD
BRANCH  12  14
ATOM     14  C   UNL     1      45.827   7.909  11.938  0.00  0.00    +0.000 C 
ATOM     15  C   UNL     1      45.149   9.155  12.515  0.00  0.00    +0.000 C 
BRANCH  14  16
ATOM     16  C   UNL     1      47.247   7.769  12.465  0.00  0.00    +0.000 A 
ATOM     17  C   UNL     1      48.323   8.267  11.706  0.00  0.00    +0.000 A 
ATOM     18  C   UNL     1      49.639   8.127  12.150  0.00  0.00    +0.000 A 
ATOM     19  C   UNL     1      49.899   7.508  13.369  0.00  0.00    +0.000 A 
ATOM     20  C   UNL     1      48.843   7.034  14.148  0.00  0.00    +0.000 A 
ATOM     21  C   UNL     1      47.527   7.162  13.698  0.00  0.00    +0.000 A 
ENDBRANCH  14  16
ENDBRANCH  12  14
ENDBRANCH   4  12
TORSDOF 4
ENDMDL
MODEL 7
REMARK VINA RESULT:    -5.849      2.629      7.699
REMARK INTER + INTRA:          -7.459
REMARK INTER:                  -6.811
REMARK INTRA:                  -0.649
REMARK UNBOUND:                -0.242
REMARK  Name = 
REMARK  6 active torsions:
REMARK  status: ('A' for Active; 'I' for Inactive)
REMARK    1  A    between atoms: C_1  and  N_2
REMARK    2  A    between atoms: C_3  and  C_5
REMARK    3  A    between atoms: C_8  and  N_9
REMARK    4  A    between atoms: N_9  and  C_10
REMARK    5  A    between atoms: C_10  and  C_11
REMARK    6  A    between atoms: C_10  and  C_12
REMARK                            x       y       z     vdW  Elec       q    Type
REMARK                         _______ _______ _______ _____ _____    ______ ____
ROOT
ATOM      1  C   UNL     1      45.284   4.769  11.309  0.00  0.00    +0.000 A 
ATOM      2  C   UNL     1      45.297   4.348  12.641  0.00  0.00    +0.000 A 
ATOM      3  C   UNL     1      45.973   5.098  13.607  0.00  0.00    +0.000 A 
ATOM      4  C   UNL     1      46.671   6.260  13.272  0.00  0.00    +0.000 A 
ATOM      5  C   UNL     1      46.591   6.709  11.948  0.00  0.00    +0.000 A 
ATOM      6  C   UNL     1      45.928   5.962  10.967  0.00  0.00    +0.000 A 
ENDROOT
BRANCH   1   9
ATOM      7  C   UNL     1      44.571   1.779   9.101  0.00  0.00    +0.000 C 
ATOM      8  N   UNL     1      45.084   2.644  10.131  0.00  0.00    +0.000 N 
ATOM      9  C   UNL     1      44.659   3.951  10.234  0.00  0.00    +0.000 C 
ATOM     10  O   UNL     1      43.809   4.443   9.499  0.00  0.00    +0.000 OA
ATOM     11  H   UNL     1      45.649   2.238  10.866  0.00  0.00    +0.000 HD
ENDBRANCH   1   9
BRANCH   4  12
ATOM     12  N   UNL     1      47.391   7.033  14.185  0.00  0.00    +0.000 N 
ATOM     13  H   UNL     1      46.777   7.437  14.887  0.00  0.00    +0.000 HD
BRANCH  12  14
ATOM     14  C   UNL     1      48.660   6.545  14.737  0.00  0.00    +0.000 C 
ATOM     15  C   UNL     1      49.731   7.614  14.498  0.00  0.00    +0.000 C 
BRANCH  14  16
ATOM     16  C   UNL     1      48.552   6.203  16.214  0.00  0.00    +0.000 A 
ATOM     17  C   UNL     1      48.860   7.181  17.179  0.00  0.00    +0.000 A 
ATOM     18  C   UNL     1      48.798   6.887  18.543  0.00  0.00    +0.000 A 
ATOM     19  C   UNL     1      48.406   5.620  18.964  0.00  0.00    +0.000 A 
ATOM     20  C   UNL     1      48.070   4.647  18.022  0.00  0.00    +0.000 A 
ATOM     21  C   UNL     1      48.145   4.936  16.658  0.00  0.00    +0.000 A 
ENDBRANCH  14  16
ENDBRANCH  12  14
ENDBRANCH   4  12
TORSDOF 4
ENDMDL
MODEL 8
REMARK VINA RESULT:    -5.643      3.609      4.720
REMARK INTER + INTRA:          -7.205
REMARK INTER:                  -6.706
REMARK INTRA:                  -0.498
REMARK UNBOUND:                -0.242
REMARK  Name = 
REMARK  6 active torsions:
REMARK  status: ('A' for Active; 'I' for Inactive)
REMARK    1  A    between atoms: C_1  and  N_2
REMARK    2  A    between atoms: C_3  and  C_5
REMARK    3  A    between atoms: C_8  and  N_9
REMARK    4  A    between atoms: N_9  and  C_10
REMARK    5  A    between atoms: C_10  and  C_11
REMARK    6  A    between atoms: C_10  and  C_12
REMARK                            x       y       z     vdW  Elec       q    Type
REMARK                         _______ _______ _______ _____ _____    ______ ____
ROOT
ATOM      1  C   UNL     1      48.079   8.626  12.797  0.00  0.00    +0.000 A 
ATOM      2  C   UNL     1      46.977   9.269  12.229  0.00  0.00    +0.000 A 
ATOM      3  C   UNL     1      45.749   8.607  12.138  0.00  0.00    +0.000 A 
ATOM      4  C   UNL     1      45.595   7.291  12.578  0.00  0.00    +0.000 A 
ATOM      5  C   UNL     1      46.688   6.684  13.210  0.00  0.00    +0.000 A 
ATOM      6  C   UNL     1      47.926   7.330  13.298  0.00  0.00    +0.000 A 
ENDROOT
BRANCH   1   9
ATOM      7  C   UNL     1      51.498   9.724  11.601  0.00  0.00    +0.000 C 
ATOM      8  N   UNL     1      50.168   9.180  11.667  0.00  0.00    +0.000 N 
ATOM      9  C   UNL     1      49.426   9.258  12.826  0.00  0.00    +0.000 C 
ATOM     10  O   UNL     1      49.824   9.817  13.844  0.00  0.00    +0.000 OA
ATOM     11  H   UNL     1      49.730   8.869  10.809  0.00  0.00    +0.000 HD
ENDBRANCH   1   9
BRANCH   4  12
ATOM     12  N   UNL     1      44.405   6.568  12.485  0.00  0.00    +0.000 N 
ATOM     13  H   UNL     1      43.796   6.954  11.769  0.00  0.00    +0.000 HD
BRANCH  12  14
ATOM     14  C   UNL     1      44.423   5.100  12.500  0.00  0.00    +0.000 C 
ATOM     15  C   UNL     1      43.098   4.609  13.091  0.00  0.00    +0.000 C 
BRANCH  14  16
ATOM     16  C   UNL     1      44.651   4.513  11.116  0.00  0.00    +0.000 A 
ATOM     17  C   UNL     1      44.213   3.204  10.834  0.00  0.00    +0.000 A 
ATOM     18  C   UNL     1      44.436   2.628   9.582  0.00  0.00    +0.000 A 
ATOM     19  C   UNL     1      45.078   3.357   8.586  0.00  0.00    +0.000 A 
ATOM     20  C   UNL     1      45.493   4.665   8.838  0.00  0.00    +0.000 A 
ATOM     21  C   UNL     1      45.283   5.237  10.095  0.00  0.00    +0.000 A 
ENDBRANCH  14  16
ENDBRANCH  12  14
ENDBRANCH   4  12
TORSDOF 4
ENDMDL
MODEL 9
REMARK VINA RESULT:    -5.324      3.804      7.063
REMARK INTER + INTRA:          -6.811
REMARK INTER:                  -6.157
REMARK INTRA:                  -0.654
REMARK UNBOUND:                -0.242
REMARK  Name = 
REMARK  6 active torsions:
REMARK  status: ('A' for Active; 'I' for Inactive)
REMARK    1  A    between atoms: C_1  and  N_2
REMARK    2  A    between atoms: C_3  and  C_5
REMARK    3  A    between atoms: C_8  and  N_9
REMARK    4  A    between atoms: N_9  and  C_10
REMARK    5  A    between atoms: C_10  and  C_11
REMARK    6  A    between atoms: C_10  and  C_12
REMARK                            x       y       z     vdW  Elec       q    Type
REMARK                         _______ _______ _______ _____ _____    ______ ____
ROOT
ATOM      1  C   UNL     1      44.776   4.324  11.300  0.00  0.00    +0.000 A 
ATOM      2  C   UNL     1      44.587   4.501  12.673  0.00  0.00    +0.000 A 
ATOM      3  C   UNL     1      45.095   5.637  13.310  0.00  0.00    +0.000 A 
ATOM      4  C   UNL     1      45.821   6.603  12.610  0.00  0.00    +0.000 A 
ATOM      5  C   UNL     1      45.941   6.449  11.223  0.00  0.00    +0.000 A 
ATOM      6  C   UNL     1      45.448   5.311  10.573  0.00  0.00    +0.000 A 
ENDROOT
BRANCH   1   9
ATOM      7  C   UNL     1      44.760   1.501   8.780  0.00  0.00    +0.000 C 
ATOM      8  N   UNL     1      45.117   2.664   9.547  0.00  0.00    +0.000 N 
ATOM      9  C   UNL     1      44.336   3.085  10.602  0.00  0.00    +0.000 C 
ATOM     10  O   UNL     1      43.329   2.491  10.973  0.00  0.00    +0.000 OA
ATOM     11  H   UNL     1      46.026   3.083   9.394  0.00  0.00    +0.000 HD
ENDBRANCH   1   9
BRANCH   4  12
ATOM     12  N   UNL     1      46.379   7.740  13.195  0.00  0.00    +0.000 N 
ATOM     13  H   UNL     1      46.675   7.554  14.149  0.00  0.00    +0.000 HD
BRANCH  12  14
ATOM     14  C   UNL     1      47.328   8.574  12.446  0.00  0.00    +0.000 C 
ATOM     15  C   UNL     1      46.728   9.976  12.304  0.00  0.00    +0.000 C 
BRANCH  14  16
ATOM     16  C   UNL     1      48.693   8.631  13.112  0.00  0.00    +0.000 A 
ATOM     17  C   UNL     1      49.077   7.610  14.003  0.00  0.00    +0.000 A 
ATOM     18  C   UNL     1      50.313   7.652  14.651  0.00  0.00    +0.000 A 
ATOM     19  C   UNL     1      51.193   8.700  14.403  0.00  0.00    +0.000 A 
ATOM     20  C   UNL     1      50.842   9.706  13.501  0.00  0.00    +0.000 A 
ATOM     21  C   UNL     1      49.600   9.672  12.863  0.00  0.00    +0.000 A 
ENDBRANCH  14  16
ENDBRANCH  12  14
ENDBRANCH   4  12
TORSDOF 4
ENDMDL
