MODEL 1
REMARK VINA RESULT:    -8.718      0.000      0.000
REMARK INTER + INTRA:         -11.080
REMARK INTER:                 -10.757
REMARK INTRA:                  -0.323
REMARK UNBOUND:                -0.323
REMARK  Name = 
REMARK  6 active torsions:
REMARK  status: ('A' for Active; 'I' for Inactive)
REMARK    1  A    between atoms: C_1  and  C_2
REMARK    2  A    between atoms: C_4  and  C_5
REMARK    3  A    between atoms: C_7  and  C_8
REMARK    4  A    between atoms: C_8  and  N_9
REMARK    5  A    between atoms: N_9  and  C_10
REMARK    6  A    between atoms: C_13  and  C_14
REMARK                            x       y       z     vdW  Elec       q    Type
REMARK                         _______ _______ _______ _____ _____    ______ ____
ROOT
ATOM      1  N   UNL     1      43.721   3.761  10.544  0.00  0.00    +0.000 N 
ATOM      2  H   UNL     1      42.784   3.640  10.158  0.00  0.00    +0.000 HD
ENDROOT
BRANCH   1   3
ATOM      3  C   UNL     1      44.661   3.456   9.528  0.00  0.00    +0.000 A 
ATOM      4  C   UNL     1      45.080   2.125   9.397  0.00  0.00    +0.000 A 
ATOM      5  C   UNL     1      45.958   1.749   8.383  0.00  0.00    +0.000 A 
ATOM      6  C   UNL     1      46.378   2.722   7.485  0.00  0.00    +0.000 A 
ATOM      7  N   UNL     1      45.984   4.024   7.547  0.00  0.00    +0.000 NA
ATOM      8  C   UNL     1      45.145   4.350   8.569  0.00  0.00    +0.000 A 
BRANCH   6   9
ATOM      9  C   UNL     1      47.310   2.334   6.377  0.00  0.00    +0.000 C 
ATOM     10  N   UNL     1      47.291   3.135   5.269  0.00  0.00    +0.000 N 
ATOM     11  O   UNL     1      48.048   1.358   6.444  0.00  0.00    +0.000 OA
ATOM     12  H   UNL     1      46.671   3.940   5.245  0.00  0.00    +0.000 HD
ATOM     13  H   UNL     1      47.900   2.928   4.491  0.00  0.00    +0.000 HD
ENDBRANCH   6   9
ENDBRANCH   1   3
BRANCH   1  14
ATOM     14  C   UNL     1      43.846   4.955  11.416  0.00  0.00    +0.000 C 
ATOM     15  C   UNL     1      42.795   6.044  11.302  0.00  0.00    +0.000 C 
ATOM     16  C   UNL     1      42.794   5.186  12.515  0.00  0.00    +0.000 C 
BRANCH  14  23
ATOM     17  C   UNL     1      47.059   4.168  15.200  0.00  0.00    +0.000 C 
ATOM     18  C   UNL     1      46.793   4.831  13.878  0.00  0.00    +0.000 A 
ATOM     19  C   UNL     1      47.600   5.866  13.413  0.00  0.00    +0.000 A 
ATOM     20  C   UNL     1      47.276   6.554  12.234  0.00  0.00    +0.000 A 
ATOM     21  C   UNL     1      48.142   7.677  11.756  0.00  0.00    +0.000 C 
ATOM     22  C   UNL     1      46.105   6.208  11.532  0.00  0.00    +0.000 A 
ATOM     23  C   UNL     1      45.250   5.194  11.990  0.00  0.00    +0.000 A 
ATOM     24  C   UNL     1      45.658   4.478  13.137  0.00  0.00    +0.000 A 
ENDBRANCH  14  23
ENDBRANCH   1  14
TORSDOF 4
ENDMDL
MODEL 2
REMARK VINA RESULT:    -7.905      0.959      2.272
REMARK INTER + INTRA:         -10.077
REMARK INTER:                  -9.527
REMARK INTRA:                  -0.550
REMARK UNBOUND:                -0.323
REMARK  Name = 
REMARK  6 active torsions:
REMARK  status: ('A' for Active; 'I' for Inactive)
REMARK    1  A    between atoms: C_1  and  C_2
REMARK    2  A    between atoms: C_4  and  C_5
REMARK    3  A    between atoms: C_7  and  C_8
REMARK    4  A    between atoms: C_8  and  N_9
REMARK    5  A    between atoms: N_9  and  C_10
REMARK    6  A    between atoms: C_13  and  C_14
REMARK                            x       y       z     vdW  Elec       q    Type
REMARK                         _______ _______ _______ _____ _____    ______ ____
ROOT
ATOM      1  N   UNL     1      43.778   3.667  10.898  0.00  0.00    +0.000 N 
ATOM      2  H   UNL     1      42.828   3.334  10.727  0.00  0.00    +0.000 HD
ENDROOT
BRANCH   1   3
ATOM      3  C   UNL     1      44.573   3.333   9.773  0.00  0.00    +0.000 A 
ATOM      4  C   UNL     1      45.063   4.379   8.980  0.00  0.00    +0.000 A 
ATOM      5  C   UNL     1      45.896   4.122   7.893  0.00  0.00    +0.000 A 
ATOM      6  C   UNL     1      46.257   2.804   7.642  0.00  0.00    +0.000 A 
ATOM      7  N   UNL     1      45.834   1.751   8.393  0.00  0.00    +0.000 NA
ATOM      8  C   UNL     1      45.001   2.049   9.429  0.00  0.00    +0.000 A 
BRANCH   6   9
ATOM      9  C   UNL     1      47.166   2.508   6.487  0.00  0.00    +0.000 C 
ATOM     10  N   UNL     1      48.236   1.701   6.758  0.00  0.00    +0.000 N 
ATOM     11  O   UNL     1      46.977   2.958   5.363  0.00  0.00    +0.000 OA
ATOM     12  H   UNL     1      48.364   1.339   7.699  0.00  0.00    +0.000 HD
ATOM     13  H   UNL     1      48.882   1.462   6.021  0.00  0.00    +0.000 HD
ENDBRANCH   6   9
ENDBRANCH   1   3
BRANCH   1  14
ATOM     14  C   UNL     1      43.824   5.003  11.542  0.00  0.00    +0.000 C 
ATOM     15  C   UNL     1      42.896   6.086  11.021  0.00  0.00    +0.000 C 
ATOM     16  C   UNL     1      42.604   5.483  12.348  0.00  0.00    +0.000 C 
BRANCH  14  23
ATOM     17  C   UNL     1      48.207   7.456  11.710  0.00  0.00    +0.000 C 
ATOM     18  C   UNL     1      47.274   6.480  12.367  0.00  0.00    +0.000 A 
ATOM     19  C   UNL     1      47.708   5.642  13.390  0.00  0.00    +0.000 A 
ATOM     20  C   UNL     1      46.861   4.656  13.919  0.00  0.00    +0.000 A 
ATOM     21  C   UNL     1      47.347   3.750  15.006  0.00  0.00    +0.000 C 
ATOM     22  C   UNL     1      45.568   4.498  13.384  0.00  0.00    +0.000 A 
ATOM     23  C   UNL     1      45.109   5.300  12.328  0.00  0.00    +0.000 A 
ATOM     24  C   UNL     1      45.969   6.329  11.882  0.00  0.00    +0.000 A 
ENDBRANCH  14  23
ENDBRANCH   1  14
TORSDOF 4
ENDMDL
MODEL 3
REMARK VINA RESULT:    -7.707      1.603      2.538
REMARK INTER + INTRA:          -9.832
REMARK INTER:                  -9.917
REMARK INTRA:                   0.085
REMARK UNBOUND:                -0.323
REMARK  Name = 
REMARK  6 active torsions:
REMARK  status: ('A' for Active; 'I' for Inactive)
REMARK    1  A    between atoms: C_1  and  C_2
REMARK    2  A    between atoms: C_4  and  C_5
REMARK    3  A    between atoms: C_7  and  C_8
REMARK    4  A    between atoms: C_8  and  N_9
REMARK    5  A    between atoms: N_9  and  C_10
REMARK    6  A    between atoms: C_13  and  C_14
REMARK                            x       y       z     vdW  Elec       q    Type
REMARK                         _______ _______ _______ _____ _____    ______ ____
ROOT
ATOM      1  N   UNL     1      43.871   4.918  10.095  0.00  0.00    +0.000 N 
ATOM      2  H   UNL     1      43.768   5.784   9.563  0.00  0.00    +0.000 HD
ENDROOT
BRANCH   1   3
ATOM      3  C   UNL     1      44.655   4.019   9.331  0.00  0.00    +0.000 A 
ATOM      4  C   UNL     1      45.647   4.555   8.499  0.00  0.00    +0.000 A 
ATOM      5  C   UNL     1      46.490   3.723   7.764  0.00  0.00    +0.000 A 
ATOM      6  C   UNL     1      46.343   2.349   7.910  0.00  0.00    +0.000 A 
ATOM      7  N   UNL     1      45.416   1.772   8.723  0.00  0.00    +0.000 NA
ATOM      8  C   UNL     1      44.599   2.625   9.401  0.00  0.00    +0.000 A 
BRANCH   6   9
ATOM      9  C   UNL     1      47.251   1.437   7.142  0.00  0.00    +0.000 C 
ATOM     10  N   UNL     1      48.222   2.045   6.396  0.00  0.00    +0.000 N 
ATOM     11  O   UNL     1      47.140   0.216   7.167  0.00  0.00    +0.000 OA
ATOM     12  H   UNL     1      48.292   3.059   6.398  0.00  0.00    +0.000 HD
ATOM     13  H   UNL     1      48.867   1.484   5.860  0.00  0.00    +0.000 HD
ENDBRANCH   6   9
ENDBRANCH   1   3
BRANCH   1  14
ATOM     14  C   UNL     1      44.096   5.144  11.544  0.00  0.00    +0.000 C 
ATOM     15  C   UNL     1      43.056   4.629  12.523  0.00  0.00    +0.000 C 
ATOM     16  C   UNL     1      44.367   3.932  12.453  0.00  0.00    +0.000 C 
BRANCH  14  23
ATOM     17  C   UNL     1      44.919  10.091  11.872  0.00  0.00    +0.000 C 
ATOM     18  C   UNL     1      45.477   8.701  11.990  0.00  0.00    +0.000 A 
ATOM     19  C   UNL     1      46.851   8.475  12.022  0.00  0.00    +0.000 A 
ATOM     20  C   UNL     1      47.363   7.169  12.016  0.00  0.00    +0.000 A 
ATOM     21  C   UNL     1      48.841   6.940  12.033  0.00  0.00    +0.000 C 
ATOM     22  C   UNL     1      46.473   6.079  11.949  0.00  0.00    +0.000 A 
ATOM     23  C   UNL     1      45.085   6.270  11.878  0.00  0.00    +0.000 A 
ATOM     24  C   UNL     1      44.614   7.599  11.966  0.00  0.00    +0.000 A 
ENDBRANCH  14  23
ENDBRANCH   1  14
TORSDOF 4
ENDMDL
MODEL 4
REMARK VINA RESULT:    -6.564      3.985      6.817
REMARK INTER + INTRA:          -8.422
REMARK INTER:                  -7.889
REMARK INTRA:                  -0.533
REMARK UNBOUND:                -0.323
REMARK  Name = 
REMARK  6 active torsions:
REMARK  status: ('A' for Active; 'I' for Inactive)
REMARK    1  A    between atoms: C_1  and  C_2
REMARK    2  A    between atoms: C_4  and  C_5
REMARK    3  A    between atoms: C_7  and  C_8
REMARK    4  A    between atoms: C_8  and  N_9
REMARK    5  A    between atoms: N_9  and  C_10
REMARK    6  A    between atoms: C_13  and  C_14
REMARK                            x       y       z     vdW  Elec       q    Type
REMARK                         _______ _______ _______ _____ _____    ______ ____
ROOT
ATOM      1  N   UNL     1      47.218   6.349  12.443  0.00  0.00    +0.000 N 
ATOM      2  H   UNL     1      47.868   7.116  12.265  0.00  0.00    +0.000 HD
ENDROOT
BRANCH   1   3
ATOM      3  C   UNL     1      47.468   5.851  13.747  0.00  0.00    +0.000 A 
ATOM      4  C   UNL     1      46.843   4.657  14.126  0.00  0.00    +0.000 A 
ATOM      5  C   UNL     1      47.091   4.085  15.372  0.00  0.00    +0.000 A 
ATOM      6  C   UNL     1      48.002   4.713  16.211  0.00  0.00    +0.000 A 
ATOM      7  N   UNL     1      48.659   5.860  15.887  0.00  0.00    +0.000 NA
ATOM      8  C   UNL     1      48.366   6.395  14.668  0.00  0.00    +0.000 A 
BRANCH   6   9
ATOM      9  C   UNL     1      48.295   4.105  17.550  0.00  0.00    +0.000 C 
ATOM     10  N   UNL     1      47.329   3.285  18.061  0.00  0.00    +0.000 N 
ATOM     11  O   UNL     1      49.333   4.324  18.164  0.00  0.00    +0.000 OA
ATOM     12  H   UNL     1      46.480   3.118  17.526  0.00  0.00    +0.000 HD
ATOM     13  H   UNL     1      47.470   2.842  18.956  0.00  0.00    +0.000 HD
ENDBRANCH   6   9
ENDBRANCH   1   3
BRANCH   1  14
ATOM     14  C   UNL     1      45.848   6.610  11.936  0.00  0.00    +0.000 C 
ATOM     15  C   UNL     1      44.987   7.619  12.674  0.00  0.00    +0.000 C 
ATOM     16  C   UNL     1      45.526   7.992  11.341  0.00  0.00    +0.000 C 
BRANCH  14  23
ATOM     17  C   UNL     1      43.241   2.326  11.616  0.00  0.00    +0.000 C 
ATOM     18  C   UNL     1      44.028   3.388  10.902  0.00  0.00    +0.000 A 
ATOM     19  C   UNL     1      44.509   3.187   9.612  0.00  0.00    +0.000 A 
ATOM     20  C   UNL     1      45.338   4.139   8.999  0.00  0.00    +0.000 A 
ATOM     21  C   UNL     1      45.862   3.903   7.617  0.00  0.00    +0.000 C 
ATOM     22  C   UNL     1      45.709   5.295   9.713  0.00  0.00    +0.000 A 
ATOM     23  C   UNL     1      45.273   5.513  11.029  0.00  0.00    +0.000 A 
ATOM     24  C   UNL     1      44.377   4.566  11.575  0.00  0.00    +0.000 A 
ENDBRANCH  14  23
ENDBRANCH   1  14
TORSDOF 4
ENDMDL
MODEL 5
REMARK VINA RESULT:    -6.132      3.395      5.325
REMARK INTER + INTRA:          -7.890
REMARK INTER:                  -7.457
REMARK INTRA:                  -0.432
REMARK UNBOUND:                -0.323
REMARK  Name = 
REMARK  6 active torsions:
REMARK  status: ('A' for Active; 'I' for Inactive)
REMARK    1  A    between atoms: C_1  and  C_2
REMARK    2  A    between atoms: C_4  and  C_5
REMARK    3  A    between atoms: C_7  and  C_8
REMARK    4  A    between atoms: C_8  and  N_9
REMARK    5  A    between atoms: N_9  and  C_10
REMARK    6  A    between atoms: C_13  and  C_14
REMARK                            x       y       z     vdW  Elec       q    Type
REMARK                         _______ _______ _______ _____ _____    ______ ____
ROOT
ATOM      1  N   UNL     1      46.336   7.539  13.251  0.00  0.00    +0.000 N 
ATOM      2  H   UNL     1      45.899   8.343  12.799  0.00  0.00    +0.000 HD
ENDROOT
BRANCH   1   3
ATOM      3  C   UNL     1      45.692   6.365  12.787  0.00  0.00    +0.000 A 
ATOM      4  C   UNL     1      45.139   6.383  11.501  0.00  0.00    +0.000 A 
ATOM      5  C   UNL     1      44.542   5.245  10.963  0.00  0.00    +0.000 A 
ATOM      6  C   UNL     1      44.544   4.083  11.725  0.00  0.00    +0.000 A 
ATOM      7  N   UNL     1      45.089   3.999  12.969  0.00  0.00    +0.000 NA
ATOM      8  C   UNL     1      45.639   5.143  13.462  0.00  0.00    +0.000 A 
BRANCH   6   9
ATOM      9  C   UNL     1      43.922   2.842  11.158  0.00  0.00    +0.000 C 
ATOM     10  N   UNL     1      44.496   2.348  10.020  0.00  0.00    +0.000 N 
ATOM     11  O   UNL     1      42.952   2.294  11.671  0.00  0.00    +0.000 OA
ATOM     12  H   UNL     1      45.302   2.822   9.621  0.00  0.00    +0.000 HD
ATOM     13  H   UNL     1      44.125   1.513   9.594  0.00  0.00    +0.000 HD
ENDBRANCH   6   9
ENDBRANCH   1   3
BRANCH   1  14
ATOM     14  C   UNL     1      47.812   7.654  13.354  0.00  0.00    +0.000 C 
ATOM     15  C   UNL     1      48.655   7.183  12.182  0.00  0.00    +0.000 C 
ATOM     16  C   UNL     1      48.547   8.644  12.433  0.00  0.00    +0.000 C 
BRANCH  14  23
ATOM     17  C   UNL     1      49.633   5.316  17.413  0.00  0.00    +0.000 C 
ATOM     18  C   UNL     1      49.205   6.609  16.779  0.00  0.00    +0.000 A 
ATOM     19  C   UNL     1      48.964   7.745  17.546  0.00  0.00    +0.000 A 
ATOM     20  C   UNL     1      48.455   8.913  16.959  0.00  0.00    +0.000 A 
ATOM     21  C   UNL     1      48.184  10.121  17.799  0.00  0.00    +0.000 C 
ATOM     22  C   UNL     1      48.159   8.921  15.582  0.00  0.00    +0.000 A 
ATOM     23  C   UNL     1      48.354   7.783  14.784  0.00  0.00    +0.000 A 
ATOM     24  C   UNL     1      48.942   6.657  15.404  0.00  0.00    +0.000 A 
ENDBRANCH  14  23
ENDBRANCH   1  14
TORSDOF 4
ENDMDL
MODEL 6
REMARK VINA RESULT:    -5.885      3.510      5.457
REMARK INTER + INTRA:          -7.584
REMARK INTER:                  -7.261
REMARK INTRA:                  -0.324
REMARK UNBOUND:                -0.323
REMARK  Name = 
REMARK  6 active torsions:
REMARK  status: ('A' for Active; 'I' for Inactive)
REMARK    1  A    between atoms: C_1  and  C_2
REMARK    2  A    between atoms: C_4  and  C_5
REMARK    3  A    between atoms: C_7  and  C_8
REMARK    4  A    between atoms: C_8  and  N_9
REMARK    5  A    between atoms: N_9  and  C_10
REMARK    6  A    between atoms: C_13  and  C_14
REMARK                            x       y       z     vdW  Elec       q    Type
REMARK                         _______ _______ _______ _____ _____    ______ ____
ROOT
ATOM      1  N   UNL     1      46.226   7.573  13.219  0.00  0.00    +0.000 N 
ATOM      2  H   UNL     1      45.655   8.367  12.924  0.00  0.00    +0.000 HD
ENDROOT
BRANCH   1   3
ATOM      3  C   UNL     1      45.602   6.385  12.764  0.00  0.00    +0.000 A 
ATOM      4  C   UNL     1      44.999   6.402  11.499  0.00  0.00    +0.000 A 
ATOM      5  C   UNL     1      44.418   5.252  10.969  0.00  0.00    +0.000 A 
ATOM      6  C   UNL     1      44.487   4.081  11.714  0.00  0.00    +0.000 A 
ATOM      7  N   UNL     1      45.082   3.998  12.935  0.00  0.00    +0.000 NA
ATOM      8  C   UNL     1      45.614   5.153  13.423  0.00  0.00    +0.000 A 
BRANCH   6   9
ATOM      9  C   UNL     1      43.883   2.828  11.154  0.00  0.00    +0.000 C 
ATOM     10  N   UNL     1      44.474   2.329  10.027  0.00  0.00    +0.000 N 
ATOM     11  O   UNL     1      42.914   2.275  11.662  0.00  0.00    +0.000 OA
ATOM     12  H   UNL     1      45.279   2.806   9.631  0.00  0.00    +0.000 HD
ATOM     13  H   UNL     1      44.115   1.485   9.605  0.00  0.00    +0.000 HD
ENDBRANCH   6   9
ENDBRANCH   1   3
BRANCH   1  14
ATOM     14  C   UNL     1      47.683   7.815  13.080  0.00  0.00    +0.000 C 
ATOM     15  C   UNL     1      48.354   7.441  11.771  0.00  0.00    +0.000 C 
ATOM     16  C   UNL     1      48.169   8.882  12.083  0.00  0.00    +0.000 C 
BRANCH  14  23
ATOM     17  C   UNL     1      48.363  10.479  17.288  0.00  0.00    +0.000 C 
ATOM     18  C   UNL     1      48.790   9.313  16.441  0.00  0.00    +0.000 A 
ATOM     19  C   UNL     1      50.005   8.670  16.657  0.00  0.00    +0.000 A 
ATOM     20  C   UNL     1      50.445   7.658  15.790  0.00  0.00    +0.000 A 
ATOM     21  C   UNL     1      51.762   6.987  16.023  0.00  0.00    +0.000 C 
ATOM     22  C   UNL     1      49.657   7.313  14.674  0.00  0.00    +0.000 A 
ATOM     23  C   UNL     1      48.444   7.965  14.405  0.00  0.00    +0.000 A 
ATOM     24  C   UNL     1      48.006   8.922  15.348  0.00  0.00    +0.000 A 
ENDBRANCH  14  23
ENDBRANCH   1  14
TORSDOF 4
ENDMDL
MODEL 7
REMARK VINA RESULT:    -5.781      2.656      4.869
REMARK INTER + INTRA:          -7.456
REMARK INTER:                  -7.416
REMARK INTRA:                  -0.040
REMARK UNBOUND:                -0.323
REMARK  Name = 
REMARK  6 active torsions:
REMARK  status: ('A' for Active; 'I' for Inactive)
REMARK    1  A    between atoms: C_1  and  C_2
REMARK    2  A    between atoms: C_4  and  C_5
REMARK    3  A    between atoms: C_7  and  C_8
REMARK    4  A    between atoms: C_8  and  N_9
REMARK    5  A    between atoms: N_9  and  C_10
REMARK    6  A    between atoms: C_13  and  C_14
REMARK                            x       y       z     vdW  Elec       q    Type
REMARK                         _______ _______ _______ _____ _____    ______ ____
ROOT
ATOM      1  N   UNL     1      46.417   6.375  13.631  0.00  0.00    +0.000 N 
ATOM      2  H   UNL     1      45.877   7.241  13.610  0.00  0.00    +0.000 HD
ENDROOT
BRANCH   1   3
ATOM      3  C   UNL     1      46.040   5.591  12.512  0.00  0.00    +0.000 A 
ATOM      4  C   UNL     1      45.647   4.266  12.740  0.00  0.00    +0.000 A 
ATOM      5  C   UNL     1      45.210   3.459  11.691  0.00  0.00    +0.000 A 
ATOM      6  C   UNL     1      45.141   4.018  10.421  0.00  0.00    +0.000 A 
ATOM      7  N   UNL     1      45.484   5.305  10.144  0.00  0.00    +0.000 NA
ATOM      8  C   UNL     1      45.928   6.048  11.197  0.00  0.00    +0.000 A 
BRANCH   6   9
ATOM      9  C   UNL     1      44.658   3.172   9.281  0.00  0.00    +0.000 C 
ATOM     10  N   UNL     1      44.461   1.847   9.559  0.00  0.00    +0.000 N 
ATOM     11  O   UNL     1      44.451   3.624   8.161  0.00  0.00    +0.000 OA
ATOM     12  H   UNL     1      44.637   1.502  10.498  0.00  0.00    +0.000 HD
ATOM     13  H   UNL     1      44.132   1.228   8.834  0.00  0.00    +0.000 HD
ENDBRANCH   6   9
ENDBRANCH   1   3
BRANCH   1  14
ATOM     14  C   UNL     1      47.833   6.577  14.025  0.00  0.00    +0.000 C 
ATOM     15  C   UNL     1      48.830   6.974  12.950  0.00  0.00    +0.000 C 
ATOM     16  C   UNL     1      48.430   7.994  13.955  0.00  0.00    +0.000 C 
BRANCH  14  23
ATOM     17  C   UNL     1      51.423   5.856  17.467  0.00  0.00    +0.000 C 
ATOM     18  C   UNL     1      50.030   5.539  17.001  0.00  0.00    +0.000 A 
ATOM     19  C   UNL     1      49.326   4.453  17.514  0.00  0.00    +0.000 A 
ATOM     20  C   UNL     1      48.074   4.098  16.990  0.00  0.00    +0.000 A 
ATOM     21  C   UNL     1      47.335   2.919  17.539  0.00  0.00    +0.000 C 
ATOM     22  C   UNL     1      47.541   4.836  15.914  0.00  0.00    +0.000 A 
ATOM     23  C   UNL     1      48.239   5.913  15.348  0.00  0.00    +0.000 A 
ATOM     24  C   UNL     1      49.459   6.281  15.959  0.00  0.00    +0.000 A 
ENDBRANCH  14  23
ENDBRANCH   1  14
TORSDOF 4
ENDMDL
MODEL 8
REMARK VINA RESULT:    -5.774      3.815      6.159
REMARK INTER + INTRA:          -7.447
REMARK INTER:                  -6.960
REMARK INTRA:                  -0.488
REMARK UNBOUND:                -0.323
REMARK  Name = 
REMARK  6 active torsions:
REMARK  status: ('A' for Active; 'I' for Inactive)
REMARK    1  A    between atoms: C_1  and  C_2
REMARK    2  A    between atoms: C_4  and  C_5
REMARK    3  A    between atoms: C_7  and  C_8
REMARK    4  A    between atoms: C_8  and  N_9
REMARK    5  A    between atoms: N_9  and  C_10
REMARK    6  A    between atoms: C_13  and  C_14
REMARK                            x       y       z     vdW  Elec       q    Type
REMARK                         _______ _______ _______ _____ _____    ______ ____
ROOT
ATOM      1  N   UNL     1      48.571   6.558  12.926  0.00  0.00    +0.000 N 
ATOM      2  H   UNL     1      49.305   5.875  13.115  0.00  0.00    +0.000 HD
ENDROOT
BRANCH   1   3
ATOM      3  C   UNL     1      47.332   5.872  12.862  0.00  0.00    +0.000 A 
ATOM      4  C   UNL     1      46.476   6.159  11.792  0.00  0.00    +0.000 A 
ATOM      5  C   UNL     1      45.269   5.478  11.640  0.00  0.00    +0.000 A 
ATOM      6  C   UNL     1      44.959   4.484  12.559  0.00  0.00    +0.000 A 
ATOM      7  N   UNL     1      45.763   4.144  13.603  0.00  0.00    +0.000 NA
ATOM      8  C   UNL     1      46.920   4.853  13.724  0.00  0.00    +0.000 A 
BRANCH   6   9
ATOM      9  C   UNL     1      43.673   3.728  12.403  0.00  0.00    +0.000 C 
ATOM     10  N   UNL     1      42.673   4.377  11.733  0.00  0.00    +0.000 N 
ATOM     11  O   UNL     1      43.511   2.597  12.848  0.00  0.00    +0.000 OA
ATOM     12  H   UNL     1      42.838   5.312  11.372  0.00  0.00    +0.000 HD
ATOM     13  H   UNL     1      41.785   3.918  11.592  0.00  0.00    +0.000 HD
ENDBRANCH   6   9
ENDBRANCH   1   3
BRANCH   1  14
ATOM     14  C   UNL     1      48.744   7.827  13.676  0.00  0.00    +0.000 C 
ATOM     15  C   UNL     1      48.652   7.787  15.191  0.00  0.00    +0.000 C 
ATOM     16  C   UNL     1      49.985   7.999  14.570  0.00  0.00    +0.000 C 
BRANCH  14  23
ATOM     17  C   UNL     1      45.449  11.010  11.610  0.00  0.00    +0.000 C 
ATOM     18  C   UNL     1      46.888  10.625  11.810  0.00  0.00    +0.000 A 
ATOM     19  C   UNL     1      47.895  11.154  11.007  0.00  0.00    +0.000 A 
ATOM     20  C   UNL     1      49.218  10.703  11.126  0.00  0.00    +0.000 A 
ATOM     21  C   UNL     1      50.288  11.266  10.245  0.00  0.00    +0.000 C 
ATOM     22  C   UNL     1      49.520   9.684  12.051  0.00  0.00    +0.000 A 
ATOM     23  C   UNL     1      48.524   9.103  12.851  0.00  0.00    +0.000 A 
ATOM     24  C   UNL     1      47.222   9.643  12.751  0.00  0.00    +0.000 A 
ENDBRANCH  14  23
ENDBRANCH   1  14
TORSDOF 4
ENDMDL
