MODEL 1
REMARK VINA RESULT:    -7.204      0.000      0.000
REMARK INTER + INTRA:         -10.272
REMARK INTER:                  -9.520
REMARK INTRA:                  -0.752
REMARK UNBOUND:                -0.752
REMARK  Name = 
REMARK  6 active torsions:
REMARK  status: ('A' for Active; 'I' for Inactive)
REMARK    1  A    between atoms: N_1  and  C_2
REMARK    2  A    between atoms: C_2  and  C_3
REMARK    3  A    between atoms: C_3  and  C_4
REMARK    4  A    between atoms: C_7  and  O_8
REMARK    5  A    between atoms: O_8  and  C_9
REMARK    6  A    between atoms: C_9  and  C_10
REMARK                            x       y       z     vdW  Elec       q    Type
REMARK                         _______ _______ _______ _____ _____    ______ ____
ROOT
ATOM      1  C   UNL     1      46.196   2.247   7.881  0.00  0.00    +0.000 A 
ATOM      2  C   UNL     1      46.221   3.641   7.735  0.00  0.00    +0.000 A 
ATOM      3  C   UNL     1      45.325   4.441   8.449  0.00  0.00    +0.000 A 
ATOM      4  C   UNL     1      44.393   3.859   9.308  0.00  0.00    +0.000 A 
ATOM      5  C   UNL     1      44.417   2.478   9.512  0.00  0.00    +0.000 A 
ATOM      6  C   UNL     1      45.304   1.676   8.795  0.00  0.00    +0.000 A 
ENDROOT
BRANCH   1   7
ATOM      7  C   UNL     1      47.119   1.362   7.083  0.00  0.00    +0.000 C 
BRANCH   7   8
ATOM      8  C   UNL     1      48.306   2.141   6.514  0.00  0.00    +0.000 C 
BRANCH   8   9
ATOM      9  N   UNL     1      48.275   2.141   5.051  0.00  0.00    +0.000 NA
ATOM     10  H   UNL     1      49.190   1.863   4.698  0.00  0.00    +0.000 HD
ATOM     11  H   UNL     1      48.118   3.089   4.712  0.00  0.00    +0.000 HD
ENDBRANCH   8   9
ENDBRANCH   7   8
ENDBRANCH   1   7
BRANCH   4  12
ATOM     12  O   UNL     1      43.494   4.717   9.889  0.00  0.00    +0.000 OA
BRANCH  12  13
ATOM     13  C   UNL     1      43.397   4.587  11.311  0.00  0.00    +0.000 C 
BRANCH  13  14
ATOM     14  C   UNL     1      44.620   5.140  12.006  0.00  0.00    +0.000 A 
ATOM     15  C   UNL     1      45.337   4.311  12.885  0.00  0.00    +0.000 A 
ATOM     16  C   UNL     1      46.490   4.776  13.519  0.00  0.00    +0.000 A 
ATOM     17  C   UNL     1      46.941   6.067  13.267  0.00  0.00    +0.000 A 
ATOM     18 CL   UNL     1      48.364   6.641  14.046  0.00  0.00    +0.000 Cl
ATOM     19  C   UNL     1      46.249   6.898  12.386  0.00  0.00    +0.000 A 
ATOM     20  C   UNL     1      45.093   6.434  11.753  0.00  0.00    +0.000 A 
ENDBRANCH  13  14
ENDBRANCH  12  13
ENDBRANCH   4  12
TORSDOF 6
ENDMDL
MODEL 2
REMARK VINA RESULT:    -6.771      3.763      6.506
REMARK INTER + INTRA:          -9.701
REMARK INTER:                  -9.144
REMARK INTRA:                  -0.557
REMARK UNBOUND:                -0.752
REMARK  Name = 
REMARK  6 active torsions:
REMARK  status: ('A' for Active; 'I' for Inactive)
REMARK    1  A    between atoms: N_1  and  C_2
REMARK    2  A    between atoms: C_2  and  C_3
REMARK    3  A    between atoms: C_3  and  C_4
REMARK    4  A    between atoms: C_7  and  O_8
REMARK    5  A    between atoms: O_8  and  C_9
REMARK    6  A    between atoms: C_9  and  C_10
REMARK                            x       y       z     vdW  Elec       q    Type
REMARK                         _______ _______ _______ _____ _____    ______ ____
ROOT
ATOM      1  C   UNL     1      45.489   6.958  12.547  0.00  0.00    +0.000 A 
ATOM      2  C   UNL     1      44.523   6.650  11.580  0.00  0.00    +0.000 A 
ATOM      3  C   UNL     1      44.298   5.322  11.205  0.00  0.00    +0.000 A 
ATOM      4  C   UNL     1      45.038   4.293  11.788  0.00  0.00    +0.000 A 
ATOM      5  C   UNL     1      45.945   4.591  12.805  0.00  0.00    +0.000 A 
ATOM      6  C   UNL     1      46.179   5.915  13.174  0.00  0.00    +0.000 A 
ENDROOT
BRANCH   1   7
ATOM      7  C   UNL     1      45.785   8.386  12.928  0.00  0.00    +0.000 C 
BRANCH   7   8
ATOM      8  C   UNL     1      45.248   9.375  11.892  0.00  0.00    +0.000 C 
BRANCH   8   9
ATOM      9  N   UNL     1      44.185  10.202  12.464  0.00  0.00    +0.000 NA
ATOM     10  H   UNL     1      44.267  10.195  13.480  0.00  0.00    +0.000 HD
ATOM     11  H   UNL     1      43.278   9.790  12.251  0.00  0.00    +0.000 HD
ENDBRANCH   8   9
ENDBRANCH   7   8
ENDBRANCH   1   7
BRANCH   4  12
ATOM     12  O   UNL     1      44.813   3.035  11.287  0.00  0.00    +0.000 OA
BRANCH  12  13
ATOM     13  C   UNL     1      44.175   3.021  10.006  0.00  0.00    +0.000 C 
BRANCH  13  14
ATOM     14  C   UNL     1      45.176   2.851   8.887  0.00  0.00    +0.000 A 
ATOM     15  C   UNL     1      45.742   1.584   8.666  0.00  0.00    +0.000 A 
ATOM     16  C   UNL     1      46.645   1.380   7.622  0.00  0.00    +0.000 A 
ATOM     17  C   UNL     1      46.977   2.440   6.783  0.00  0.00    +0.000 A 
ATOM     18 CL   UNL     1      48.088   2.190   5.494  0.00  0.00    +0.000 Cl
ATOM     19  C   UNL     1      46.414   3.700   6.980  0.00  0.00    +0.000 A 
ATOM     20  C   UNL     1      45.512   3.904   8.027  0.00  0.00    +0.000 A 
ENDBRANCH  13  14
ENDBRANCH  12  13
ENDBRANCH   4  12
TORSDOF 6
ENDMDL
MODEL 3
REMARK VINA RESULT:    -6.700      3.704      6.454
REMARK INTER + INTRA:          -9.607
REMARK INTER:                  -9.056
REMARK INTRA:                  -0.551
REMARK UNBOUND:                -0.752
REMARK  Name = 
REMARK  6 active torsions:
REMARK  status: ('A' for Active; 'I' for Inactive)
REMARK    1  A    between atoms: N_1  and  C_2
REMARK    2  A    between atoms: C_2  and  C_3
REMARK    3  A    between atoms: C_3  and  C_4
REMARK    4  A    between atoms: C_7  and  O_8
REMARK    5  A    between atoms: O_8  and  C_9
REMARK    6  A    between atoms: C_9  and  C_10
REMARK                            x       y       z     vdW  Elec       q    Type
REMARK                         _______ _______ _______ _____ _____    ______ ____
ROOT
ATOM      1  C   UNL     1      46.839   6.062  13.045  0.00  0.00    +0.000 A 
ATOM      2  C   UNL     1      46.491   6.751  11.875  0.00  0.00    +0.000 A 
ATOM      3  C   UNL     1      45.525   6.229  11.010  0.00  0.00    +0.000 A 
ATOM      4  C   UNL     1      44.904   5.015  11.302  0.00  0.00    +0.000 A 
ATOM      5  C   UNL     1      45.194   4.367  12.504  0.00  0.00    +0.000 A 
ATOM      6  C   UNL     1      46.164   4.880  13.364  0.00  0.00    +0.000 A 
ENDROOT
BRANCH   1   7
ATOM      7  C   UNL     1      47.915   6.581  13.965  0.00  0.00    +0.000 C 
BRANCH   7   8
ATOM      8  C   UNL     1      48.123   8.088  13.806  0.00  0.00    +0.000 C 
BRANCH   8   9
ATOM      9  N   UNL     1      47.307   8.830  14.767  0.00  0.00    +0.000 NA
ATOM     10  H   UNL     1      47.176   8.261  15.603  0.00  0.00    +0.000 HD
ATOM     11  H   UNL     1      46.377   8.982  14.381  0.00  0.00    +0.000 HD
ENDBRANCH   8   9
ENDBRANCH   7   8
ENDBRANCH   1   7
BRANCH   4  12
ATOM     12  O   UNL     1      44.041   4.538  10.347  0.00  0.00    +0.000 OA
BRANCH  12  13
ATOM     13  C   UNL     1      44.173   3.137  10.087  0.00  0.00    +0.000 C 
BRANCH  13  14
ATOM     14  C   UNL     1      45.118   2.871   8.938  0.00  0.00    +0.000 A 
ATOM     15  C   UNL     1      45.466   3.930   8.083  0.00  0.00    +0.000 A 
ATOM     16  C   UNL     1      46.361   3.732   7.032  0.00  0.00    +0.000 A 
ATOM     17  C   UNL     1      46.925   2.475   6.837  0.00  0.00    +0.000 A 
ATOM     18 CL   UNL     1      48.031   2.228   5.542  0.00  0.00    +0.000 Cl
ATOM     19  C   UNL     1      46.602   1.416   7.685  0.00  0.00    +0.000 A 
ATOM     20  C   UNL     1      45.703   1.615   8.736  0.00  0.00    +0.000 A 
ENDBRANCH  13  14
ENDBRANCH  12  13
ENDBRANCH   4  12
TORSDOF 6
ENDMDL
MODEL 4
REMARK VINA RESULT:    -6.589      3.669      6.462
REMARK INTER + INTRA:          -9.460
REMARK INTER:                  -8.895
REMARK INTRA:                  -0.566
REMARK UNBOUND:                -0.752
REMARK  Name = 
REMARK  6 active torsions:
REMARK  status: ('A' for Active; 'I' for Inactive)
REMARK    1  A    between atoms: N_1  and  C_2
REMARK    2  A    between atoms: C_2  and  C_3
REMARK    3  A    between atoms: C_3  and  C_4
REMARK    4  A    between atoms: C_7  and  O_8
REMARK    5  A    between atoms: O_8  and  C_9
REMARK    6  A    between atoms: C_9  and  C_10
REMARK                            x       y       z     vdW  Elec       q    Type
REMARK                         _______ _______ _______ _____ _____    ______ ____
ROOT
ATOM      1  C   UNL     1      46.691   4.863  13.461  0.00  0.00    +0.000 A 
ATOM      2  C   UNL     1      46.178   3.569  13.308  0.00  0.00    +0.000 A 
ATOM      3  C   UNL     1      45.331   3.268  12.237  0.00  0.00    +0.000 A 
ATOM      4  C   UNL     1      44.986   4.256  11.315  0.00  0.00    +0.000 A 
ATOM      5  C   UNL     1      45.557   5.525  11.424  0.00  0.00    +0.000 A 
ATOM      6  C   UNL     1      46.394   5.831  12.496  0.00  0.00    +0.000 A 
ENDROOT
BRANCH   1   7
ATOM      7  C   UNL     1      47.564   5.223  14.637  0.00  0.00    +0.000 C 
BRANCH   7   8
ATOM      8  C   UNL     1      47.287   4.328  15.847  0.00  0.00    +0.000 C 
BRANCH   8   9
ATOM      9  N   UNL     1      48.430   3.457  16.121  0.00  0.00    +0.000 NA
ATOM     10  H   UNL     1      48.185   2.498  15.878  0.00  0.00    +0.000 HD
ATOM     11  H   UNL     1      48.625   3.453  17.121  0.00  0.00    +0.000 HD
ENDBRANCH   8   9
ENDBRANCH   7   8
ENDBRANCH   1   7
BRANCH   4  12
ATOM     12  O   UNL     1      44.075   3.890  10.356  0.00  0.00    +0.000 OA
BRANCH  12  13
ATOM     13  C   UNL     1      44.262   2.566   9.848  0.00  0.00    +0.000 C 
BRANCH  13  14
ATOM     14  C   UNL     1      45.243   2.544   8.698  0.00  0.00    +0.000 A 
ATOM     15  C   UNL     1      45.957   1.363   8.435  0.00  0.00    +0.000 A 
ATOM     16  C   UNL     1      46.847   1.294   7.362  0.00  0.00    +0.000 A 
ATOM     17  C   UNL     1      47.018   2.402   6.538  0.00  0.00    +0.000 A 
ATOM     18 CL   UNL     1      48.114   2.318   5.214  0.00  0.00    +0.000 Cl
ATOM     19  C   UNL     1      46.307   3.577   6.777  0.00  0.00    +0.000 A 
ATOM     20  C   UNL     1      45.418   3.646   7.852  0.00  0.00    +0.000 A 
ENDBRANCH  13  14
ENDBRANCH  12  13
ENDBRANCH   4  12
TORSDOF 6
ENDMDL
MODEL 5
REMARK VINA RESULT:    -6.526      1.495      2.259
REMARK INTER + INTRA:          -9.377
REMARK INTER:                  -8.890
REMARK INTRA:                  -0.487
REMARK UNBOUND:                -0.752
REMARK  Name = 
REMARK  6 active torsions:
REMARK  status: ('A' for Active; 'I' for Inactive)
REMARK    1  A    between atoms: N_1  and  C_2
REMARK    2  A    between atoms: C_2  and  C_3
REMARK    3  A    between atoms: C_3  and  C_4
REMARK    4  A    between atoms: C_7  and  O_8
REMARK    5  A    between atoms: O_8  and  C_9
REMARK    6  A    between atoms: C_9  and  C_10
REMARK                            x       y       z     vdW  Elec       q    Type
REMARK                         _______ _______ _______ _____ _____    ______ ____
ROOT
ATOM      1  C   UNL     1      45.880   3.265   7.853  0.00  0.00    +0.000 A 
ATOM      2  C   UNL     1      45.217   2.377   8.710  0.00  0.00    +0.000 A 
ATOM      3  C   UNL     1      44.729   2.819   9.943  0.00  0.00    +0.000 A 
ATOM      4  C   UNL     1      44.903   4.147  10.332  0.00  0.00    +0.000 A 
ATOM      5  C   UNL     1      45.495   5.049   9.447  0.00  0.00    +0.000 A 
ATOM      6  C   UNL     1      45.991   4.609   8.220  0.00  0.00    +0.000 A 
ENDROOT
BRANCH   1   7
ATOM      7  C   UNL     1      46.460   2.797   6.541  0.00  0.00    +0.000 C 
BRANCH   7   8
ATOM      8  C   UNL     1      47.544   1.737   6.743  0.00  0.00    +0.000 C 
BRANCH   8   9
ATOM      9  N   UNL     1      48.580   1.850   5.716  0.00  0.00    +0.000 NA
ATOM     10  H   UNL     1      48.972   2.791   5.740  0.00  0.00    +0.000 HD
ATOM     11  H   UNL     1      48.160   1.744   4.794  0.00  0.00    +0.000 HD
ENDBRANCH   8   9
ENDBRANCH   7   8
ENDBRANCH   1   7
BRANCH   4  12
ATOM     12  O   UNL     1      44.476   4.463  11.597  0.00  0.00    +0.000 OA
BRANCH  12  13
ATOM     13  C   UNL     1      45.533   4.614  12.551  0.00  0.00    +0.000 C 
BRANCH  13  14
ATOM     14  C   UNL     1      46.051   6.033  12.586  0.00  0.00    +0.000 A 
ATOM     15  C   UNL     1      47.435   6.255  12.492  0.00  0.00    +0.000 A 
ATOM     16  C   UNL     1      47.950   7.552  12.488  0.00  0.00    +0.000 A 
ATOM     17  C   UNL     1      47.081   8.636  12.563  0.00  0.00    +0.000 A 
ATOM     18 CL   UNL     1      47.713  10.237  12.556  0.00  0.00    +0.000 Cl
ATOM     19  C   UNL     1      45.704   8.434  12.642  0.00  0.00    +0.000 A 
ATOM     20  C   UNL     1      45.189   7.135  12.649  0.00  0.00    +0.000 A 
ENDBRANCH  13  14
ENDBRANCH  12  13
ENDBRANCH   4  12
TORSDOF 6
ENDMDL
MODEL 6
REMARK VINA RESULT:    -6.179      3.203      6.053
REMARK INTER + INTRA:          -8.918
REMARK INTER:                  -8.177
REMARK INTRA:                  -0.742
REMARK UNBOUND:                -0.752
REMARK  Name = 
REMARK  6 active torsions:
REMARK  status: ('A' for Active; 'I' for Inactive)
REMARK    1  A    between atoms: N_1  and  C_2
REMARK    2  A    between atoms: C_2  and  C_3
REMARK    3  A    between atoms: C_3  and  C_4
REMARK    4  A    between atoms: C_7  and  O_8
REMARK    5  A    between atoms: O_8  and  C_9
REMARK    6  A    between atoms: C_9  and  C_10
REMARK                            x       y       z     vdW  Elec       q    Type
REMARK                         _______ _______ _______ _____ _____    ______ ____
ROOT
ATOM      1  C   UNL     1      47.283   7.048  12.949  0.00  0.00    +0.000 A 
ATOM      2  C   UNL     1      47.178   5.703  13.329  0.00  0.00    +0.000 A 
ATOM      3  C   UNL     1      46.135   4.911  12.841  0.00  0.00    +0.000 A 
ATOM      4  C   UNL     1      45.187   5.455  11.975  0.00  0.00    +0.000 A 
ATOM      5  C   UNL     1      45.333   6.772  11.535  0.00  0.00    +0.000 A 
ATOM      6  C   UNL     1      46.367   7.567  12.028  0.00  0.00    +0.000 A 
ENDROOT
BRANCH   1   7
ATOM      7  C   UNL     1      48.370   7.933  13.504  0.00  0.00    +0.000 C 
BRANCH   7   8
ATOM      8  C   UNL     1      49.378   8.341  12.428  0.00  0.00    +0.000 C 
BRANCH   8   9
ATOM      9  N   UNL     1      50.180   7.193  12.006  0.00  0.00    +0.000 NA
ATOM     10  H   UNL     1      49.576   6.516  11.541  0.00  0.00    +0.000 HD
ATOM     11  H   UNL     1      50.557   6.718  12.825  0.00  0.00    +0.000 HD
ENDBRANCH   8   9
ENDBRANCH   7   8
ENDBRANCH   1   7
BRANCH   4  12
ATOM     12  O   UNL     1      44.149   4.628  11.626  0.00  0.00    +0.000 OA
BRANCH  12  13
ATOM     13  C   UNL     1      43.792   4.689  10.242  0.00  0.00    +0.000 C 
BRANCH  13  14
ATOM     14  C   UNL     1      44.744   3.886   9.385  0.00  0.00    +0.000 A 
ATOM     15  C   UNL     1      44.768   2.488   9.522  0.00  0.00    +0.000 A 
ATOM     16  C   UNL     1      45.610   1.710   8.725  0.00  0.00    +0.000 A 
ATOM     17  C   UNL     1      46.421   2.325   7.778  0.00  0.00    +0.000 A 
ATOM     18 CL   UNL     1      47.458   1.368   6.793  0.00  0.00    +0.000 Cl
ATOM     19  C   UNL     1      46.398   3.710   7.619  0.00  0.00    +0.000 A 
ATOM     20  C   UNL     1      45.558   4.489   8.418  0.00  0.00    +0.000 A 
ENDBRANCH  13  14
ENDBRANCH  12  13
ENDBRANCH   4  12
TORSDOF 6
ENDMDL
MODEL 7
REMARK VINA RESULT:    -5.650      3.706      6.591
REMARK INTER + INTRA:          -8.219
REMARK INTER:                  -7.632
REMARK INTRA:                  -0.587
REMARK UNBOUND:                -0.752
REMARK  Name = 
REMARK  6 active torsions:
REMARK  status: ('A' for Active; 'I' for Inactive)
REMARK    1  A    between atoms: N_1  and  C_2
REMARK    2  A    between atoms: C_2  and  C_3
REMARK    3  A    between atoms: C_3  and  C_4
REMARK    4  A    between atoms: C_7  and  O_8
REMARK    5  A    between atoms: O_8  and  C_9
REMARK    6  A    between atoms: C_9  and  C_10
REMARK                            x       y       z     vdW  Elec       q    Type
REMARK                         _______ _______ _______ _____ _____    ______ ____
ROOT
ATOM      1  C   UNL     1      46.952   8.662  12.236  0.00  0.00    +0.000 A 
ATOM      2  C   UNL     1      47.605   7.429  12.106  0.00  0.00    +0.000 A 
ATOM      3  C   UNL     1      46.868   6.260  11.894  0.00  0.00    +0.000 A 
ATOM      4  C   UNL     1      45.476   6.311  11.816  0.00  0.00    +0.000 A 
ATOM      5  C   UNL     1      44.831   7.548  11.869  0.00  0.00    +0.000 A 
ATOM      6  C   UNL     1      45.563   8.714  12.089  0.00  0.00    +0.000 A 
ENDROOT
BRANCH   1   7
ATOM      7  C   UNL     1      47.723   9.927  12.516  0.00  0.00    +0.000 C 
BRANCH   7   8
ATOM      8  C   UNL     1      48.744  10.228  11.417  0.00  0.00    +0.000 C 
BRANCH   8   9
ATOM      9  N   UNL     1      48.281  11.321  10.561  0.00  0.00    +0.000 NA
ATOM     10  H   UNL     1      49.065  11.667  10.009  0.00  0.00    +0.000 HD
ATOM     11  H   UNL     1      47.976  12.102  11.139  0.00  0.00    +0.000 HD
ENDBRANCH   8   9
ENDBRANCH   7   8
ENDBRANCH   1   7
BRANCH   4  12
ATOM     12  O   UNL     1      44.837   5.103  11.704  0.00  0.00    +0.000 OA
BRANCH  12  13
ATOM     13  C   UNL     1      44.109   4.938  10.483  0.00  0.00    +0.000 C 
BRANCH  13  14
ATOM     14  C   UNL     1      44.832   4.022   9.522  0.00  0.00    +0.000 A 
ATOM     15  C   UNL     1      45.632   4.587   8.515  0.00  0.00    +0.000 A 
ATOM     16  C   UNL     1      46.341   3.774   7.630  0.00  0.00    +0.000 A 
ATOM     17  C   UNL     1      46.266   2.390   7.757  0.00  0.00    +0.000 A 
ATOM     18 CL   UNL     1      47.142   1.386   6.669  0.00  0.00    +0.000 Cl
ATOM     19  C   UNL     1      45.488   1.814   8.760  0.00  0.00    +0.000 A 
ATOM     20  C   UNL     1      44.776   2.628   9.644  0.00  0.00    +0.000 A 
ENDBRANCH  13  14
ENDBRANCH  12  13
ENDBRANCH   4  12
TORSDOF 6
ENDMDL
MODEL 8
REMARK VINA RESULT:    -5.203      4.778      6.685
REMARK INTER + INTRA:          -7.629
REMARK INTER:                  -7.208
REMARK INTRA:                  -0.420
REMARK UNBOUND:                -0.752
REMARK  Name = 
REMARK  6 active torsions:
REMARK  status: ('A' for Active; 'I' for Inactive)
REMARK    1  A    between atoms: N_1  and  C_2
REMARK    2  A    between atoms: C_2  and  C_3
REMARK    3  A    between atoms: C_3  and  C_4
REMARK    4  A    between atoms: C_7  and  O_8
REMARK    5  A    between atoms: O_8  and  C_9
REMARK    6  A    between atoms: C_9  and  C_10
REMARK                            x       y       z     vdW  Elec       q    Type
REMARK                         _______ _______ _______ _____ _____    ______ ____
ROOT
ATOM      1  C   UNL     1      45.209   5.472  12.266  0.00  0.00    +0.000 A 
ATOM      2  C   UNL     1      46.079   6.017  13.220  0.00  0.00    +0.000 A 
ATOM      3  C   UNL     1      46.875   5.180  14.008  0.00  0.00    +0.000 A 
ATOM      4  C   UNL     1      46.806   3.796  13.855  0.00  0.00    +0.000 A 
ATOM      5  C   UNL     1      45.997   3.256  12.854  0.00  0.00    +0.000 A 
ATOM      6  C   UNL     1      45.194   4.087  12.073  0.00  0.00    +0.000 A 
ENDROOT
BRANCH   1   7
ATOM      7  C   UNL     1      44.304   6.352  11.443  0.00  0.00    +0.000 C 
BRANCH   7   8
ATOM      8  C   UNL     1      44.766   7.810  11.449  0.00  0.00    +0.000 C 
BRANCH   8   9
ATOM      9  N   UNL     1      43.671   8.705  11.075  0.00  0.00    +0.000 NA
ATOM     10  H   UNL     1      43.029   8.207  10.460  0.00  0.00    +0.000 HD
ATOM     11  H   UNL     1      44.037   9.484  10.529  0.00  0.00    +0.000 HD
ENDBRANCH   8   9
ENDBRANCH   7   8
ENDBRANCH   1   7
BRANCH   4  12
ATOM     12  O   UNL     1      47.552   3.056  14.737  0.00  0.00    +0.000 OA
BRANCH  12  13
ATOM     13  C   UNL     1      47.558   3.570  16.072  0.00  0.00    +0.000 C 
BRANCH  13  14
ATOM     14  C   UNL     1      48.907   3.395  16.731  0.00  0.00    +0.000 A 
ATOM     15  C   UNL     1      49.518   2.130  16.705  0.00  0.00    +0.000 A 
ATOM     16  C   UNL     1      50.778   1.937  17.272  0.00  0.00    +0.000 A 
ATOM     17  C   UNL     1      51.441   3.011  17.858  0.00  0.00    +0.000 A 
ATOM     18 CL   UNL     1      52.995   2.776  18.556  0.00  0.00    +0.000 Cl
ATOM     19  C   UNL     1      50.854   4.276  17.879  0.00  0.00    +0.000 A 
ATOM     20  C   UNL     1      49.592   4.468  17.313  0.00  0.00    +0.000 A 
ENDBRANCH  13  14
ENDBRANCH  12  13
ENDBRANCH   4  12
TORSDOF 6
ENDMDL
MODEL 9
REMARK VINA RESULT:    -4.993      2.870      4.208
REMARK INTER + INTRA:          -7.351
REMARK INTER:                  -6.796
REMARK INTRA:                  -0.555
REMARK UNBOUND:                -0.752
REMARK  Name = 
REMARK  6 active torsions:
REMARK  status: ('A' for Active; 'I' for Inactive)
REMARK    1  A    between atoms: N_1  and  C_2
REMARK    2  A    between atoms: C_2  and  C_3
REMARK    3  A    between atoms: C_3  and  C_4
REMARK    4  A    between atoms: C_7  and  O_8
REMARK    5  A    between atoms: O_8  and  C_9
REMARK    6  A    between atoms: C_9  and  C_10
REMARK                            x       y       z     vdW  Elec       q    Type
REMARK                         _______ _______ _______ _____ _____    ______ ____
ROOT
ATOM      1  C   UNL     1      44.930   3.544  10.387  0.00  0.00    +0.000 A 
ATOM      2  C   UNL     1      45.251   4.825   9.918  0.00  0.00    +0.000 A 
ATOM      3  C   UNL     1      45.588   5.841  10.816  0.00  0.00    +0.000 A 
ATOM      4  C   UNL     1      45.601   5.591  12.188  0.00  0.00    +0.000 A 
ATOM      5  C   UNL     1      45.357   4.297  12.651  0.00  0.00    +0.000 A 
ATOM      6  C   UNL     1      45.011   3.283  11.759  0.00  0.00    +0.000 A 
ENDROOT
BRANCH   1   7
ATOM      7  C   UNL     1      44.514   2.447   9.440  0.00  0.00    +0.000 C 
BRANCH   7   8
ATOM      8  C   UNL     1      45.458   2.340   8.242  0.00  0.00    +0.000 C 
BRANCH   8   9
ATOM      9  N   UNL     1      46.210   1.085   8.283  0.00  0.00    +0.000 NA
ATOM     10  H   UNL     1      46.094   0.657   9.201  0.00  0.00    +0.000 HD
ATOM     11  H   UNL     1      47.205   1.279   8.185  0.00  0.00    +0.000 HD
ENDBRANCH   8   9
ENDBRANCH   7   8
ENDBRANCH   1   7
BRANCH   4  12
ATOM     12  O   UNL     1      45.850   6.673  12.993  0.00  0.00    +0.000 OA
BRANCH  12  13
ATOM     13  C   UNL     1      47.187   6.730  13.501  0.00  0.00    +0.000 C 
BRANCH  13  14
ATOM     14  C   UNL     1      48.032   7.720  12.734  0.00  0.00    +0.000 A 
ATOM     15  C   UNL     1      47.513   9.000  12.473  0.00  0.00    +0.000 A 
ATOM     16  C   UNL     1      48.276   9.953  11.797  0.00  0.00    +0.000 A 
ATOM     17  C   UNL     1      49.569   9.636  11.390  0.00  0.00    +0.000 A 
ATOM     18 CL   UNL     1      50.512  10.810  10.558  0.00  0.00    +0.000 Cl
ATOM     19  C   UNL     1      50.104   8.376  11.654  0.00  0.00    +0.000 A 
ATOM     20  C   UNL     1      49.339   7.422  12.329  0.00  0.00    +0.000 A 
ENDBRANCH  13  14
ENDBRANCH  12  13
ENDBRANCH   4  12
TORSDOF 6
ENDMDL
