MODEL 1
REMARK VINA RESULT:    -7.666      0.000      0.000
REMARK INTER + INTRA:         -11.158
REMARK INTER:                 -10.579
REMARK INTRA:                  -0.578
REMARK UNBOUND:                -0.578
REMARK  Name = 
REMARK  7 active torsions:
REMARK  status: ('A' for Active; 'I' for Inactive)
REMARK    1  A    between atoms: C_2  and  C_3
REMARK    2  A    between atoms: C_6  and  N_7
REMARK    3  A    between atoms: N_7  and  C_8
REMARK    4  A    between atoms: C_8  and  C_9
REMARK    5  A    between atoms: C_9  and  C_12
REMARK    6  A    between atoms: C_16  and  C_17
REMARK    7  A    between atoms: C_17  and  O_18
REMARK                            x       y       z     vdW  Elec       q    Type
REMARK                         _______ _______ _______ _____ _____    ______ ____
ROOT
ATOM      1  C   UNL     1      43.482   5.507  12.192  0.00  0.00    +0.000 C 
ATOM      2  F   UNL     1      42.932   6.617  11.613  0.00  0.00    +0.000 F 
ATOM      3  F   UNL     1      42.697   5.249  13.283  0.00  0.00    +0.000 F 
ENDROOT
BRANCH   1   4
ATOM      4  C   UNL     1      44.935   5.721  12.581  0.00  0.00    +0.000 A 
ATOM      5  C   UNL     1      45.738   6.612  11.853  0.00  0.00    +0.000 A 
ATOM      6  C   UNL     1      47.079   6.801  12.194  0.00  0.00    +0.000 A 
ATOM      7  C   UNL     1      47.637   6.094  13.259  0.00  0.00    +0.000 A 
ATOM      8  C   UNL     1      46.859   5.197  14.001  0.00  0.00    +0.000 A 
ATOM      9  C   UNL     1      45.504   5.032  13.666  0.00  0.00    +0.000 A 
BRANCH   8  10
ATOM     10  C   UNL     1      47.477   4.380  15.105  0.00  0.00    +0.000 C 
BRANCH  10  11
ATOM     11  O   UNL     1      47.568   3.019  14.716  0.00  0.00    +0.000 OA
ATOM     12  H   UNL     1      47.148   2.951  13.842  0.00  0.00    +0.000 HD
ENDBRANCH  10  11
ENDBRANCH   8  10
ENDBRANCH   1   4
BRANCH   1  13
ATOM     13  C   UNL     1      43.347   4.321  11.203  0.00  0.00    +0.000 C 
BRANCH  13  14
ATOM     14  N   UNL     1      43.696   4.644   9.818  0.00  0.00    +0.000 N 
ATOM     15  H   UNL     1      43.285   5.452   9.364  0.00  0.00    +0.000 HD
BRANCH  14  19
ATOM     16  C   UNL     1      46.491   2.635   7.605  0.00  0.00    +0.000 A 
ATOM     17  C   UNL     1      46.356   4.012   7.557  0.00  0.00    +0.000 A 
ATOM     18  N   UNL     1      45.431   4.690   8.291  0.00  0.00    +0.000 NA
ATOM     19  C   UNL     1      44.622   3.952   9.081  0.00  0.00    +0.000 A 
ATOM     20  C   UNL     1      44.767   2.561   9.102  0.00  0.00    +0.000 A 
ATOM     21  N   UNL     1      45.689   1.871   8.382  0.00  0.00    +0.000 NA
BRANCH  16  23
ATOM     22  N   UNL     1      48.320   1.434   6.212  0.00  0.00    +0.000 NA
ATOM     23  C   UNL     1      47.494   1.956   6.841  0.00  0.00    +0.000 C 
ENDBRANCH  16  23
ENDBRANCH  14  19
ENDBRANCH  13  14
ENDBRANCH   1  13
TORSDOF 7
ENDMDL
MODEL 2
REMARK VINA RESULT:    -7.657      1.862      2.342
REMARK INTER + INTRA:         -11.145
REMARK INTER:                 -10.568
REMARK INTRA:                  -0.577
REMARK UNBOUND:                -0.578
REMARK  Name = 
REMARK  7 active torsions:
REMARK  status: ('A' for Active; 'I' for Inactive)
REMARK    1  A    between atoms: C_2  and  C_3
REMARK    2  A    between atoms: C_6  and  N_7
REMARK    3  A    between atoms: N_7  and  C_8
REMARK    4  A    between atoms: C_8  and  C_9
REMARK    5  A    between atoms: C_9  and  C_12
REMARK    6  A    between atoms: C_16  and  C_17
REMARK    7  A    between atoms: C_17  and  O_18
REMARK                            x       y       z     vdW  Elec       q    Type
REMARK                         _______ _______ _______ _____ _____    ______ ____
ROOT
ATOM      1  C   UNL     1      43.216   4.862  12.469  0.00  0.00    +0.000 C 
ATOM      2  F   UNL     1      42.224   5.726  12.097  0.00  0.00    +0.000 F 
ATOM      3  F   UNL     1      42.752   4.257  13.605  0.00  0.00    +0.000 F 
ENDROOT
BRANCH   1   4
ATOM      4  C   UNL     1      44.538   5.572  12.708  0.00  0.00    +0.000 A 
ATOM      5  C   UNL     1      45.652   4.855  13.171  0.00  0.00    +0.000 A 
ATOM      6  C   UNL     1      46.865   5.504  13.410  0.00  0.00    +0.000 A 
ATOM      7  C   UNL     1      46.978   6.878  13.200  0.00  0.00    +0.000 A 
ATOM      8  C   UNL     1      45.882   7.618  12.740  0.00  0.00    +0.000 A 
ATOM      9  C   UNL     1      44.672   6.953  12.479  0.00  0.00    +0.000 A 
BRANCH   8  10
ATOM     10  C   UNL     1      45.980   9.112  12.581  0.00  0.00    +0.000 C 
BRANCH  10  11
ATOM     11  O   UNL     1      44.714   9.714  12.798  0.00  0.00    +0.000 OA
ATOM     12  H   UNL     1      44.082   8.988  12.937  0.00  0.00    +0.000 HD
ENDBRANCH  10  11
ENDBRANCH   8  10
ENDBRANCH   1   4
BRANCH   1  13
ATOM     13  C   UNL     1      43.364   3.782  11.367  0.00  0.00    +0.000 C 
BRANCH  13  14
ATOM     14  N   UNL     1      43.765   4.303  10.058  0.00  0.00    +0.000 N 
ATOM     15  H   UNL     1      43.402   5.191   9.730  0.00  0.00    +0.000 HD
BRANCH  14  19
ATOM     16  C   UNL     1      46.523   2.543   7.600  0.00  0.00    +0.000 A 
ATOM     17  C   UNL     1      46.265   3.903   7.572  0.00  0.00    +0.000 A 
ATOM     18  N   UNL     1      45.350   4.498   8.387  0.00  0.00    +0.000 NA
ATOM     19  C   UNL     1      44.681   3.694   9.240  0.00  0.00    +0.000 A 
ATOM     20  C   UNL     1      44.949   2.320   9.240  0.00  0.00    +0.000 A 
ATOM     21  N   UNL     1      45.862   1.713   8.439  0.00  0.00    +0.000 NA
BRANCH  16  23
ATOM     22  N   UNL     1      48.333   1.501   6.063  0.00  0.00    +0.000 NA
ATOM     23  C   UNL     1      47.512   1.953   6.748  0.00  0.00    +0.000 C 
ENDBRANCH  16  23
ENDBRANCH  14  19
ENDBRANCH  13  14
ENDBRANCH   1  13
TORSDOF 7
ENDMDL
MODEL 3
REMARK VINA RESULT:    -7.094      3.398      5.974
REMARK INTER + INTRA:         -10.368
REMARK INTER:                  -9.736
REMARK INTRA:                  -0.632
REMARK UNBOUND:                -0.578
REMARK  Name = 
REMARK  7 active torsions:
REMARK  status: ('A' for Active; 'I' for Inactive)
REMARK    1  A    between atoms: C_2  and  C_3
REMARK    2  A    between atoms: C_6  and  N_7
REMARK    3  A    between atoms: N_7  and  C_8
REMARK    4  A    between atoms: C_8  and  C_9
REMARK    5  A    between atoms: C_9  and  C_12
REMARK    6  A    between atoms: C_16  and  C_17
REMARK    7  A    between atoms: C_17  and  O_18
REMARK                            x       y       z     vdW  Elec       q    Type
REMARK                         _______ _______ _______ _____ _____    ______ ____
ROOT
ATOM      1  C   UNL     1      44.034   3.117  10.885  0.00  0.00    +0.000 C 
ATOM      2  F   UNL     1      43.365   1.925  10.931  0.00  0.00    +0.000 F 
ATOM      3  F   UNL     1      43.055   4.073  10.867  0.00  0.00    +0.000 F 
ENDROOT
BRANCH   1   4
ATOM      4  C   UNL     1      44.945   3.219   9.673  0.00  0.00    +0.000 A 
ATOM      5  C   UNL     1      45.200   4.467   9.084  0.00  0.00    +0.000 A 
ATOM      6  C   UNL     1      46.022   4.568   7.960  0.00  0.00    +0.000 A 
ATOM      7  C   UNL     1      46.591   3.422   7.403  0.00  0.00    +0.000 A 
ATOM      8  C   UNL     1      46.351   2.164   7.970  0.00  0.00    +0.000 A 
ATOM      9  C   UNL     1      45.543   2.076   9.116  0.00  0.00    +0.000 A 
BRANCH   8  10
ATOM     10  C   UNL     1      46.906   0.919   7.329  0.00  0.00    +0.000 C 
BRANCH  10  11
ATOM     11  O   UNL     1      48.045   1.236   6.545  0.00  0.00    +0.000 OA
ATOM     12  H   UNL     1      48.378   0.396   6.186  0.00  0.00    +0.000 HD
ENDBRANCH  10  11
ENDBRANCH   8  10
ENDBRANCH   1   4
BRANCH   1  13
ATOM     13  C   UNL     1      44.845   3.274  12.197  0.00  0.00    +0.000 C 
BRANCH  13  14
ATOM     14  N   UNL     1      44.922   4.648  12.700  0.00  0.00    +0.000 N 
ATOM     15  H   UNL     1      44.080   5.128  12.998  0.00  0.00    +0.000 HD
BRANCH  14  19
ATOM     16  C   UNL     1      48.404   6.745  13.162  0.00  0.00    +0.000 A 
ATOM     17  C   UNL     1      47.558   6.940  12.083  0.00  0.00    +0.000 A 
ATOM     18  N   UNL     1      46.397   6.247  11.921  0.00  0.00    +0.000 NA
ATOM     19  C   UNL     1      46.095   5.336  12.870  0.00  0.00    +0.000 A 
ATOM     20  C   UNL     1      46.972   5.147  13.944  0.00  0.00    +0.000 A 
ATOM     21  N   UNL     1      48.130   5.834  14.123  0.00  0.00    +0.000 NA
BRANCH  16  23
ATOM     22  N   UNL     1      50.587   8.124  13.409  0.00  0.00    +0.000 NA
ATOM     23  C   UNL     1      49.606   7.510  13.316  0.00  0.00    +0.000 C 
ENDBRANCH  16  23
ENDBRANCH  14  19
ENDBRANCH  13  14
ENDBRANCH   1  13
TORSDOF 7
ENDMDL
MODEL 4
REMARK VINA RESULT:    -7.054      1.675      2.163
REMARK INTER + INTRA:         -10.312
REMARK INTER:                  -9.833
REMARK INTRA:                  -0.479
REMARK UNBOUND:                -0.578
REMARK  Name = 
REMARK  7 active torsions:
REMARK  status: ('A' for Active; 'I' for Inactive)
REMARK    1  A    between atoms: C_2  and  C_3
REMARK    2  A    between atoms: C_6  and  N_7
REMARK    3  A    between atoms: N_7  and  C_8
REMARK    4  A    between atoms: C_8  and  C_9
REMARK    5  A    between atoms: C_9  and  C_12
REMARK    6  A    between atoms: C_16  and  C_17
REMARK    7  A    between atoms: C_17  and  O_18
REMARK                            x       y       z     vdW  Elec       q    Type
REMARK                         _______ _______ _______ _____ _____    ______ ____
ROOT
ATOM      1  C   UNL     1      44.736   4.532  12.295  0.00  0.00    +0.000 C 
ATOM      2  F   UNL     1      44.224   4.276  13.536  0.00  0.00    +0.000 F 
ATOM      3  F   UNL     1      45.641   3.531  12.071  0.00  0.00    +0.000 F 
ENDROOT
BRANCH   1   4
ATOM      4  C   UNL     1      45.382   5.905  12.211  0.00  0.00    +0.000 A 
ATOM      5  C   UNL     1      44.586   7.060  12.174  0.00  0.00    +0.000 A 
ATOM      6  C   UNL     1      45.171   8.324  12.079  0.00  0.00    +0.000 A 
ATOM      7  C   UNL     1      46.559   8.450  12.009  0.00  0.00    +0.000 A 
ATOM      8  C   UNL     1      47.377   7.314  12.041  0.00  0.00    +0.000 A 
ATOM      9  C   UNL     1      46.780   6.047  12.162  0.00  0.00    +0.000 A 
BRANCH   8  10
ATOM     10  C   UNL     1      48.870   7.442  11.893  0.00  0.00    +0.000 C 
BRANCH  10  11
ATOM     11  O   UNL     1      49.528   6.500  12.725  0.00  0.00    +0.000 OA
ATOM     12  H   UNL     1      48.926   5.742  12.818  0.00  0.00    +0.000 HD
ENDBRANCH  10  11
ENDBRANCH   8  10
ENDBRANCH   1   4
BRANCH   1  13
ATOM     13  C   UNL     1      43.594   4.398  11.256  0.00  0.00    +0.000 C 
BRANCH  13  14
ATOM     14  N   UNL     1      43.964   4.789   9.894  0.00  0.00    +0.000 N 
ATOM     15  H   UNL     1      43.613   5.655   9.499  0.00  0.00    +0.000 HD
BRANCH  14  19
ATOM     16  C   UNL     1      46.602   2.740   7.531  0.00  0.00    +0.000 A 
ATOM     17  C   UNL     1      46.543   4.124   7.550  0.00  0.00    +0.000 A 
ATOM     18  N   UNL     1      45.669   4.814   8.334  0.00  0.00    +0.000 NA
ATOM     19  C   UNL     1      44.837   4.085   9.106  0.00  0.00    +0.000 A 
ATOM     20  C   UNL     1      44.906   2.688   9.059  0.00  0.00    +0.000 A 
ATOM     21  N   UNL     1      45.775   1.985   8.288  0.00  0.00    +0.000 NA
BRANCH  16  23
ATOM     22  N   UNL     1      48.316   1.503   6.027  0.00  0.00    +0.000 NA
ATOM     23  C   UNL     1      47.552   2.045   6.714  0.00  0.00    +0.000 C 
ENDBRANCH  16  23
ENDBRANCH  14  19
ENDBRANCH  13  14
ENDBRANCH   1  13
TORSDOF 7
ENDMDL
MODEL 5
REMARK VINA RESULT:    -6.863      3.675      6.864
REMARK INTER + INTRA:         -10.049
REMARK INTER:                  -9.578
REMARK INTRA:                  -0.471
REMARK UNBOUND:                -0.578
REMARK  Name = 
REMARK  7 active torsions:
REMARK  status: ('A' for Active; 'I' for Inactive)
REMARK    1  A    between atoms: C_2  and  C_3
REMARK    2  A    between atoms: C_6  and  N_7
REMARK    3  A    between atoms: N_7  and  C_8
REMARK    4  A    between atoms: C_8  and  C_9
REMARK    5  A    between atoms: C_9  and  C_12
REMARK    6  A    between atoms: C_16  and  C_17
REMARK    7  A    between atoms: C_17  and  O_18
REMARK                            x       y       z     vdW  Elec       q    Type
REMARK                         _______ _______ _______ _____ _____    ______ ____
ROOT
ATOM      1  C   UNL     1      44.905   4.375   9.464  0.00  0.00    +0.000 C 
ATOM      2  F   UNL     1      43.640   4.700   9.062  0.00  0.00    +0.000 F 
ATOM      3  F   UNL     1      45.616   5.541   9.376  0.00  0.00    +0.000 F 
ENDROOT
BRANCH   1   4
ATOM      4  C   UNL     1      45.516   3.277   8.611  0.00  0.00    +0.000 A 
ATOM      5  C   UNL     1      45.443   1.937   9.024  0.00  0.00    +0.000 A 
ATOM      6  C   UNL     1      46.017   0.924   8.254  0.00  0.00    +0.000 A 
ATOM      7  C   UNL     1      46.682   1.236   7.068  0.00  0.00    +0.000 A 
ATOM      8  C   UNL     1      46.772   2.565   6.634  0.00  0.00    +0.000 A 
ATOM      9  C   UNL     1      46.169   3.575   7.403  0.00  0.00    +0.000 A 
BRANCH   8  10
ATOM     10  C   UNL     1      47.550   2.912   5.392  0.00  0.00    +0.000 C 
BRANCH  10  11
ATOM     11  O   UNL     1      48.523   1.914   5.127  0.00  0.00    +0.000 OA
ATOM     12  H   UNL     1      48.838   1.597   5.991  0.00  0.00    +0.000 HD
ENDBRANCH  10  11
ENDBRANCH   8  10
ENDBRANCH   1   4
BRANCH   1  13
ATOM     13  C   UNL     1      44.851   3.949  10.953  0.00  0.00    +0.000 C 
BRANCH  13  14
ATOM     14  N   UNL     1      44.874   5.063  11.904  0.00  0.00    +0.000 N 
ATOM     15  H   UNL     1      44.134   5.756  11.894  0.00  0.00    +0.000 HD
BRANCH  14  19
ATOM     16  C   UNL     1      47.682   5.442  14.857  0.00  0.00    +0.000 A 
ATOM     17  C   UNL     1      46.810   4.367  14.795  0.00  0.00    +0.000 A 
ATOM     18  N   UNL     1      45.873   4.232  13.816  0.00  0.00    +0.000 NA
ATOM     19  C   UNL     1      45.818   5.210  12.887  0.00  0.00    +0.000 A 
ATOM     20  C   UNL     1      46.699   6.293  12.979  0.00  0.00    +0.000 A 
ATOM     21  N   UNL     1      47.643   6.440  13.945  0.00  0.00    +0.000 NA
BRANCH  16  23
ATOM     22  N   UNL     1      49.497   5.599  16.702  0.00  0.00    +0.000 NA
ATOM     23  C   UNL     1      48.674   5.540  15.885  0.00  0.00    +0.000 C 
ENDBRANCH  16  23
ENDBRANCH  14  19
ENDBRANCH  13  14
ENDBRANCH   1  13
TORSDOF 7
ENDMDL
MODEL 6
REMARK VINA RESULT:    -6.615      1.848      2.630
REMARK INTER + INTRA:          -9.707
REMARK INTER:                  -9.162
REMARK INTRA:                  -0.545
REMARK UNBOUND:                -0.578
REMARK  Name = 
REMARK  7 active torsions:
REMARK  status: ('A' for Active; 'I' for Inactive)
REMARK    1  A    between atoms: C_2  and  C_3
REMARK    2  A    between atoms: C_6  and  N_7
REMARK    3  A    between atoms: N_7  and  C_8
REMARK    4  A    between atoms: C_8  and  C_9
REMARK    5  A    between atoms: C_9  and  C_12
REMARK    6  A    between atoms: C_16  and  C_17
REMARK    7  A    between atoms: C_17  and  O_18
REMARK                            x       y       z     vdW  Elec       q    Type
REMARK                         _______ _______ _______ _____ _____    ______ ____
ROOT
ATOM      1  C   UNL     1      44.851   4.071  12.562  0.00  0.00    +0.000 C 
ATOM      2  F   UNL     1      43.828   3.942  13.459  0.00  0.00    +0.000 F 
ATOM      3  F   UNL     1      45.231   2.789  12.268  0.00  0.00    +0.000 F 
ENDROOT
BRANCH   1   4
ATOM      4  C   UNL     1      46.006   4.887  13.119  0.00  0.00    +0.000 A 
ATOM      5  C   UNL     1      46.577   4.552  14.357  0.00  0.00    +0.000 A 
ATOM      6  C   UNL     1      47.626   5.307  14.883  0.00  0.00    +0.000 A 
ATOM      7  C   UNL     1      48.112   6.413  14.185  0.00  0.00    +0.000 A 
ATOM      8  C   UNL     1      47.560   6.771  12.949  0.00  0.00    +0.000 A 
ATOM      9  C   UNL     1      46.520   5.990  12.416  0.00  0.00    +0.000 A 
BRANCH   8  10
ATOM     10  C   UNL     1      48.034   8.005  12.229  0.00  0.00    +0.000 C 
BRANCH  10  11
ATOM     11  O   UNL     1      48.880   7.647  11.147  0.00  0.00    +0.000 OA
ATOM     12  H   UNL     1      48.539   6.808  10.795  0.00  0.00    +0.000 HD
ENDBRANCH  10  11
ENDBRANCH   8  10
ENDBRANCH   1   4
BRANCH   1  13
ATOM     13  C   UNL     1      44.292   4.721  11.271  0.00  0.00    +0.000 C 
BRANCH  13  14
ATOM     14  N   UNL     1      44.014   3.776  10.188  0.00  0.00    +0.000 N 
ATOM     15  H   UNL     1      43.082   3.393  10.072  0.00  0.00    +0.000 HD
BRANCH  14  19
ATOM     16  C   UNL     1      46.740   2.609   7.367  0.00  0.00    +0.000 A 
ATOM     17  C   UNL     1      46.116   1.708   8.215  0.00  0.00    +0.000 A 
ATOM     18  N   UNL     1      45.208   2.087   9.155  0.00  0.00    +0.000 NA
ATOM     19  C   UNL     1      44.933   3.405   9.240  0.00  0.00    +0.000 A 
ATOM     20  C   UNL     1      45.586   4.299   8.383  0.00  0.00    +0.000 A 
ATOM     21  N   UNL     1      46.489   3.937   7.436  0.00  0.00    +0.000 NA
BRANCH  16  23
ATOM     22  N   UNL     1      48.448   1.813   5.586  0.00  0.00    +0.000 NA
ATOM     23  C   UNL     1      47.671   2.174   6.370  0.00  0.00    +0.000 C 
ENDBRANCH  16  23
ENDBRANCH  14  19
ENDBRANCH  13  14
ENDBRANCH   1  13
TORSDOF 7
ENDMDL
MODEL 7
REMARK VINA RESULT:    -6.609      3.716      6.608
REMARK INTER + INTRA:          -9.699
REMARK INTER:                  -9.209
REMARK INTRA:                  -0.491
REMARK UNBOUND:                -0.578
REMARK  Name = 
REMARK  7 active torsions:
REMARK  status: ('A' for Active; 'I' for Inactive)
REMARK    1  A    between atoms: C_2  and  C_3
REMARK    2  A    between atoms: C_6  and  N_7
REMARK    3  A    between atoms: N_7  and  C_8
REMARK    4  A    between atoms: C_8  and  C_9
REMARK    5  A    between atoms: C_9  and  C_12
REMARK    6  A    between atoms: C_16  and  C_17
REMARK    7  A    between atoms: C_17  and  O_18
REMARK                            x       y       z     vdW  Elec       q    Type
REMARK                         _______ _______ _______ _____ _____    ______ ____
ROOT
ATOM      1  C   UNL     1      44.040   4.235  10.728  0.00  0.00    +0.000 C 
ATOM      2  F   UNL     1      43.402   3.174  11.309  0.00  0.00    +0.000 F 
ATOM      3  F   UNL     1      43.036   5.058  10.293  0.00  0.00    +0.000 F 
ENDROOT
BRANCH   1   4
ATOM      4  C   UNL     1      44.950   3.806   9.590  0.00  0.00    +0.000 A 
ATOM      5  C   UNL     1      45.539   4.768   8.754  0.00  0.00    +0.000 A 
ATOM      6  C   UNL     1      46.362   4.382   7.696  0.00  0.00    +0.000 A 
ATOM      7  C   UNL     1      46.601   3.029   7.451  0.00  0.00    +0.000 A 
ATOM      8  C   UNL     1      46.025   2.048   8.268  0.00  0.00    +0.000 A 
ATOM      9  C   UNL     1      45.217   2.448   9.346  0.00  0.00    +0.000 A 
BRANCH   8  10
ATOM     10  C   UNL     1      46.223   0.587   7.963  0.00  0.00    +0.000 C 
BRANCH  10  11
ATOM     11  O   UNL     1      47.104   0.430   6.862  0.00  0.00    +0.000 OA
ATOM     12  H   UNL     1      47.995   0.640   7.188  0.00  0.00    +0.000 HD
ENDBRANCH  10  11
ENDBRANCH   8  10
ENDBRANCH   1   4
BRANCH   1  13
ATOM     13  C   UNL     1      44.843   4.983  11.823  0.00  0.00    +0.000 C 
BRANCH  13  14
ATOM     14  N   UNL     1      45.726   4.127  12.618  0.00  0.00    +0.000 N 
ATOM     15  H   UNL     1      45.789   3.135  12.417  0.00  0.00    +0.000 HD
BRANCH  14  19
ATOM     16  C   UNL     1      48.188   5.457  15.603  0.00  0.00    +0.000 A 
ATOM     17  C   UNL     1      47.299   4.412  15.785  0.00  0.00    +0.000 A 
ATOM     18  N   UNL     1      46.476   3.962  14.798  0.00  0.00    +0.000 NA
ATOM     19  C   UNL     1      46.555   4.590  13.606  0.00  0.00    +0.000 A 
ATOM     20  C   UNL     1      47.451   5.653  13.450  0.00  0.00    +0.000 A 
ATOM     21  N   UNL     1      48.283   6.110  14.422  0.00  0.00    +0.000 NA
BRANCH  16  23
ATOM     22  N   UNL     1      49.791   6.225  17.492  0.00  0.00    +0.000 NA
ATOM     23  C   UNL     1      49.060   5.889  16.655  0.00  0.00    +0.000 C 
ENDBRANCH  16  23
ENDBRANCH  14  19
ENDBRANCH  13  14
ENDBRANCH   1  13
TORSDOF 7
ENDMDL
MODEL 8
REMARK VINA RESULT:    -6.505      3.844      6.816
REMARK INTER + INTRA:          -9.555
REMARK INTER:                  -9.104
REMARK INTRA:                  -0.451
REMARK UNBOUND:                -0.578
REMARK  Name = 
REMARK  7 active torsions:
REMARK  status: ('A' for Active; 'I' for Inactive)
REMARK    1  A    between atoms: C_2  and  C_3
REMARK    2  A    between atoms: C_6  and  N_7
REMARK    3  A    between atoms: N_7  and  C_8
REMARK    4  A    between atoms: C_8  and  C_9
REMARK    5  A    between atoms: C_9  and  C_12
REMARK    6  A    between atoms: C_16  and  C_17
REMARK    7  A    between atoms: C_17  and  O_18
REMARK                            x       y       z     vdW  Elec       q    Type
REMARK                         _______ _______ _______ _____ _____    ______ ____
ROOT
ATOM      1  C   UNL     1      44.427   5.815  11.207  0.00  0.00    +0.000 C 
ATOM      2  F   UNL     1      43.145   6.288  11.218  0.00  0.00    +0.000 F 
ATOM      3  F   UNL     1      45.179   6.838  10.697  0.00  0.00    +0.000 F 
ENDROOT
BRANCH   1   4
ATOM      4  C   UNL     1      44.565   4.548  10.381  0.00  0.00    +0.000 A 
ATOM      5  C   UNL     1      44.034   3.336  10.850  0.00  0.00    +0.000 A 
ATOM      6  C   UNL     1      44.173   2.164  10.105  0.00  0.00    +0.000 A 
ATOM      7  C   UNL     1      44.852   2.184   8.887  0.00  0.00    +0.000 A 
ATOM      8  C   UNL     1      45.393   3.378   8.396  0.00  0.00    +0.000 A 
ATOM      9  C   UNL     1      45.228   4.558   9.141  0.00  0.00    +0.000 A 
BRANCH   8  10
ATOM     10  C   UNL     1      46.188   3.389   7.117  0.00  0.00    +0.000 C 
BRANCH  10  11
ATOM     11  O   UNL     1      47.129   4.451   7.133  0.00  0.00    +0.000 OA
ATOM     12  H   UNL     1      46.645   5.246   7.412  0.00  0.00    +0.000 HD
ENDBRANCH  10  11
ENDBRANCH   8  10
ENDBRANCH   1   4
BRANCH   1  13
ATOM     13  C   UNL     1      44.871   5.567  12.672  0.00  0.00    +0.000 C 
BRANCH  13  14
ATOM     14  N   UNL     1      46.255   5.110  12.816  0.00  0.00    +0.000 N 
ATOM     15  H   UNL     1      46.790   4.839  11.998  0.00  0.00    +0.000 HD
BRANCH  14  19
ATOM     16  C   UNL     1      48.254   4.966  16.383  0.00  0.00    +0.000 A 
ATOM     17  C   UNL     1      47.299   4.028  16.029  0.00  0.00    +0.000 A 
ATOM     18  N   UNL     1      46.629   4.067  14.844  0.00  0.00    +0.000 NA
ATOM     19  C   UNL     1      46.931   5.082  14.008  0.00  0.00    +0.000 A 
ATOM     20  C   UNL     1      47.890   6.026  14.393  0.00  0.00    +0.000 A 
ATOM     21  N   UNL     1      48.571   5.998  15.567  0.00  0.00    +0.000 NA
BRANCH  16  23
ATOM     22  N   UNL     1      49.543   4.842  18.631  0.00  0.00    +0.000 NA
ATOM     23  C   UNL     1      48.960   4.880  17.627  0.00  0.00    +0.000 C 
ENDBRANCH  16  23
ENDBRANCH  14  19
ENDBRANCH  13  14
ENDBRANCH   1  13
TORSDOF 7
ENDMDL
MODEL 9
REMARK VINA RESULT:    -6.078      4.455      7.117
REMARK INTER + INTRA:          -8.966
REMARK INTER:                  -8.543
REMARK INTRA:                  -0.422
REMARK UNBOUND:                -0.578
REMARK  Name = 
REMARK  7 active torsions:
REMARK  status: ('A' for Active; 'I' for Inactive)
REMARK    1  A    between atoms: C_2  and  C_3
REMARK    2  A    between atoms: C_6  and  N_7
REMARK    3  A    between atoms: N_7  and  C_8
REMARK    4  A    between atoms: C_8  and  C_9
REMARK    5  A    between atoms: C_9  and  C_12
REMARK    6  A    between atoms: C_16  and  C_17
REMARK    7  A    between atoms: C_17  and  O_18
REMARK                            x       y       z     vdW  Elec       q    Type
REMARK                         _______ _______ _______ _____ _____    ______ ____
ROOT
ATOM      1  C   UNL     1      44.791   5.089  12.849  0.00  0.00    +0.000 C 
ATOM      2  F   UNL     1      44.020   4.155  13.484  0.00  0.00    +0.000 F 
ATOM      3  F   UNL     1      44.091   6.260  12.957  0.00  0.00    +0.000 F 
ENDROOT
BRANCH   1   4
ATOM      4  C   UNL     1      45.058   4.724  11.399  0.00  0.00    +0.000 A 
ATOM      5  C   UNL     1      45.547   5.690  10.505  0.00  0.00    +0.000 A 
ATOM      6  C   UNL     1      45.779   5.366   9.167  0.00  0.00    +0.000 A 
ATOM      7  C   UNL     1      45.516   4.078   8.701  0.00  0.00    +0.000 A 
ATOM      8  C   UNL     1      45.026   3.096   9.571  0.00  0.00    +0.000 A 
ATOM      9  C   UNL     1      44.819   3.423  10.922  0.00  0.00    +0.000 A 
BRANCH   8  10
ATOM     10  C   UNL     1      44.674   1.725   9.055  0.00  0.00    +0.000 C 
BRANCH  10  11
ATOM     11  O   UNL     1      45.826   1.090   8.523  0.00  0.00    +0.000 OA
ATOM     12  H   UNL     1      46.437   0.954   9.267  0.00  0.00    +0.000 HD
ENDBRANCH  10  11
ENDBRANCH   8  10
ENDBRANCH   1   4
BRANCH   1  13
ATOM     13  C   UNL     1      46.120   5.242  13.631  0.00  0.00    +0.000 C 
BRANCH  13  14
ATOM     14  N   UNL     1      46.333   4.229  14.668  0.00  0.00    +0.000 N 
ATOM     15  H   UNL     1      45.748   3.401  14.699  0.00  0.00    +0.000 HD
BRANCH  14  19
ATOM     16  C   UNL     1      49.339   4.323  17.442  0.00  0.00    +0.000 A 
ATOM     17  C   UNL     1      48.478   3.246  17.317  0.00  0.00    +0.000 A 
ATOM     18  N   UNL     1      47.475   3.206  16.397  0.00  0.00    +0.000 NA
ATOM     19  C   UNL     1      47.342   4.282  15.594  0.00  0.00    +0.000 A 
ATOM     20  C   UNL     1      48.215   5.365  15.748  0.00  0.00    +0.000 A 
ATOM     21  N   UNL     1      49.224   5.418  16.656  0.00  0.00    +0.000 NA
BRANCH  16  23
ATOM     22  N   UNL     1      51.254   4.291  19.191  0.00  0.00    +0.000 NA
ATOM     23  C   UNL     1      50.401   4.323  18.404  0.00  0.00    +0.000 C 
ENDBRANCH  16  23
ENDBRANCH  14  19
ENDBRANCH  13  14
ENDBRANCH   1  13
TORSDOF 7
ENDMDL
