MODEL 1
REMARK VINA RESULT:    -9.566      0.000      0.000
REMARK INTER + INTRA:         -13.743
REMARK INTER:                 -12.921
REMARK INTRA:                  -0.822
REMARK UNBOUND:                -0.822
REMARK  Name = 
REMARK  6 active torsions:
REMARK  status: ('A' for Active; 'I' for Inactive)
REMARK    1  A    between atoms: C_2  and  C_4
REMARK    2  A    between atoms: N_8  and  C_9
REMARK    3  A    between atoms: C_9  and  C_10
REMARK    4  A    between atoms: C_10  and  C_13
REMARK    5  A    between atoms: C_17  and  N_18
REMARK    6  A    between atoms: N_18  and  C_19
REMARK                            x       y       z     vdW  Elec       q    Type
REMARK                         _______ _______ _______ _____ _____    ______ ____
ROOT
ATOM      1  C   UNL     1      43.275   5.526  12.121  0.00  0.00    +0.000 C 
ATOM      2  F   UNL     1      42.753   6.708  11.672  0.00  0.00    +0.000 F 
ATOM      3  F   UNL     1      42.460   5.145  13.151  0.00  0.00    +0.000 F 
ENDROOT
BRANCH   1   4
ATOM      4  C   UNL     1      44.718   5.678  12.563  0.00  0.00    +0.000 A 
ATOM      5  C   UNL     1      45.533   6.680  12.022  0.00  0.00    +0.000 A 
ATOM      6  C   UNL     1      46.869   6.786  12.414  0.00  0.00    +0.000 A 
ATOM      7  C   UNL     1      47.407   5.885  13.338  0.00  0.00    +0.000 A 
ATOM      8  C   UNL     1      46.611   4.885  13.897  0.00  0.00    +0.000 A 
ATOM      9  C   UNL     1      45.270   4.789  13.500  0.00  0.00    +0.000 A 
BRANCH   8  10
ATOM     10  N   UNL     1      47.094   3.930  14.816  0.00  0.00    +0.000 N 
ATOM     11  H   UNL     1      46.855   2.991  14.493  0.00  0.00    +0.000 HD
BRANCH  10  12
ATOM     12  C   UNL     1      47.140   4.055  16.242  0.00  0.00    +0.000 C 
ATOM     13  C   UNL     1      48.311   4.941  16.708  0.00  0.00    +0.000 C 
ATOM     14  C   UNL     1      48.742   3.820  17.669  0.00  0.00    +0.000 C 
ATOM     15  F   UNL     1      50.063   3.525  17.665  0.00  0.00    +0.000 F 
ATOM     16  F   UNL     1      48.391   4.002  18.963  0.00  0.00    +0.000 F 
ATOM     17  C   UNL     1      47.849   2.847  16.881  0.00  0.00    +0.000 C 
ENDBRANCH  10  12
ENDBRANCH   8  10
ENDBRANCH   1   4
BRANCH   1  18
ATOM     18  C   UNL     1      43.165   4.476  10.988  0.00  0.00    +0.000 C 
BRANCH  18  23
ATOM     19  C   UNL     1      46.376   2.243   7.642  0.00  0.00    +0.000 A 
ATOM     20  C   UNL     1      45.766   1.754   8.794  0.00  0.00    +0.000 A 
ATOM     21  C   UNL     1      44.944   2.599   9.536  0.00  0.00    +0.000 A 
ATOM     22  C   UNL     1      44.749   3.918   9.128  0.00  0.00    +0.000 A 
ATOM     23  N   UNL     1      43.956   4.800   9.806  0.00  0.00    +0.000 N 
ATOM     24  N   UNL     1      45.351   4.403   8.028  0.00  0.00    +0.000 NA
ATOM     25  C   UNL     1      46.154   3.570   7.313  0.00  0.00    +0.000 A 
ATOM     26  H   UNL     1      43.902   5.727   9.395  0.00  0.00    +0.000 HD
BRANCH  19  28
ATOM     27  N   UNL     1      48.305   2.046   6.182  0.00  0.00    +0.000 N 
ATOM     28  C   UNL     1      47.252   1.418   6.789  0.00  0.00    +0.000 C 
ATOM     29  O   UNL     1      47.070   0.216   6.658  0.00  0.00    +0.000 OA
ATOM     30  H   UNL     1      48.958   1.448   5.689  0.00  0.00    +0.000 HD
ATOM     31  H   UNL     1      48.634   2.957   6.468  0.00  0.00    +0.000 HD
ENDBRANCH  19  28
ENDBRANCH  18  23
ENDBRANCH   1  18
TORSDOF 6
ENDMDL
MODEL 2
REMARK VINA RESULT:    -8.910      3.122      5.539
REMARK INTER + INTRA:         -12.857
REMARK INTER:                 -11.977
REMARK INTRA:                  -0.880
REMARK UNBOUND:                -0.822
REMARK  Name = 
REMARK  6 active torsions:
REMARK  status: ('A' for Active; 'I' for Inactive)
REMARK    1  A    between atoms: C_2  and  C_4
REMARK    2  A    between atoms: N_8  and  C_9
REMARK    3  A    between atoms: C_9  and  C_10
REMARK    4  A    between atoms: C_10  and  C_13
REMARK    5  A    between atoms: C_17  and  N_18
REMARK    6  A    between atoms: N_18  and  C_19
REMARK                            x       y       z     vdW  Elec       q    Type
REMARK                         _______ _______ _______ _____ _____    ______ ____
ROOT
ATOM      1  C   UNL     1      43.880   4.761  12.413  0.00  0.00    +0.000 C 
ATOM      2  F   UNL     1      42.895   4.913  13.349  0.00  0.00    +0.000 F 
ATOM      3  F   UNL     1      44.434   3.539  12.674  0.00  0.00    +0.000 F 
ENDROOT
BRANCH   1   4
ATOM      4  C   UNL     1      44.906   5.877  12.487  0.00  0.00    +0.000 A 
ATOM      5  C   UNL     1      46.274   5.591  12.562  0.00  0.00    +0.000 A 
ATOM      6  C   UNL     1      47.204   6.626  12.663  0.00  0.00    +0.000 A 
ATOM      7  C   UNL     1      46.777   7.957  12.703  0.00  0.00    +0.000 A 
ATOM      8  C   UNL     1      45.418   8.267  12.621  0.00  0.00    +0.000 A 
ATOM      9  C   UNL     1      44.493   7.219  12.516  0.00  0.00    +0.000 A 
BRANCH   8  10
ATOM     10  N   UNL     1      44.917   9.584  12.679  0.00  0.00    +0.000 N 
ATOM     11  H   UNL     1      44.288   9.676  13.478  0.00  0.00    +0.000 HD
BRANCH  10  12
ATOM     12  C   UNL     1      44.570  10.421  11.571  0.00  0.00    +0.000 C 
ATOM     13  C   UNL     1      43.215  11.124  11.777  0.00  0.00    +0.000 C 
ATOM     14  C   UNL     1      42.767  10.607  10.399  0.00  0.00    +0.000 C 
ATOM     15  F   UNL     1      41.530  10.060  10.355  0.00  0.00    +0.000 F 
ATOM     16  F   UNL     1      42.823  11.514   9.396  0.00  0.00    +0.000 F 
ATOM     17  C   UNL     1      43.930   9.601  10.436  0.00  0.00    +0.000 C 
ENDBRANCH  10  12
ENDBRANCH   8  10
ENDBRANCH   1   4
BRANCH   1  18
ATOM     18  C   UNL     1      43.228   4.720  11.010  0.00  0.00    +0.000 C 
BRANCH  18  23
ATOM     19  C   UNL     1      46.509   2.548   7.691  0.00  0.00    +0.000 A 
ATOM     20  C   UNL     1      45.770   2.005   8.739  0.00  0.00    +0.000 A 
ATOM     21  C   UNL     1      44.962   2.843   9.503  0.00  0.00    +0.000 A 
ATOM     22  C   UNL     1      44.908   4.208   9.222  0.00  0.00    +0.000 A 
ATOM     23  N   UNL     1      44.136   5.086   9.927  0.00  0.00    +0.000 N 
ATOM     24  N   UNL     1      45.633   4.742   8.224  0.00  0.00    +0.000 NA
ATOM     25  C   UNL     1      46.422   3.915   7.487  0.00  0.00    +0.000 A 
ATOM     26  H   UNL     1      44.190   6.050   9.613  0.00  0.00    +0.000 HD
BRANCH  19  28
ATOM     27  N   UNL     1      48.569   2.292   6.433  0.00  0.00    +0.000 N 
ATOM     28  C   UNL     1      47.382   1.736   6.823  0.00  0.00    +0.000 C 
ATOM     29  O   UNL     1      47.078   0.598   6.495  0.00  0.00    +0.000 OA
ATOM     30  H   UNL     1      49.204   1.685   5.928  0.00  0.00    +0.000 HD
ATOM     31  H   UNL     1      48.964   3.105   6.885  0.00  0.00    +0.000 HD
ENDBRANCH  19  28
ENDBRANCH  18  23
ENDBRANCH   1  18
TORSDOF 6
ENDMDL
MODEL 3
REMARK VINA RESULT:    -8.723      3.114      4.110
REMARK INTER + INTRA:         -12.604
REMARK INTER:                 -11.603
REMARK INTRA:                  -1.001
REMARK UNBOUND:                -0.822
REMARK  Name = 
REMARK  6 active torsions:
REMARK  status: ('A' for Active; 'I' for Inactive)
REMARK    1  A    between atoms: C_2  and  C_4
REMARK    2  A    between atoms: N_8  and  C_9
REMARK    3  A    between atoms: C_9  and  C_10
REMARK    4  A    between atoms: C_10  and  C_13
REMARK    5  A    between atoms: C_17  and  N_18
REMARK    6  A    between atoms: N_18  and  C_19
REMARK                            x       y       z     vdW  Elec       q    Type
REMARK                         _______ _______ _______ _____ _____    ______ ____
ROOT
ATOM      1  C   UNL     1      44.163   4.026  12.545  0.00  0.00    +0.000 C 
ATOM      2  F   UNL     1      43.306   3.884  13.601  0.00  0.00    +0.000 F 
ATOM      3  F   UNL     1      45.171   3.133  12.781  0.00  0.00    +0.000 F 
ENDROOT
BRANCH   1   4
ATOM      4  C   UNL     1      44.679   5.448  12.425  0.00  0.00    +0.000 A 
ATOM      5  C   UNL     1      44.113   6.342  11.509  0.00  0.00    +0.000 A 
ATOM      6  C   UNL     1      44.620   7.637  11.385  0.00  0.00    +0.000 A 
ATOM      7  C   UNL     1      45.705   8.046  12.165  0.00  0.00    +0.000 A 
ATOM      8  C   UNL     1      46.281   7.176  13.092  0.00  0.00    +0.000 A 
ATOM      9  C   UNL     1      45.761   5.879  13.211  0.00  0.00    +0.000 A 
BRANCH   8  10
ATOM     10  N   UNL     1      47.390   7.515  13.893  0.00  0.00    +0.000 N 
ATOM     11  H   UNL     1      47.073   8.014  14.725  0.00  0.00    +0.000 HD
BRANCH  10  12
ATOM     12  C   UNL     1      48.688   7.914  13.440  0.00  0.00    +0.000 C 
ATOM     13  C   UNL     1      48.788   9.437  13.235  0.00  0.00    +0.000 C 
ATOM     14  C   UNL     1      49.334   9.184  11.819  0.00  0.00    +0.000 C 
ATOM     15  F   UNL     1      48.776   9.931  10.837  0.00  0.00    +0.000 F 
ATOM     16  F   UNL     1      50.675   9.311  11.686  0.00  0.00    +0.000 F 
ATOM     17  C   UNL     1      48.821   7.737  11.916  0.00  0.00    +0.000 C 
ENDBRANCH  10  12
ENDBRANCH   8  10
ENDBRANCH   1   4
BRANCH   1  18
ATOM     18  C   UNL     1      43.426   3.609  11.249  0.00  0.00    +0.000 C 
BRANCH  18  23
ATOM     19  C   UNL     1      46.570   2.756   7.264  0.00  0.00    +0.000 A 
ATOM     20  C   UNL     1      46.000   3.930   7.747  0.00  0.00    +0.000 A 
ATOM     21  C   UNL     1      45.153   3.867   8.851  0.00  0.00    +0.000 A 
ATOM     22  C   UNL     1      44.880   2.639   9.453  0.00  0.00    +0.000 A 
ATOM     23  N   UNL     1      44.063   2.504  10.539  0.00  0.00    +0.000 N 
ATOM     24  N   UNL     1      45.412   1.499   8.980  0.00  0.00    +0.000 NA
ATOM     25  C   UNL     1      46.234   1.572   7.898  0.00  0.00    +0.000 A 
ATOM     26  H   UNL     1      43.955   1.553  10.876  0.00  0.00    +0.000 HD
BRANCH  19  28
ATOM     27  N   UNL     1      48.795   2.416   6.354  0.00  0.00    +0.000 N 
ATOM     28  C   UNL     1      47.486   2.729   6.108  0.00  0.00    +0.000 C 
ATOM     29  O   UNL     1      47.089   2.939   4.971  0.00  0.00    +0.000 OA
ATOM     30  H   UNL     1      49.387   2.295   5.541  0.00  0.00    +0.000 HD
ATOM     31  H   UNL     1      49.100   1.990   7.218  0.00  0.00    +0.000 HD
ENDBRANCH  19  28
ENDBRANCH  18  23
ENDBRANCH   1  18
TORSDOF 6
ENDMDL
MODEL 4
REMARK VINA RESULT:    -8.711      2.860      4.052
REMARK INTER + INTRA:         -12.589
REMARK INTER:                 -11.727
REMARK INTRA:                  -0.862
REMARK UNBOUND:                -0.822
REMARK  Name = 
REMARK  6 active torsions:
REMARK  status: ('A' for Active; 'I' for Inactive)
REMARK    1  A    between atoms: C_2  and  C_4
REMARK    2  A    between atoms: N_8  and  C_9
REMARK    3  A    between atoms: C_9  and  C_10
REMARK    4  A    between atoms: C_10  and  C_13
REMARK    5  A    between atoms: C_17  and  N_18
REMARK    6  A    between atoms: N_18  and  C_19
REMARK                            x       y       z     vdW  Elec       q    Type
REMARK                         _______ _______ _______ _____ _____    ______ ____
ROOT
ATOM      1  C   UNL     1      43.317   5.508  12.142  0.00  0.00    +0.000 C 
ATOM      2  F   UNL     1      42.889   6.751  11.769  0.00  0.00    +0.000 F 
ATOM      3  F   UNL     1      42.492   5.140  13.168  0.00  0.00    +0.000 F 
ENDROOT
BRANCH   1   4
ATOM      4  C   UNL     1      44.776   5.514  12.560  0.00  0.00    +0.000 A 
ATOM      5  C   UNL     1      45.242   4.642  13.551  0.00  0.00    +0.000 A 
ATOM      6  C   UNL     1      46.579   4.683  13.950  0.00  0.00    +0.000 A 
ATOM      7  C   UNL     1      47.460   5.603  13.373  0.00  0.00    +0.000 A 
ATOM      8  C   UNL     1      47.020   6.475  12.377  0.00  0.00    +0.000 A 
ATOM      9  C   UNL     1      45.676   6.424  11.981  0.00  0.00    +0.000 A 
BRANCH   8  10
ATOM     10  N   UNL     1      47.847   7.443  11.769  0.00  0.00    +0.000 N 
ATOM     11  H   UNL     1      47.990   7.204  10.787  0.00  0.00    +0.000 HD
BRANCH  10  12
ATOM     12  C   UNL     1      48.957   8.122  12.366  0.00  0.00    +0.000 C 
ATOM     13  C   UNL     1      48.898   9.643  12.134  0.00  0.00    +0.000 C 
ATOM     14  C   UNL     1      50.341   9.591  11.603  0.00  0.00    +0.000 C 
ATOM     15  F   UNL     1      50.563  10.267  10.451  0.00  0.00    +0.000 F 
ATOM     16  F   UNL     1      51.293   9.994  12.476  0.00  0.00    +0.000 F 
ATOM     17  C   UNL     1      50.195   8.067  11.452  0.00  0.00    +0.000 C 
ENDBRANCH  10  12
ENDBRANCH   8  10
ENDBRANCH   1   4
BRANCH   1  18
ATOM     18  C   UNL     1      43.100   4.534  10.959  0.00  0.00    +0.000 C 
BRANCH  18  23
ATOM     19  C   UNL     1      46.380   2.281   7.693  0.00  0.00    +0.000 A 
ATOM     20  C   UNL     1      45.757   1.804   8.843  0.00  0.00    +0.000 A 
ATOM     21  C   UNL     1      44.918   2.652   9.560  0.00  0.00    +0.000 A 
ATOM     22  C   UNL     1      44.716   3.963   9.130  0.00  0.00    +0.000 A 
ATOM     23  N   UNL     1      43.905   4.847   9.782  0.00  0.00    +0.000 N 
ATOM     24  N   UNL     1      45.329   4.437   8.031  0.00  0.00    +0.000 NA
ATOM     25  C   UNL     1      46.150   3.601   7.341  0.00  0.00    +0.000 A 
ATOM     26  H   UNL     1      43.848   5.768   9.357  0.00  0.00    +0.000 HD
BRANCH  19  28
ATOM     27  N   UNL     1      48.433   2.032   6.422  0.00  0.00    +0.000 N 
ATOM     28  C   UNL     1      47.275   1.452   6.866  0.00  0.00    +0.000 C 
ATOM     29  O   UNL     1      47.017   0.283   6.616  0.00  0.00    +0.000 OA
ATOM     30  H   UNL     1      49.087   1.420   5.948  0.00  0.00    +0.000 HD
ATOM     31  H   UNL     1      48.798   2.888   6.815  0.00  0.00    +0.000 HD
ENDBRANCH  19  28
ENDBRANCH  18  23
ENDBRANCH   1  18
TORSDOF 6
ENDMDL
MODEL 5
REMARK VINA RESULT:    -8.455      3.702      7.780
REMARK INTER + INTRA:         -12.243
REMARK INTER:                 -11.488
REMARK INTRA:                  -0.755
REMARK UNBOUND:                -0.822
REMARK  Name = 
REMARK  6 active torsions:
REMARK  status: ('A' for Active; 'I' for Inactive)
REMARK    1  A    between atoms: C_2  and  C_4
REMARK    2  A    between atoms: N_8  and  C_9
REMARK    3  A    between atoms: C_9  and  C_10
REMARK    4  A    between atoms: C_10  and  C_13
REMARK    5  A    between atoms: C_17  and  N_18
REMARK    6  A    between atoms: N_18  and  C_19
REMARK                            x       y       z     vdW  Elec       q    Type
REMARK                         _______ _______ _______ _____ _____    ______ ____
ROOT
ATOM      1  C   UNL     1      45.747   7.020  12.075  0.00  0.00    +0.000 C 
ATOM      2  F   UNL     1      45.507   7.727  13.220  0.00  0.00    +0.000 F 
ATOM      3  F   UNL     1      45.451   7.881  11.055  0.00  0.00    +0.000 F 
ENDROOT
BRANCH   1   4
ATOM      4  C   UNL     1      44.915   5.753  12.009  0.00  0.00    +0.000 A 
ATOM      5  C   UNL     1      43.782   5.595  12.815  0.00  0.00    +0.000 A 
ATOM      6  C   UNL     1      43.046   4.410  12.768  0.00  0.00    +0.000 A 
ATOM      7  C   UNL     1      43.441   3.367  11.926  0.00  0.00    +0.000 A 
ATOM      8  C   UNL     1      44.562   3.505  11.106  0.00  0.00    +0.000 A 
ATOM      9  C   UNL     1      45.292   4.700  11.158  0.00  0.00    +0.000 A 
BRANCH   8  10
ATOM     10  N   UNL     1      45.031   2.485  10.251  0.00  0.00    +0.000 N 
ATOM     11  H   UNL     1      45.889   2.086  10.631  0.00  0.00    +0.000 HD
BRANCH  10  12
ATOM     12  C   UNL     1      44.970   2.468   8.821  0.00  0.00    +0.000 C 
ATOM     13  C   UNL     1      46.127   1.663   8.201  0.00  0.00    +0.000 C 
ATOM     14  C   UNL     1      46.447   2.867   7.299  0.00  0.00    +0.000 C 
ATOM     15  F   UNL     1      47.755   3.210   7.226  0.00  0.00    +0.000 F 
ATOM     16  F   UNL     1      46.003   2.769   6.025  0.00  0.00    +0.000 F 
ATOM     17  C   UNL     1      45.588   3.746   8.225  0.00  0.00    +0.000 C 
ENDBRANCH  10  12
ENDBRANCH   8  10
ENDBRANCH   1   4
BRANCH   1  18
ATOM     18  C   UNL     1      47.256   6.679  12.011  0.00  0.00    +0.000 C 
BRANCH  18  23
ATOM     19  C   UNL     1      47.935   4.447  16.599  0.00  0.00    +0.000 A 
ATOM     20  C   UNL     1      47.125   4.100  15.522  0.00  0.00    +0.000 A 
ATOM     21  C   UNL     1      47.121   4.910  14.389  0.00  0.00    +0.000 A 
ATOM     22  C   UNL     1      47.915   6.057  14.348  0.00  0.00    +0.000 A 
ATOM     23  N   UNL     1      47.962   6.894  13.270  0.00  0.00    +0.000 N 
ATOM     24  N   UNL     1      48.685   6.408  15.392  0.00  0.00    +0.000 NA
ATOM     25  C   UNL     1      48.677   5.611  16.495  0.00  0.00    +0.000 A 
ATOM     26  H   UNL     1      48.585   7.690  13.375  0.00  0.00    +0.000 HD
BRANCH  19  28
ATOM     27  N   UNL     1      47.113   2.619  17.970  0.00  0.00    +0.000 N 
ATOM     28  C   UNL     1      48.011   3.643  17.834  0.00  0.00    +0.000 C 
ATOM     29  O   UNL     1      48.864   3.854  18.684  0.00  0.00    +0.000 OA
ATOM     30  H   UNL     1      47.246   2.010  18.769  0.00  0.00    +0.000 HD
ATOM     31  H   UNL     1      46.579   2.256  17.193  0.00  0.00    +0.000 HD
ENDBRANCH  19  28
ENDBRANCH  18  23
ENDBRANCH   1  18
TORSDOF 6
ENDMDL
MODEL 6
REMARK VINA RESULT:    -8.427      3.940      8.484
REMARK INTER + INTRA:         -12.206
REMARK INTER:                 -11.437
REMARK INTRA:                  -0.769
REMARK UNBOUND:                -0.822
REMARK  Name = 
REMARK  6 active torsions:
REMARK  status: ('A' for Active; 'I' for Inactive)
REMARK    1  A    between atoms: C_2  and  C_4
REMARK    2  A    between atoms: N_8  and  C_9
REMARK    3  A    between atoms: C_9  and  C_10
REMARK    4  A    between atoms: C_10  and  C_13
REMARK    5  A    between atoms: C_17  and  N_18
REMARK    6  A    between atoms: N_18  and  C_19
REMARK                            x       y       z     vdW  Elec       q    Type
REMARK                         _______ _______ _______ _____ _____    ______ ____
ROOT
ATOM      1  C   UNL     1      46.441   6.409  12.457  0.00  0.00    +0.000 C 
ATOM      2  F   UNL     1      46.106   7.414  13.322  0.00  0.00    +0.000 F 
ATOM      3  F   UNL     1      46.951   7.040  11.357  0.00  0.00    +0.000 F 
ENDROOT
BRANCH   1   4
ATOM      4  C   UNL     1      45.245   5.541  12.111  0.00  0.00    +0.000 A 
ATOM      5  C   UNL     1      43.971   5.845  12.604  0.00  0.00    +0.000 A 
ATOM      6  C   UNL     1      42.886   5.019  12.305  0.00  0.00    +0.000 A 
ATOM      7  C   UNL     1      43.066   3.875  11.522  0.00  0.00    +0.000 A 
ATOM      8  C   UNL     1      44.326   3.557  11.011  0.00  0.00    +0.000 A 
ATOM      9  C   UNL     1      45.407   4.396  11.315  0.00  0.00    +0.000 A 
BRANCH   8  10
ATOM     10  N   UNL     1      44.583   2.408  10.234  0.00  0.00    +0.000 N 
ATOM     11  H   UNL     1      45.243   1.803  10.724  0.00  0.00    +0.000 HD
BRANCH  10  12
ATOM     12  C   UNL     1      44.686   2.340   8.808  0.00  0.00    +0.000 C 
ATOM     13  C   UNL     1      46.116   2.002   8.346  0.00  0.00    +0.000 C 
ATOM     14  C   UNL     1      46.074   3.221   7.409  0.00  0.00    +0.000 C 
ATOM     15  F   UNL     1      47.169   4.016   7.438  0.00  0.00    +0.000 F 
ATOM     16  F   UNL     1      45.835   2.941   6.107  0.00  0.00    +0.000 F 
ATOM     17  C   UNL     1      44.861   3.744   8.198  0.00  0.00    +0.000 C 
ENDBRANCH  10  12
ENDBRANCH   8  10
ENDBRANCH   1   4
BRANCH   1  18
ATOM     18  C   UNL     1      47.559   5.554  13.101  0.00  0.00    +0.000 C 
BRANCH  18  23
ATOM     19  C   UNL     1      48.116   4.895  18.176  0.00  0.00    +0.000 A 
ATOM     20  C   UNL     1      48.738   5.771  17.291  0.00  0.00    +0.000 A 
ATOM     21  C   UNL     1      48.405   5.719  15.940  0.00  0.00    +0.000 A 
ATOM     22  C   UNL     1      47.467   4.791  15.487  0.00  0.00    +0.000 A 
ATOM     23  N   UNL     1      47.092   4.687  14.178  0.00  0.00    +0.000 N 
ATOM     24  N   UNL     1      46.876   3.929  16.332  0.00  0.00    +0.000 NA
ATOM     25  C   UNL     1      47.212   3.987  17.650  0.00  0.00    +0.000 A 
ATOM     26  H   UNL     1      46.397   3.970  13.989  0.00  0.00    +0.000 HD
BRANCH  19  28
ATOM     27  N   UNL     1      48.578   3.667  20.219  0.00  0.00    +0.000 N 
ATOM     28  C   UNL     1      48.397   4.886  19.623  0.00  0.00    +0.000 C 
ATOM     29  O   UNL     1      48.503   5.924  20.261  0.00  0.00    +0.000 OA
ATOM     30  H   UNL     1      48.876   3.682  21.187  0.00  0.00    +0.000 HD
ATOM     31  H   UNL     1      48.754   2.824  19.690  0.00  0.00    +0.000 HD
ENDBRANCH  19  28
ENDBRANCH  18  23
ENDBRANCH   1  18
TORSDOF 6
ENDMDL
MODEL 7
REMARK VINA RESULT:    -8.381      1.805      2.188
REMARK INTER + INTRA:         -12.143
REMARK INTER:                 -11.123
REMARK INTRA:                  -1.020
REMARK UNBOUND:                -0.822
REMARK  Name = 
REMARK  6 active torsions:
REMARK  status: ('A' for Active; 'I' for Inactive)
REMARK    1  A    between atoms: C_2  and  C_4
REMARK    2  A    between atoms: N_8  and  C_9
REMARK    3  A    between atoms: C_9  and  C_10
REMARK    4  A    between atoms: C_10  and  C_13
REMARK    5  A    between atoms: C_17  and  N_18
REMARK    6  A    between atoms: N_18  and  C_19
REMARK                            x       y       z     vdW  Elec       q    Type
REMARK                         _______ _______ _______ _____ _____    ______ ____
ROOT
ATOM      1  C   UNL     1      43.685   4.634  12.563  0.00  0.00    +0.000 C 
ATOM      2  F   UNL     1      42.605   5.102  13.258  0.00  0.00    +0.000 F 
ATOM      3  F   UNL     1      43.990   3.434  13.143  0.00  0.00    +0.000 F 
ENDROOT
BRANCH   1   4
ATOM      4  C   UNL     1      44.851   5.602  12.612  0.00  0.00    +0.000 A 
ATOM      5  C   UNL     1      44.886   6.727  11.780  0.00  0.00    +0.000 A 
ATOM      6  C   UNL     1      45.981   7.592  11.812  0.00  0.00    +0.000 A 
ATOM      7  C   UNL     1      47.058   7.335  12.666  0.00  0.00    +0.000 A 
ATOM      8  C   UNL     1      47.042   6.225  13.511  0.00  0.00    +0.000 A 
ATOM      9  C   UNL     1      45.935   5.365  13.474  0.00  0.00    +0.000 A 
BRANCH   8  10
ATOM     10  N   UNL     1      48.102   5.893  14.380  0.00  0.00    +0.000 N 
ATOM     11  H   UNL     1      48.093   4.889  14.565  0.00  0.00    +0.000 HD
BRANCH  10  12
ATOM     12  C   UNL     1      48.597   6.676  15.471  0.00  0.00    +0.000 C 
ATOM     13  C   UNL     1      50.059   7.111  15.256  0.00  0.00    +0.000 C 
ATOM     14  C   UNL     1      50.402   6.551  16.648  0.00  0.00    +0.000 C 
ATOM     15  F   UNL     1      51.517   5.785  16.709  0.00  0.00    +0.000 F 
ATOM     16  F   UNL     1      50.514   7.475  17.630  0.00  0.00    +0.000 F 
ATOM     17  C   UNL     1      49.073   5.777  16.627  0.00  0.00    +0.000 C 
ENDBRANCH  10  12
ENDBRANCH   8  10
ENDBRANCH   1   4
BRANCH   1  18
ATOM     18  C   UNL     1      43.257   4.379  11.096  0.00  0.00    +0.000 C 
BRANCH  18  23
ATOM     19  C   UNL     1      46.471   2.841   7.381  0.00  0.00    +0.000 A 
ATOM     20  C   UNL     1      46.002   4.107   7.722  0.00  0.00    +0.000 A 
ATOM     21  C   UNL     1      45.106   4.234   8.781  0.00  0.00    +0.000 A 
ATOM     22  C   UNL     1      44.682   3.102   9.478  0.00  0.00    +0.000 A 
ATOM     23  N   UNL     1      43.809   3.154  10.526  0.00  0.00    +0.000 N 
ATOM     24  N   UNL     1      45.116   1.875   9.142  0.00  0.00    +0.000 NA
ATOM     25  C   UNL     1      45.988   1.762   8.103  0.00  0.00    +0.000 A 
ATOM     26  H   UNL     1      43.589   2.255  10.943  0.00  0.00    +0.000 HD
BRANCH  19  28
ATOM     27  N   UNL     1      48.653   2.100   6.617  0.00  0.00    +0.000 N 
ATOM     28  C   UNL     1      47.429   2.612   6.283  0.00  0.00    +0.000 C 
ATOM     29  O   UNL     1      47.133   2.835   5.118  0.00  0.00    +0.000 OA
ATOM     30  H   UNL     1      49.258   1.847   5.845  0.00  0.00    +0.000 HD
ATOM     31  H   UNL     1      48.836   1.668   7.512  0.00  0.00    +0.000 HD
ENDBRANCH  19  28
ENDBRANCH  18  23
ENDBRANCH   1  18
TORSDOF 6
ENDMDL
MODEL 8
REMARK VINA RESULT:    -7.536      4.129      8.651
REMARK INTER + INTRA:         -11.001
REMARK INTER:                 -10.076
REMARK INTRA:                  -0.925
REMARK UNBOUND:                -0.822
REMARK  Name = 
REMARK  6 active torsions:
REMARK  status: ('A' for Active; 'I' for Inactive)
REMARK    1  A    between atoms: C_2  and  C_4
REMARK    2  A    between atoms: N_8  and  C_9
REMARK    3  A    between atoms: C_9  and  C_10
REMARK    4  A    between atoms: C_10  and  C_13
REMARK    5  A    between atoms: C_17  and  N_18
REMARK    6  A    between atoms: N_18  and  C_19
REMARK                            x       y       z     vdW  Elec       q    Type
REMARK                         _______ _______ _______ _____ _____    ______ ____
ROOT
ATOM      1  C   UNL     1      46.841   4.368  13.642  0.00  0.00    +0.000 C 
ATOM      2  F   UNL     1      47.713   5.271  13.100  0.00  0.00    +0.000 F 
ATOM      3  F   UNL     1      47.517   3.179  13.650  0.00  0.00    +0.000 F 
ENDROOT
BRANCH   1   4
ATOM      4  C   UNL     1      45.550   4.282  12.849  0.00  0.00    +0.000 A 
ATOM      5  C   UNL     1      44.483   5.147  13.119  0.00  0.00    +0.000 A 
ATOM      6  C   UNL     1      43.290   5.035  12.404  0.00  0.00    +0.000 A 
ATOM      7  C   UNL     1      43.146   4.049  11.423  0.00  0.00    +0.000 A 
ATOM      8  C   UNL     1      44.199   3.182  11.130  0.00  0.00    +0.000 A 
ATOM      9  C   UNL     1      45.394   3.306  11.851  0.00  0.00    +0.000 A 
BRANCH   8  10
ATOM     10  N   UNL     1      44.114   2.152  10.170  0.00  0.00    +0.000 N 
ATOM     11  H   UNL     1      44.373   1.262  10.598  0.00  0.00    +0.000 HD
BRANCH  10  12
ATOM     12  C   UNL     1      44.445   2.242   8.780  0.00  0.00    +0.000 C 
ATOM     13  C   UNL     1      45.965   2.173   8.541  0.00  0.00    +0.000 C 
ATOM     14  C   UNL     1      45.865   3.459   7.702  0.00  0.00    +0.000 C 
ATOM     15  F   UNL     1      46.795   4.405   7.972  0.00  0.00    +0.000 F 
ATOM     16  F   UNL     1      45.879   3.276   6.361  0.00  0.00    +0.000 F 
ATOM     17  C   UNL     1      44.476   3.709   8.313  0.00  0.00    +0.000 C 
ENDBRANCH  10  12
ENDBRANCH   8  10
ENDBRANCH   1   4
BRANCH   1  18
ATOM     18  C   UNL     1      46.548   4.780  15.106  0.00  0.00    +0.000 C 
BRANCH  18  23
ATOM     19  C   UNL     1      50.719   4.106  18.045  0.00  0.00    +0.000 A 
ATOM     20  C   UNL     1      49.748   3.207  17.611  0.00  0.00    +0.000 A 
ATOM     21  C   UNL     1      48.696   3.674  16.827  0.00  0.00    +0.000 A 
ATOM     22  C   UNL     1      48.621   5.027  16.493  0.00  0.00    +0.000 A 
ATOM     23  N   UNL     1      47.620   5.552  15.726  0.00  0.00    +0.000 N 
ATOM     24  N   UNL     1      49.544   5.903  16.924  0.00  0.00    +0.000 NA
ATOM     25  C   UNL     1      50.565   5.436  17.693  0.00  0.00    +0.000 A 
ATOM     26  H   UNL     1      47.690   6.551  15.559  0.00  0.00    +0.000 HD
BRANCH  19  28
ATOM     27  N   UNL     1      52.517   2.543  18.518  0.00  0.00    +0.000 N 
ATOM     28  C   UNL     1      51.873   3.699  18.869  0.00  0.00    +0.000 C 
ATOM     29  O   UNL     1      52.265   4.382  19.804  0.00  0.00    +0.000 OA
ATOM     30  H   UNL     1      53.369   2.334  19.024  0.00  0.00    +0.000 HD
ATOM     31  H   UNL     1      52.389   2.101  17.618  0.00  0.00    +0.000 HD
ENDBRANCH  19  28
ENDBRANCH  18  23
ENDBRANCH   1  18
TORSDOF 6
ENDMDL
MODEL 9
REMARK VINA RESULT:    -7.499      4.364      7.683
REMARK INTER + INTRA:         -10.952
REMARK INTER:                 -10.001
REMARK INTRA:                  -0.951
REMARK UNBOUND:                -0.822
REMARK  Name = 
REMARK  6 active torsions:
REMARK  status: ('A' for Active; 'I' for Inactive)
REMARK    1  A    between atoms: C_2  and  C_4
REMARK    2  A    between atoms: N_8  and  C_9
REMARK    3  A    between atoms: C_9  and  C_10
REMARK    4  A    between atoms: C_10  and  C_13
REMARK    5  A    between atoms: C_17  and  N_18
REMARK    6  A    between atoms: N_18  and  C_19
REMARK                            x       y       z     vdW  Elec       q    Type
REMARK                         _______ _______ _______ _____ _____    ______ ____
ROOT
ATOM      1  C   UNL     1      46.479   5.192  13.618  0.00  0.00    +0.000 C 
ATOM      2  F   UNL     1      47.636   4.630  13.155  0.00  0.00    +0.000 F 
ATOM      3  F   UNL     1      46.369   4.768  14.913  0.00  0.00    +0.000 F 
ENDROOT
BRANCH   1   4
ATOM      4  C   UNL     1      45.280   4.783  12.783  0.00  0.00    +0.000 A 
ATOM      5  C   UNL     1      44.045   5.425  12.937  0.00  0.00    +0.000 A 
ATOM      6  C   UNL     1      42.942   5.017  12.186  0.00  0.00    +0.000 A 
ATOM      7  C   UNL     1      43.057   3.955  11.284  0.00  0.00    +0.000 A 
ATOM      8  C   UNL     1      44.280   3.306  11.106  0.00  0.00    +0.000 A 
ATOM      9  C   UNL     1      45.382   3.727  11.863  0.00  0.00    +0.000 A 
BRANCH   8  10
ATOM     10  N   UNL     1      44.461   2.214  10.232  0.00  0.00    +0.000 N 
ATOM     11  H   UNL     1      45.062   1.517  10.673  0.00  0.00    +0.000 HD
BRANCH  10  12
ATOM     12  C   UNL     1      44.588   2.266   8.806  0.00  0.00    +0.000 C 
ATOM     13  C   UNL     1      46.023   1.960   8.340  0.00  0.00    +0.000 C 
ATOM     14  C   UNL     1      46.001   3.254   7.509  0.00  0.00    +0.000 C 
ATOM     15  F   UNL     1      47.099   4.039   7.622  0.00  0.00    +0.000 F 
ATOM     16  F   UNL     1      45.782   3.086   6.184  0.00  0.00    +0.000 F 
ATOM     17  C   UNL     1      44.778   3.715   8.320  0.00  0.00    +0.000 C 
ENDBRANCH  10  12
ENDBRANCH   8  10
ENDBRANCH   1   4
BRANCH   1  18
ATOM     18  C   UNL     1      46.640   6.731  13.613  0.00  0.00    +0.000 C 
BRANCH  18  23
ATOM     19  C   UNL     1      51.292   8.366  12.138  0.00  0.00    +0.000 A 
ATOM     20  C   UNL     1      50.215   7.879  11.402  0.00  0.00    +0.000 A 
ATOM     21  C   UNL     1      49.062   7.481  12.073  0.00  0.00    +0.000 A 
ATOM     22  C   UNL     1      48.999   7.564  13.464  0.00  0.00    +0.000 A 
ATOM     23  N   UNL     1      47.900   7.194  14.186  0.00  0.00    +0.000 N 
ATOM     24  N   UNL     1      50.042   8.015  14.182  0.00  0.00    +0.000 NA
ATOM     25  C   UNL     1      51.165   8.397  13.516  0.00  0.00    +0.000 A 
ATOM     26  H   UNL     1      47.991   7.309  15.191  0.00  0.00    +0.000 HD
BRANCH  19  28
ATOM     27  N   UNL     1      52.506   9.991  10.803  0.00  0.00    +0.000 N 
ATOM     28  C   UNL     1      52.548   8.821  11.511  0.00  0.00    +0.000 C 
ATOM     29  O   UNL     1      53.593   8.201  11.648  0.00  0.00    +0.000 OA
ATOM     30  H   UNL     1      53.395  10.345  10.471  0.00  0.00    +0.000 HD
ATOM     31  H   UNL     1      51.744  10.649  10.885  0.00  0.00    +0.000 HD
ENDBRANCH  19  28
ENDBRANCH  18  23
ENDBRANCH   1  18
TORSDOF 6
ENDMDL
