MODEL 1
REMARK VINA RESULT:    -6.231      0.000      0.000
REMARK INTER + INTRA:          -7.722
REMARK INTER:                  -7.507
REMARK INTRA:                  -0.216
REMARK UNBOUND:                -0.216
REMARK  Name = 
REMARK  4 active torsions:
REMARK  status: ('A' for Active; 'I' for Inactive)
REMARK    1  A    between atoms: N_1  and  C_2
REMARK    2  A    between atoms: C_2  and  C_3
REMARK    3  A    between atoms: N_6  and  C_7
REMARK    4  A    between atoms: C_7  and  C_8
REMARK                            x       y       z     vdW  Elec       q    Type
REMARK                         _______ _______ _______ _____ _____    ______ ____
ROOT
ATOM      1  C   UNL     1      48.001   7.809  13.560  0.00  0.00    +0.000 C 
ATOM      2  C   UNL     1      47.500   6.365  13.683  0.00  0.00    +0.000 C 
ATOM      3  C   UNL     1      46.430   6.038  12.633  0.00  0.00    +0.000 C 
ATOM      4  N   UNL     1      45.282   6.962  12.670  0.00  0.00    +0.000 NA
ATOM      5  C   UNL     1      45.706   8.378  12.618  0.00  0.00    +0.000 C 
ATOM      6  C   UNL     1      46.776   8.728  13.652  0.00  0.00    +0.000 C 
ENDROOT
BRANCH   1   7
ATOM      7  C   UNL     1      48.836   7.988  12.275  0.00  0.00    +0.000 C 
BRANCH   7   8
ATOM      8  N   UNL     1      49.996   7.106  12.215  0.00  0.00    +0.000 NA
ATOM      9  H   UNL     1      49.866   6.433  11.458  0.00  0.00    +0.000 HD
ATOM     10  H   UNL     1      50.060   6.560  13.072  0.00  0.00    +0.000 HD
ENDBRANCH   7   8
ENDBRANCH   1   7
BRANCH   4  11
ATOM     11  C   UNL     1      44.392   6.645  11.522  0.00  0.00    +0.000 C 
BRANCH  11  12
ATOM     12  C   UNL     1      44.243   5.167  11.243  0.00  0.00    +0.000 A 
ATOM     13  N   UNL     1      43.487   4.460  12.089  0.00  0.00    +0.000 NA
ATOM     14  S   UNL     1      43.374   2.906  11.551  0.00  0.00    +0.000 S 
ATOM     15  C   UNL     1      44.313   3.122  10.131  0.00  0.00    +0.000 A 
ATOM     16  C   UNL     1      44.605   2.199   9.113  0.00  0.00    +0.000 A 
ATOM     17  C   UNL     1      45.399   2.623   8.046  0.00  0.00    +0.000 A 
ATOM     18  C   UNL     1      45.918   3.913   8.020  0.00  0.00    +0.000 A 
ATOM     19  C   UNL     1      45.634   4.818   9.047  0.00  0.00    +0.000 A 
ATOM     20  C   UNL     1      44.784   4.438  10.114  0.00  0.00    +0.000 A 
ENDBRANCH  11  12
ENDBRANCH   4  11
TORSDOF 4
ENDMDL
MODEL 2
REMARK VINA RESULT:    -6.199      2.603      3.858
REMARK INTER + INTRA:          -7.683
REMARK INTER:                  -8.214
REMARK INTRA:                   0.531
REMARK UNBOUND:                -0.216
REMARK  Name = 
REMARK  4 active torsions:
REMARK  status: ('A' for Active; 'I' for Inactive)
REMARK    1  A    between atoms: N_1  and  C_2
REMARK    2  A    between atoms: C_2  and  C_3
REMARK    3  A    between atoms: N_6  and  C_7
REMARK    4  A    between atoms: C_7  and  C_8
REMARK                            x       y       z     vdW  Elec       q    Type
REMARK                         _______ _______ _______ _____ _____    ______ ____
ROOT
ATOM      1  C   UNL     1      44.632   5.909  13.093  0.00  0.00    +0.000 C 
ATOM      2  C   UNL     1      45.497   4.650  13.227  0.00  0.00    +0.000 C 
ATOM      3  C   UNL     1      45.342   3.715  12.020  0.00  0.00    +0.000 C 
ATOM      4  N   UNL     1      43.942   3.327  11.765  0.00  0.00    +0.000 NA
ATOM      5  C   UNL     1      43.045   4.500  11.688  0.00  0.00    +0.000 C 
ATOM      6  C   UNL     1      43.185   5.449  12.878  0.00  0.00    +0.000 C 
ENDROOT
BRANCH   1   7
ATOM      7  C   UNL     1      45.180   6.829  11.982  0.00  0.00    +0.000 C 
BRANCH   7   8
ATOM      8  N   UNL     1      44.166   7.711  11.414  0.00  0.00    +0.000 NA
ATOM      9  H   UNL     1      43.609   7.188  10.737  0.00  0.00    +0.000 HD
ATOM     10  H   UNL     1      44.614   8.461  10.891  0.00  0.00    +0.000 HD
ENDBRANCH   7   8
ENDBRANCH   1   7
BRANCH   4  11
ATOM     11  C   UNL     1      43.897   2.555  10.495  0.00  0.00    +0.000 C 
BRANCH  11  12
ATOM     12  C   UNL     1      44.794   3.098   9.408  0.00  0.00    +0.000 A 
ATOM     13  N   UNL     1      44.851   4.427   9.270  0.00  0.00    +0.000 NA
ATOM     14  S   UNL     1      45.954   4.808   8.106  0.00  0.00    +0.000 S 
ATOM     15  C   UNL     1      46.433   3.198   7.755  0.00  0.00    +0.000 A 
ATOM     16  C   UNL     1      47.421   2.741   6.868  0.00  0.00    +0.000 A 
ATOM     17  C   UNL     1      47.627   1.364   6.761  0.00  0.00    +0.000 A 
ATOM     18  C   UNL     1      46.841   0.474   7.486  0.00  0.00    +0.000 A 
ATOM     19  C   UNL     1      45.850   0.940   8.354  0.00  0.00    +0.000 A 
ATOM     20  C   UNL     1      45.656   2.332   8.529  0.00  0.00    +0.000 A 
ENDBRANCH  11  12
ENDBRANCH   4  11
TORSDOF 4
ENDMDL
MODEL 3
REMARK VINA RESULT:    -5.923      3.250      6.638
REMARK INTER + INTRA:          -7.351
REMARK INTER:                  -7.014
REMARK INTRA:                  -0.336
REMARK UNBOUND:                -0.216
REMARK  Name = 
REMARK  4 active torsions:
REMARK  status: ('A' for Active; 'I' for Inactive)
REMARK    1  A    between atoms: N_1  and  C_2
REMARK    2  A    between atoms: C_2  and  C_3
REMARK    3  A    between atoms: N_6  and  C_7
REMARK    4  A    between atoms: C_7  and  C_8
REMARK                            x       y       z     vdW  Elec       q    Type
REMARK                         _______ _______ _______ _____ _____    ______ ____
ROOT
ATOM      1  C   UNL     1      42.977   4.504  11.601  0.00  0.00    +0.000 C 
ATOM      2  C   UNL     1      43.259   5.213  12.931  0.00  0.00    +0.000 C 
ATOM      3  C   UNL     1      44.751   5.190  13.289  0.00  0.00    +0.000 C 
ATOM      4  N   UNL     1      45.314   3.827  13.328  0.00  0.00    +0.000 NA
ATOM      5  C   UNL     1      45.020   3.069  12.093  0.00  0.00    +0.000 C 
ATOM      6  C   UNL     1      43.540   3.082  11.712  0.00  0.00    +0.000 C 
ENDROOT
BRANCH   1   7
ATOM      7  C   UNL     1      43.540   5.321  10.418  0.00  0.00    +0.000 C 
BRANCH   7   8
ATOM      8  N   UNL     1      43.720   4.529   9.206  0.00  0.00    +0.000 NA
ATOM      9  H   UNL     1      44.612   4.035   9.260  0.00  0.00    +0.000 HD
ATOM     10  H   UNL     1      43.786   5.145   8.398  0.00  0.00    +0.000 HD
ENDBRANCH   7   8
ENDBRANCH   1   7
BRANCH   4  11
ATOM     11  C   UNL     1      46.783   3.937  13.532  0.00  0.00    +0.000 C 
BRANCH  11  12
ATOM     12  C   UNL     1      47.184   4.405  14.912  0.00  0.00    +0.000 A 
ATOM     13  N   UNL     1      46.887   3.602  15.939  0.00  0.00    +0.000 NA
ATOM     14  S   UNL     1      47.497   4.247  17.328  0.00  0.00    +0.000 S 
ATOM     15  C   UNL     1      48.221   5.623  16.605  0.00  0.00    +0.000 A 
ATOM     16  C   UNL     1      48.998   6.631  17.200  0.00  0.00    +0.000 A 
ATOM     17  C   UNL     1      49.482   7.658  16.386  0.00  0.00    +0.000 A 
ATOM     18  C   UNL     1      49.164   7.697  15.032  0.00  0.00    +0.000 A 
ATOM     19  C   UNL     1      48.376   6.696  14.455  0.00  0.00    +0.000 A 
ATOM     20  C   UNL     1      47.918   5.611  15.240  0.00  0.00    +0.000 A 
ENDBRANCH  11  12
ENDBRANCH   4  11
TORSDOF 4
ENDMDL
MODEL 4
REMARK VINA RESULT:    -5.769      2.375      6.119
REMARK INTER + INTRA:          -7.165
REMARK INTER:                  -6.832
REMARK INTRA:                  -0.333
REMARK UNBOUND:                -0.216
REMARK  Name = 
REMARK  4 active torsions:
REMARK  status: ('A' for Active; 'I' for Inactive)
REMARK    1  A    between atoms: N_1  and  C_2
REMARK    2  A    between atoms: C_2  and  C_3
REMARK    3  A    between atoms: N_6  and  C_7
REMARK    4  A    between atoms: C_7  and  C_8
REMARK                            x       y       z     vdW  Elec       q    Type
REMARK                         _______ _______ _______ _____ _____    ______ ____
ROOT
ATOM      1  C   UNL     1      44.641   2.894   8.883  0.00  0.00    +0.000 C 
ATOM      2  C   UNL     1      44.639   4.423   8.763  0.00  0.00    +0.000 C 
ATOM      3  C   UNL     1      45.476   5.087   9.865  0.00  0.00    +0.000 C 
ATOM      4  N   UNL     1      45.055   4.698  11.224  0.00  0.00    +0.000 NA
ATOM      5  C   UNL     1      44.978   3.230  11.383  0.00  0.00    +0.000 C 
ATOM      6  C   UNL     1      44.153   2.545  10.294  0.00  0.00    +0.000 C 
ENDROOT
BRANCH   1   7
ATOM      7  C   UNL     1      46.031   2.323   8.531  0.00  0.00    +0.000 C 
BRANCH   7   8
ATOM      8  N   UNL     1      46.027   0.878   8.335  0.00  0.00    +0.000 NA
ATOM      9  H   UNL     1      46.212   0.673   7.352  0.00  0.00    +0.000 HD
ATOM     10  H   UNL     1      45.101   0.505   8.533  0.00  0.00    +0.000 HD
ENDBRANCH   7   8
ENDBRANCH   1   7
BRANCH   4  11
ATOM     11  C   UNL     1      46.024   5.275  12.193  0.00  0.00    +0.000 C 
BRANCH  11  12
ATOM     12  C   UNL     1      46.084   6.785  12.184  0.00  0.00    +0.000 A 
ATOM     13  N   UNL     1      44.954   7.443  12.461  0.00  0.00    +0.000 NA
ATOM     14  S   UNL     1      45.261   9.062  12.499  0.00  0.00    +0.000 S 
ATOM     15  C   UNL     1      46.943   8.950  12.177  0.00  0.00    +0.000 A 
ATOM     16  C   UNL     1      47.903   9.974  12.117  0.00  0.00    +0.000 A 
ATOM     17  C   UNL     1      49.225   9.622  11.837  0.00  0.00    +0.000 A 
ATOM     18  C   UNL     1      49.566   8.297  11.583  0.00  0.00    +0.000 A 
ATOM     19  C   UNL     1      48.598   7.290  11.629  0.00  0.00    +0.000 A 
ATOM     20  C   UNL     1      47.260   7.605  11.968  0.00  0.00    +0.000 A 
ENDBRANCH  11  12
ENDBRANCH   4  11
TORSDOF 4
ENDMDL
MODEL 5
REMARK VINA RESULT:    -5.612      2.844      6.260
REMARK INTER + INTRA:          -6.975
REMARK INTER:                  -6.663
REMARK INTRA:                  -0.312
REMARK UNBOUND:                -0.216
REMARK  Name = 
REMARK  4 active torsions:
REMARK  status: ('A' for Active; 'I' for Inactive)
REMARK    1  A    between atoms: N_1  and  C_2
REMARK    2  A    between atoms: C_2  and  C_3
REMARK    3  A    between atoms: N_6  and  C_7
REMARK    4  A    between atoms: C_7  and  C_8
REMARK                            x       y       z     vdW  Elec       q    Type
REMARK                         _______ _______ _______ _____ _____    ______ ____
ROOT
ATOM      1  C   UNL     1      43.371   4.120  10.936  0.00  0.00    +0.000 C 
ATOM      2  C   UNL     1      44.499   4.778  10.133  0.00  0.00    +0.000 C 
ATOM      3  C   UNL     1      45.512   5.488  11.042  0.00  0.00    +0.000 C 
ATOM      4  N   UNL     1      44.890   6.489  11.929  0.00  0.00    +0.000 NA
ATOM      5  C   UNL     1      43.750   5.928  12.686  0.00  0.00    +0.000 C 
ATOM      6  C   UNL     1      42.730   5.211  11.802  0.00  0.00    +0.000 C 
ENDROOT
BRANCH   1   7
ATOM      7  C   UNL     1      43.902   2.907  11.729  0.00  0.00    +0.000 C 
BRANCH   7   8
ATOM      8  N   UNL     1      42.969   1.786  11.759  0.00  0.00    +0.000 NA
ATOM      9  H   UNL     1      42.030   2.127  11.548  0.00  0.00    +0.000 HD
ATOM     10  H   UNL     1      42.926   1.398  12.699  0.00  0.00    +0.000 HD
ENDBRANCH   7   8
ENDBRANCH   1   7
BRANCH   4  11
ATOM     11  C   UNL     1      45.932   6.997  12.860  0.00  0.00    +0.000 C 
BRANCH  11  12
ATOM     12  C   UNL     1      46.630   8.250  12.384  0.00  0.00    +0.000 A 
ATOM     13  N   UNL     1      45.917   9.380  12.376  0.00  0.00    +0.000 NA
ATOM     14  S   UNL     1      46.888  10.634  11.925  0.00  0.00    +0.000 S 
ATOM     15  C   UNL     1      48.327   9.715  11.752  0.00  0.00    +0.000 A 
ATOM     16  C   UNL     1      49.623  10.151  11.433  0.00  0.00    +0.000 A 
ATOM     17  C   UNL     1      50.639   9.197  11.354  0.00  0.00    +0.000 A 
ATOM     18  C   UNL     1      50.359   7.848  11.546  0.00  0.00    +0.000 A 
ATOM     19  C   UNL     1      49.061   7.425  11.847  0.00  0.00    +0.000 A 
ATOM     20  C   UNL     1      48.020   8.373  11.992  0.00  0.00    +0.000 A 
ENDBRANCH  11  12
ENDBRANCH   4  11
TORSDOF 4
ENDMDL
MODEL 6
REMARK VINA RESULT:    -5.408      4.272      5.580
REMARK INTER + INTRA:          -6.730
REMARK INTER:                  -6.916
REMARK INTRA:                   0.187
REMARK UNBOUND:                -0.216
REMARK  Name = 
REMARK  4 active torsions:
REMARK  status: ('A' for Active; 'I' for Inactive)
REMARK    1  A    between atoms: N_1  and  C_2
REMARK    2  A    between atoms: C_2  and  C_3
REMARK    3  A    between atoms: N_6  and  C_7
REMARK    4  A    between atoms: C_7  and  C_8
REMARK                            x       y       z     vdW  Elec       q    Type
REMARK                         _______ _______ _______ _____ _____    ______ ____
ROOT
ATOM      1  C   UNL     1      49.798   4.368  18.591  0.00  0.00    +0.000 C 
ATOM      2  C   UNL     1      49.732   5.565  17.634  0.00  0.00    +0.000 C 
ATOM      3  C   UNL     1      48.460   5.545  16.776  0.00  0.00    +0.000 C 
ATOM      4  N   UNL     1      48.298   4.294  16.012  0.00  0.00    +0.000 NA
ATOM      5  C   UNL     1      48.414   3.097  16.874  0.00  0.00    +0.000 C 
ATOM      6  C   UNL     1      49.672   3.097  17.742  0.00  0.00    +0.000 C 
ENDROOT
BRANCH   1   7
ATOM      7  C   UNL     1      48.734   4.500  19.701  0.00  0.00    +0.000 C 
BRANCH   7   8
ATOM      8  N   UNL     1      48.356   3.221  20.292  0.00  0.00    +0.000 NA
ATOM      9  H   UNL     1      49.141   2.858  20.834  0.00  0.00    +0.000 HD
ATOM     10  H   UNL     1      48.181   2.540  19.556  0.00  0.00    +0.000 HD
ENDBRANCH   7   8
ENDBRANCH   1   7
BRANCH   4  11
ATOM     11  C   UNL     1      46.970   4.326  15.345  0.00  0.00    +0.000 C 
BRANCH  11  12
ATOM     12  C   UNL     1      46.939   5.124  14.062  0.00  0.00    +0.000 A 
ATOM     13  N   UNL     1      47.955   5.965  13.843  0.00  0.00    +0.000 NA
ATOM     14  S   UNL     1      47.780   6.654  12.355  0.00  0.00    +0.000 S 
ATOM     15  C   UNL     1      46.342   5.825  11.923  0.00  0.00    +0.000 A 
ATOM     16  C   UNL     1      45.620   5.871  10.718  0.00  0.00    +0.000 A 
ATOM     17  C   UNL     1      44.468   5.090  10.609  0.00  0.00    +0.000 A 
ATOM     18  C   UNL     1      44.029   4.323  11.683  0.00  0.00    +0.000 A 
ATOM     19  C   UNL     1      44.747   4.297  12.883  0.00  0.00    +0.000 A 
ATOM     20  C   UNL     1      45.951   5.032  13.005  0.00  0.00    +0.000 A 
ENDBRANCH  11  12
ENDBRANCH   4  11
TORSDOF 4
ENDMDL
MODEL 7
REMARK VINA RESULT:    -5.393      3.635      5.273
REMARK INTER + INTRA:          -6.712
REMARK INTER:                  -6.403
REMARK INTRA:                  -0.309
REMARK UNBOUND:                -0.216
REMARK  Name = 
REMARK  4 active torsions:
REMARK  status: ('A' for Active; 'I' for Inactive)
REMARK    1  A    between atoms: N_1  and  C_2
REMARK    2  A    between atoms: C_2  and  C_3
REMARK    3  A    between atoms: N_6  and  C_7
REMARK    4  A    between atoms: C_7  and  C_8
REMARK                            x       y       z     vdW  Elec       q    Type
REMARK                         _______ _______ _______ _____ _____    ______ ____
ROOT
ATOM      1  C   UNL     1      48.935   4.149  18.211  0.00  0.00    +0.000 C 
ATOM      2  C   UNL     1      48.167   2.874  17.843  0.00  0.00    +0.000 C 
ATOM      3  C   UNL     1      47.941   2.755  16.329  0.00  0.00    +0.000 C 
ATOM      4  N   UNL     1      47.255   3.927  15.754  0.00  0.00    +0.000 NA
ATOM      5  C   UNL     1      47.916   5.197  16.127  0.00  0.00    +0.000 C 
ATOM      6  C   UNL     1      48.156   5.335  17.630  0.00  0.00    +0.000 C 
ENDROOT
BRANCH   1   7
ATOM      7  C   UNL     1      50.401   4.057  17.737  0.00  0.00    +0.000 C 
BRANCH   7   8
ATOM      8  N   UNL     1      51.057   2.815  18.134  0.00  0.00    +0.000 NA
ATOM      9  H   UNL     1      50.837   2.619  19.111  0.00  0.00    +0.000 HD
ATOM     10  H   UNL     1      52.067   2.929  18.087  0.00  0.00    +0.000 HD
ENDBRANCH   7   8
ENDBRANCH   1   7
BRANCH   4  11
ATOM     11  C   UNL     1      47.229   3.771  14.275  0.00  0.00    +0.000 C 
BRANCH  11  12
ATOM     12  C   UNL     1      46.181   4.610  13.582  0.00  0.00    +0.000 A 
ATOM     13  N   UNL     1      44.941   4.115  13.529  0.00  0.00    +0.000 NA
ATOM     14  S   UNL     1      43.941   5.223  12.827  0.00  0.00    +0.000 S 
ATOM     15  C   UNL     1      45.131   6.437  12.591  0.00  0.00    +0.000 A 
ATOM     16  C   UNL     1      44.981   7.735  12.073  0.00  0.00    +0.000 A 
ATOM     17  C   UNL     1      46.116   8.543  11.983  0.00  0.00    +0.000 A 
ATOM     18  C   UNL     1      47.364   8.056  12.359  0.00  0.00    +0.000 A 
ATOM     19  C   UNL     1      47.502   6.757  12.858  0.00  0.00    +0.000 A 
ATOM     20  C   UNL     1      46.362   5.932  13.016  0.00  0.00    +0.000 A 
ENDBRANCH  11  12
ENDBRANCH   4  11
TORSDOF 4
ENDMDL
MODEL 8
REMARK VINA RESULT:    -5.370      3.402      6.785
REMARK INTER + INTRA:          -6.685
REMARK INTER:                  -6.346
REMARK INTRA:                  -0.339
REMARK UNBOUND:                -0.216
REMARK  Name = 
REMARK  4 active torsions:
REMARK  status: ('A' for Active; 'I' for Inactive)
REMARK    1  A    between atoms: N_1  and  C_2
REMARK    2  A    between atoms: C_2  and  C_3
REMARK    3  A    between atoms: N_6  and  C_7
REMARK    4  A    between atoms: C_7  and  C_8
REMARK                            x       y       z     vdW  Elec       q    Type
REMARK                         _______ _______ _______ _____ _____    ______ ____
ROOT
ATOM      1  C   UNL     1      43.567   4.916  11.574  0.00  0.00    +0.000 C 
ATOM      2  C   UNL     1      44.183   6.318  11.496  0.00  0.00    +0.000 C 
ATOM      3  C   UNL     1      45.687   6.302  11.800  0.00  0.00    +0.000 C 
ATOM      4  N   UNL     1      46.007   5.696  13.106  0.00  0.00    +0.000 NA
ATOM      5  C   UNL     1      45.386   4.363  13.266  0.00  0.00    +0.000 C 
ATOM      6  C   UNL     1      43.887   4.352  12.964  0.00  0.00    +0.000 C 
ENDROOT
BRANCH   1   7
ATOM      7  C   UNL     1      44.059   4.040  10.402  0.00  0.00    +0.000 C 
BRANCH   7   8
ATOM      8  N   UNL     1      43.757   4.608   9.093  0.00  0.00    +0.000 NA
ATOM      9  H   UNL     1      42.801   4.359   8.833  0.00  0.00    +0.000 HD
ATOM     10  H   UNL     1      44.360   4.190   8.388  0.00  0.00    +0.000 HD
ENDBRANCH   7   8
ENDBRANCH   1   7
BRANCH   4  11
ATOM     11  C   UNL     1      47.486   5.597  13.223  0.00  0.00    +0.000 C 
BRANCH  11  12
ATOM     12  C   UNL     1      48.027   5.981  14.581  0.00  0.00    +0.000 A 
ATOM     13  N   UNL     1      48.555   7.202  14.704  0.00  0.00    +0.000 NA
ATOM     14  S   UNL     1      48.989   7.453  16.275  0.00  0.00    +0.000 S 
ATOM     15  C   UNL     1      48.453   5.936  16.870  0.00  0.00    +0.000 A 
ATOM     16  C   UNL     1      48.449   5.453  18.190  0.00  0.00    +0.000 A 
ATOM     17  C   UNL     1      47.951   4.169  18.421  0.00  0.00    +0.000 A 
ATOM     18  C   UNL     1      47.512   3.380  17.363  0.00  0.00    +0.000 A 
ATOM     19  C   UNL     1      47.535   3.866  16.052  0.00  0.00    +0.000 A 
ATOM     20  C   UNL     1      47.979   5.185  15.791  0.00  0.00    +0.000 A 
ENDBRANCH  11  12
ENDBRANCH   4  11
TORSDOF 4
ENDMDL
MODEL 9
REMARK VINA RESULT:    -5.336      3.415      4.674
REMARK INTER + INTRA:          -6.643
REMARK INTER:                  -6.456
REMARK INTRA:                  -0.187
REMARK UNBOUND:                -0.216
REMARK  Name = 
REMARK  4 active torsions:
REMARK  status: ('A' for Active; 'I' for Inactive)
REMARK    1  A    between atoms: N_1  and  C_2
REMARK    2  A    between atoms: C_2  and  C_3
REMARK    3  A    between atoms: N_6  and  C_7
REMARK    4  A    between atoms: C_7  and  C_8
REMARK                            x       y       z     vdW  Elec       q    Type
REMARK                         _______ _______ _______ _____ _____    ______ ____
ROOT
ATOM      1  C   UNL     1      48.718   3.811  17.619  0.00  0.00    +0.000 C 
ATOM      2  C   UNL     1      47.544   3.231  16.822  0.00  0.00    +0.000 C 
ATOM      3  C   UNL     1      47.565   3.684  15.356  0.00  0.00    +0.000 C 
ATOM      4  N   UNL     1      47.586   5.151  15.205  0.00  0.00    +0.000 NA
ATOM      5  C   UNL     1      48.663   5.777  16.003  0.00  0.00    +0.000 C 
ATOM      6  C   UNL     1      48.665   5.336  17.467  0.00  0.00    +0.000 C 
ENDROOT
BRANCH   1   7
ATOM      7  C   UNL     1      50.049   3.172  17.170  0.00  0.00    +0.000 C 
BRANCH   7   8
ATOM      8  N   UNL     1      49.886   1.834  16.613  0.00  0.00    +0.000 NA
ATOM      9  H   UNL     1      50.558   1.204  17.053  0.00  0.00    +0.000 HD
ATOM     10  H   UNL     1      50.114   1.843  15.621  0.00  0.00    +0.000 HD
ENDBRANCH   7   8
ENDBRANCH   1   7
BRANCH   4  11
ATOM     11  C   UNL     1      47.759   5.467  13.762  0.00  0.00    +0.000 C 
BRANCH  11  12
ATOM     12  C   UNL     1      46.515   6.003  13.092  0.00  0.00    +0.000 A 
ATOM     13  N   UNL     1      46.454   7.322  12.884  0.00  0.00    +0.000 NA
ATOM     14  S   UNL     1      45.073   7.680  12.056  0.00  0.00    +0.000 S 
ATOM     15  C   UNL     1      44.509   6.066  11.910  0.00  0.00    +0.000 A 
ATOM     16  C   UNL     1      43.371   5.583  11.244  0.00  0.00    +0.000 A 
ATOM     17  C   UNL     1      43.127   4.208  11.268  0.00  0.00    +0.000 A 
ATOM     18  C   UNL     1      43.969   3.352  11.969  0.00  0.00    +0.000 A 
ATOM     19  C   UNL     1      45.091   3.847  12.642  0.00  0.00    +0.000 A 
ATOM     20  C   UNL     1      45.398   5.228  12.589  0.00  0.00    +0.000 A 
ENDBRANCH  11  12
ENDBRANCH   4  11
TORSDOF 4
ENDMDL
