MODEL 1
REMARK VINA RESULT:    -7.744      0.000      0.000
REMARK INTER + INTRA:          -9.500
REMARK INTER:                  -9.102
REMARK INTRA:                  -0.399
REMARK UNBOUND:                -0.399
REMARK  Name = 
REMARK  3 active torsions:
REMARK  status: ('A' for Active; 'I' for Inactive)
REMARK    1  A    between atoms: C_2  and  C_4
REMARK    2  A    between atoms: N_8  and  C_9
REMARK    3  A    between atoms: C_9  and  C_10
REMARK                            x       y       z     vdW  Elec       q    Type
REMARK                         _______ _______ _______ _____ _____    ______ ____
ROOT
ATOM      1  C   UNL     1      46.287   4.909  13.007  0.00  0.00    +0.000 A 
ATOM      2  C   UNL     1      46.569   5.976  12.160  0.00  0.00    +0.000 A 
ATOM      3  C   UNL     1      46.076   5.953  10.856  0.00  0.00    +0.000 A 
ATOM      4  C   UNL     1      45.335   4.858  10.411  0.00  0.00    +0.000 A 
ATOM      5  N   UNL     1      44.979   4.830   9.070  0.00  0.00    +0.000 N 
ATOM      6  N   UNL     1      45.065   3.817  11.221  0.00  0.00    +0.000 NA
ATOM      7  C   UNL     1      45.540   3.860  12.492  0.00  0.00    +0.000 A 
ATOM      8  H   UNL     1      44.458   5.647   8.778  0.00  0.00    +0.000 HD
ENDROOT
BRANCH   1  10
ATOM      9  N   UNL     1      47.438   5.920  14.890  0.00  0.00    +0.000 N 
ATOM     10  C   UNL     1      46.776   4.830  14.397  0.00  0.00    +0.000 C 
ATOM     11  O   UNL     1      46.573   3.846  15.093  0.00  0.00    +0.000 OA
ATOM     12  H   UNL     1      47.686   5.890  15.872  0.00  0.00    +0.000 HD
ATOM     13  H   UNL     1      47.422   6.824  14.440  0.00  0.00    +0.000 HD
ENDBRANCH   1  10
BRANCH   5  14
ATOM     14  C   UNL     1      44.503   3.584   8.497  0.00  0.00    +0.000 C 
BRANCH  14  15
ATOM     15  C   UNL     1      45.698   2.874   7.901  0.00  0.00    +0.000 A 
ATOM     16  C   UNL     1      45.928   1.525   8.205  0.00  0.00    +0.000 A 
ATOM     17  C   UNL     1      47.030   0.893   7.657  0.00  0.00    +0.000 A 
ATOM     18  N   UNL     1      47.902   1.499   6.825  0.00  0.00    +0.000 NA
ATOM     19  C   UNL     1      47.656   2.795   6.533  0.00  0.00    +0.000 A 
ATOM     20  C   UNL     1      46.585   3.518   7.036  0.00  0.00    +0.000 A 
ENDBRANCH  14  15
ENDBRANCH   5  14
TORSDOF 3
ENDMDL
MODEL 2
REMARK VINA RESULT:    -7.588      2.483      6.151
REMARK INTER + INTRA:          -9.317
REMARK INTER:                  -8.954
REMARK INTRA:                  -0.363
REMARK UNBOUND:                -0.399
REMARK  Name = 
REMARK  3 active torsions:
REMARK  status: ('A' for Active; 'I' for Inactive)
REMARK    1  A    between atoms: C_2  and  C_4
REMARK    2  A    between atoms: N_8  and  C_9
REMARK    3  A    between atoms: C_9  and  C_10
REMARK                            x       y       z     vdW  Elec       q    Type
REMARK                         _______ _______ _______ _____ _____    ______ ____
ROOT
ATOM      1  C   UNL     1      46.482   2.629   7.445  0.00  0.00    +0.000 A 
ATOM      2  C   UNL     1      45.911   1.679   8.286  0.00  0.00    +0.000 A 
ATOM      3  C   UNL     1      44.993   2.094   9.250  0.00  0.00    +0.000 A 
ATOM      4  C   UNL     1      44.679   3.447   9.376  0.00  0.00    +0.000 A 
ATOM      5  N   UNL     1      43.858   3.817  10.432  0.00  0.00    +0.000 N 
ATOM      6  N   UNL     1      45.234   4.374   8.573  0.00  0.00    +0.000 NA
ATOM      7  C   UNL     1      46.116   3.954   7.630  0.00  0.00    +0.000 A 
ATOM      8  H   UNL     1      42.970   3.331  10.437  0.00  0.00    +0.000 HD
ENDROOT
BRANCH   1  10
ATOM      9  N   UNL     1      47.483   3.066   5.277  0.00  0.00    +0.000 N 
ATOM     10  C   UNL     1      47.476   2.295   6.406  0.00  0.00    +0.000 C 
ATOM     11  O   UNL     1      48.282   1.389   6.558  0.00  0.00    +0.000 OA
ATOM     12  H   UNL     1      48.228   2.888   4.615  0.00  0.00    +0.000 HD
ATOM     13  H   UNL     1      47.004   3.953   5.213  0.00  0.00    +0.000 HD
ENDBRANCH   1  10
BRANCH   5  14
ATOM     14  C   UNL     1      43.771   5.221  10.794  0.00  0.00    +0.000 C 
BRANCH  14  15
ATOM     15  C   UNL     1      44.934   5.524  11.713  0.00  0.00    +0.000 A 
ATOM     16  C   UNL     1      45.109   4.773  12.883  0.00  0.00    +0.000 A 
ATOM     17  C   UNL     1      46.174   5.068  13.717  0.00  0.00    +0.000 A 
ATOM     18  N   UNL     1      47.075   6.038  13.461  0.00  0.00    +0.000 NA
ATOM     19  C   UNL     1      46.898   6.742  12.321  0.00  0.00    +0.000 A 
ATOM     20  C   UNL     1      45.860   6.528  11.426  0.00  0.00    +0.000 A 
ENDBRANCH  14  15
ENDBRANCH   5  14
TORSDOF 3
ENDMDL
MODEL 3
REMARK VINA RESULT:    -7.080      1.820      2.275
REMARK INTER + INTRA:          -8.720
REMARK INTER:                  -8.392
REMARK INTRA:                  -0.328
REMARK UNBOUND:                -0.399
REMARK  Name = 
REMARK  3 active torsions:
REMARK  status: ('A' for Active; 'I' for Inactive)
REMARK    1  A    between atoms: C_2  and  C_4
REMARK    2  A    between atoms: N_8  and  C_9
REMARK    3  A    between atoms: C_9  and  C_10
REMARK                            x       y       z     vdW  Elec       q    Type
REMARK                         _______ _______ _______ _____ _____    ______ ____
ROOT
ATOM      1  C   UNL     1      45.606   6.600  12.324  0.00  0.00    +0.000 A 
ATOM      2  C   UNL     1      45.521   5.445  13.093  0.00  0.00    +0.000 A 
ATOM      3  C   UNL     1      45.354   4.217  12.454  0.00  0.00    +0.000 A 
ATOM      4  C   UNL     1      45.248   4.164  11.065  0.00  0.00    +0.000 A 
ATOM      5  N   UNL     1      44.956   2.934  10.492  0.00  0.00    +0.000 N 
ATOM      6  N   UNL     1      45.320   5.278  10.312  0.00  0.00    +0.000 NA
ATOM      7  C   UNL     1      45.497   6.465  10.948  0.00  0.00    +0.000 A 
ATOM      8  H   UNL     1      45.618   2.210  10.742  0.00  0.00    +0.000 HD
ENDROOT
BRANCH   1  10
ATOM      9  N   UNL     1      44.788   8.865  12.632  0.00  0.00    +0.000 N 
ATOM     10  C   UNL     1      45.766   7.948  12.904  0.00  0.00    +0.000 C 
ATOM     11  O   UNL     1      46.714   8.229  13.622  0.00  0.00    +0.000 OA
ATOM     12  H   UNL     1      44.860   9.755  13.111  0.00  0.00    +0.000 HD
ATOM     13  H   UNL     1      43.889   8.613  12.248  0.00  0.00    +0.000 HD
ENDBRANCH   1  10
BRANCH   5  14
ATOM     14  C   UNL     1      44.520   2.891   9.108  0.00  0.00    +0.000 C 
BRANCH  14  15
ATOM     15  C   UNL     1      45.688   2.404   8.281  0.00  0.00    +0.000 A 
ATOM     16  C   UNL     1      46.006   1.039   8.261  0.00  0.00    +0.000 A 
ATOM     17  C   UNL     1      47.083   0.612   7.505  0.00  0.00    +0.000 A 
ATOM     18  N   UNL     1      47.848   1.437   6.762  0.00  0.00    +0.000 NA
ATOM     19  C   UNL     1      47.518   2.748   6.783  0.00  0.00    +0.000 A 
ATOM     20  C   UNL     1      46.464   3.275   7.514  0.00  0.00    +0.000 A 
ENDBRANCH  14  15
ENDBRANCH   5  14
TORSDOF 3
ENDMDL
MODEL 4
REMARK VINA RESULT:    -6.095      3.133      7.182
REMARK INTER + INTRA:          -7.562
REMARK INTER:                  -7.269
REMARK INTRA:                  -0.293
REMARK UNBOUND:                -0.399
REMARK  Name = 
REMARK  3 active torsions:
REMARK  status: ('A' for Active; 'I' for Inactive)
REMARK    1  A    between atoms: C_2  and  C_4
REMARK    2  A    between atoms: N_8  and  C_9
REMARK    3  A    between atoms: C_9  and  C_10
REMARK                            x       y       z     vdW  Elec       q    Type
REMARK                         _______ _______ _______ _____ _____    ______ ____
ROOT
ATOM      1  C   UNL     1      45.273   4.348  11.503  0.00  0.00    +0.000 A 
ATOM      2  C   UNL     1      45.767   5.613  11.804  0.00  0.00    +0.000 A 
ATOM      3  C   UNL     1      46.440   5.807  13.009  0.00  0.00    +0.000 A 
ATOM      4  C   UNL     1      46.587   4.746  13.903  0.00  0.00    +0.000 A 
ATOM      5  N   UNL     1      47.152   5.026  15.139  0.00  0.00    +0.000 N 
ATOM      6  N   UNL     1      46.105   3.521  13.624  0.00  0.00    +0.000 NA
ATOM      7  C   UNL     1      45.463   3.344  12.440  0.00  0.00    +0.000 A 
ATOM      8  H   UNL     1      48.068   5.454  15.073  0.00  0.00    +0.000 HD
ENDROOT
BRANCH   1  10
ATOM      9  N   UNL     1      44.751   4.859   9.187  0.00  0.00    +0.000 N 
ATOM     10  C   UNL     1      44.532   4.043  10.263  0.00  0.00    +0.000 C 
ATOM     11  O   UNL     1      43.777   3.085  10.187  0.00  0.00    +0.000 OA
ATOM     12  H   UNL     1      44.309   4.585   8.318  0.00  0.00    +0.000 HD
ATOM     13  H   UNL     1      45.526   5.504   9.135  0.00  0.00    +0.000 HD
ENDBRANCH   1  10
BRANCH   5  14
ATOM     14  C   UNL     1      47.029   4.047  16.205  0.00  0.00    +0.000 C 
BRANCH  14  15
ATOM     15  C   UNL     1      48.424   3.744  16.704  0.00  0.00    +0.000 A 
ATOM     16  C   UNL     1      48.905   2.428  16.666  0.00  0.00    +0.000 A 
ATOM     17  C   UNL     1      50.181   2.166  17.133  0.00  0.00    +0.000 A 
ATOM     18  N   UNL     1      51.008   3.115  17.617  0.00  0.00    +0.000 NA
ATOM     19  C   UNL     1      50.532   4.380  17.633  0.00  0.00    +0.000 A 
ATOM     20  C   UNL     1      49.267   4.742  17.195  0.00  0.00    +0.000 A 
ENDBRANCH  14  15
ENDBRANCH   5  14
TORSDOF 3
ENDMDL
MODEL 5
REMARK VINA RESULT:    -5.750      3.914      6.121
REMARK INTER + INTRA:          -7.157
REMARK INTER:                  -6.917
REMARK INTRA:                  -0.241
REMARK UNBOUND:                -0.399
REMARK  Name = 
REMARK  3 active torsions:
REMARK  status: ('A' for Active; 'I' for Inactive)
REMARK    1  A    between atoms: C_2  and  C_4
REMARK    2  A    between atoms: N_8  and  C_9
REMARK    3  A    between atoms: C_9  and  C_10
REMARK                            x       y       z     vdW  Elec       q    Type
REMARK                         _______ _______ _______ _____ _____    ______ ____
ROOT
ATOM      1  C   UNL     1      48.927   4.618  18.127  0.00  0.00    +0.000 A 
ATOM      2  C   UNL     1      48.142   3.471  18.050  0.00  0.00    +0.000 A 
ATOM      3  C   UNL     1      47.422   3.222  16.883  0.00  0.00    +0.000 A 
ATOM      4  C   UNL     1      47.475   4.129  15.825  0.00  0.00    +0.000 A 
ATOM      5  N   UNL     1      46.641   3.895  14.740  0.00  0.00    +0.000 N 
ATOM      6  N   UNL     1      48.224   5.245  15.893  0.00  0.00    +0.000 NA
ATOM      7  C   UNL     1      48.931   5.468  17.032  0.00  0.00    +0.000 A 
ATOM      8  H   UNL     1      46.775   2.982  14.323  0.00  0.00    +0.000 HD
ENDROOT
BRANCH   1  10
ATOM      9  N   UNL     1      49.370   4.378  20.502  0.00  0.00    +0.000 N 
ATOM     10  C   UNL     1      49.712   4.981  19.323  0.00  0.00    +0.000 C 
ATOM     11  O   UNL     1      50.648   5.765  19.261  0.00  0.00    +0.000 OA
ATOM     12  H   UNL     1      49.974   4.564  21.294  0.00  0.00    +0.000 HD
ATOM     13  H   UNL     1      48.772   3.567  20.552  0.00  0.00    +0.000 HD
ENDBRANCH   1  10
BRANCH   5  14
ATOM     14  C   UNL     1      46.422   4.962  13.781  0.00  0.00    +0.000 C 
BRANCH  14  15
ATOM     15  C   UNL     1      45.191   4.604  12.979  0.00  0.00    +0.000 A 
ATOM     16  C   UNL     1      45.165   3.414  12.240  0.00  0.00    +0.000 A 
ATOM     17  C   UNL     1      44.033   3.104  11.506  0.00  0.00    +0.000 A 
ATOM     18  N   UNL     1      42.932   3.883  11.468  0.00  0.00    +0.000 NA
ATOM     19  C   UNL     1      42.971   5.020  12.198  0.00  0.00    +0.000 A 
ATOM     20  C   UNL     1      44.059   5.420  12.959  0.00  0.00    +0.000 A 
ENDBRANCH  14  15
ENDBRANCH   5  14
TORSDOF 3
ENDMDL
MODEL 6
REMARK VINA RESULT:    -5.388      3.378      6.093
REMARK INTER + INTRA:          -6.732
REMARK INTER:                  -6.447
REMARK INTRA:                  -0.285
REMARK UNBOUND:                -0.399
REMARK  Name = 
REMARK  3 active torsions:
REMARK  status: ('A' for Active; 'I' for Inactive)
REMARK    1  A    between atoms: C_2  and  C_4
REMARK    2  A    between atoms: N_8  and  C_9
REMARK    3  A    between atoms: C_9  and  C_10
REMARK                            x       y       z     vdW  Elec       q    Type
REMARK                         _______ _______ _______ _____ _____    ______ ____
ROOT
ATOM      1  C   UNL     1      44.489   4.034  11.672  0.00  0.00    +0.000 A 
ATOM      2  C   UNL     1      45.120   4.030  12.911  0.00  0.00    +0.000 A 
ATOM      3  C   UNL     1      45.610   5.229  13.425  0.00  0.00    +0.000 A 
ATOM      4  C   UNL     1      45.486   6.406  12.686  0.00  0.00    +0.000 A 
ATOM      5  N   UNL     1      46.103   7.544  13.187  0.00  0.00    +0.000 N 
ATOM      6  N   UNL     1      44.885   6.418  11.482  0.00  0.00    +0.000 NA
ATOM      7  C   UNL     1      44.401   5.244  11.000  0.00  0.00    +0.000 A 
ATOM      8  H   UNL     1      45.803   7.780  14.125  0.00  0.00    +0.000 HD
ENDROOT
BRANCH   1  10
ATOM      9  N   UNL     1      44.633   2.326   9.953  0.00  0.00    +0.000 N 
ATOM     10  C   UNL     1      43.953   2.816  11.033  0.00  0.00    +0.000 C 
ATOM     11  O   UNL     1      42.961   2.248  11.467  0.00  0.00    +0.000 OA
ATOM     12  H   UNL     1      44.310   1.440   9.582  0.00  0.00    +0.000 HD
ATOM     13  H   UNL     1      45.568   2.620   9.711  0.00  0.00    +0.000 HD
ENDBRANCH   1  10
BRANCH   5  14
ATOM     14  C   UNL     1      46.278   8.689  12.312  0.00  0.00    +0.000 C 
BRANCH  14  15
ATOM     15  C   UNL     1      47.758   8.818  12.028  0.00  0.00    +0.000 A 
ATOM     16  C   UNL     1      48.497   7.684  11.662  0.00  0.00    +0.000 A 
ATOM     17  C   UNL     1      49.851   7.818  11.412  0.00  0.00    +0.000 A 
ATOM     18  N   UNL     1      50.512   8.992  11.486  0.00  0.00    +0.000 NA
ATOM     19  C   UNL     1      49.780  10.076  11.827  0.00  0.00    +0.000 A 
ATOM     20  C   UNL     1      48.422  10.043  12.104  0.00  0.00    +0.000 A 
ENDBRANCH  14  15
ENDBRANCH   5  14
TORSDOF 3
ENDMDL
MODEL 7
REMARK VINA RESULT:    -4.949      3.412      5.075
REMARK INTER + INTRA:          -6.216
REMARK INTER:                  -5.884
REMARK INTRA:                  -0.332
REMARK UNBOUND:                -0.399
REMARK  Name = 
REMARK  3 active torsions:
REMARK  status: ('A' for Active; 'I' for Inactive)
REMARK    1  A    between atoms: C_2  and  C_4
REMARK    2  A    between atoms: N_8  and  C_9
REMARK    3  A    between atoms: C_9  and  C_10
REMARK                            x       y       z     vdW  Elec       q    Type
REMARK                         _______ _______ _______ _____ _____    ______ ____
ROOT
ATOM      1  C   UNL     1      49.502   7.922  12.555  0.00  0.00    +0.000 A 
ATOM      2  C   UNL     1      49.408   7.217  13.750  0.00  0.00    +0.000 A 
ATOM      3  C   UNL     1      48.234   6.521  14.033  0.00  0.00    +0.000 A 
ATOM      4  C   UNL     1      47.167   6.560  13.136  0.00  0.00    +0.000 A 
ATOM      5  N   UNL     1      45.980   5.955  13.527  0.00  0.00    +0.000 N 
ATOM      6  N   UNL     1      47.245   7.247  11.981  0.00  0.00    +0.000 NA
ATOM      7  C   UNL     1      48.400   7.910  11.712  0.00  0.00    +0.000 A 
ATOM      8  H   UNL     1      46.092   4.979  13.774  0.00  0.00    +0.000 HD
ENDROOT
BRANCH   1  10
ATOM      9  N   UNL     1      50.852   9.930  12.757  0.00  0.00    +0.000 N 
ATOM     10  C   UNL     1      50.693   8.705  12.170  0.00  0.00    +0.000 C 
ATOM     11  O   UNL     1      51.520   8.269  11.383  0.00  0.00    +0.000 OA
ATOM     12  H   UNL     1      51.718  10.416  12.556  0.00  0.00    +0.000 HD
ATOM     13  H   UNL     1      50.331  10.223  13.570  0.00  0.00    +0.000 HD
ENDBRANCH   1  10
BRANCH   5  14
ATOM     14  C   UNL     1      44.767   6.247  12.785  0.00  0.00    +0.000 C 
BRANCH  14  15
ATOM     15  C   UNL     1      44.416   5.010  11.987  0.00  0.00    +0.000 A 
ATOM     16  C   UNL     1      43.672   3.985  12.586  0.00  0.00    +0.000 A 
ATOM     17  C   UNL     1      43.366   2.857  11.845  0.00  0.00    +0.000 A 
ATOM     18  N   UNL     1      43.732   2.688  10.558  0.00  0.00    +0.000 NA
ATOM     19  C   UNL     1      44.438   3.693   9.994  0.00  0.00    +0.000 A 
ATOM     20  C   UNL     1      44.800   4.857  10.654  0.00  0.00    +0.000 A 
ENDBRANCH  14  15
ENDBRANCH   5  14
TORSDOF 3
ENDMDL
