MODEL 1
REMARK VINA RESULT:    -8.240      0.000      0.000
REMARK INTER + INTRA:         -13.084
REMARK INTER:                 -12.093
REMARK INTRA:                  -0.991
REMARK UNBOUND:                -0.991
REMARK  Name = 
REMARK  10 active torsions:
REMARK  status: ('A' for Active; 'I' for Inactive)
REMARK    1  A    between atoms: C_1  and  C_2
REMARK    2  A    between atoms: C_2  and  C_3
REMARK    3  A    between atoms: C_2  and  N_10
REMARK    4  A    between atoms: C_3  and  C_4
REMARK    5  A    between atoms: N_10  and  C_11
REMARK    6  A    between atoms: C_11  and  C_12
REMARK    7  A    between atoms: C_15  and  C_16
REMARK    8  A    between atoms: C_16  and  N_17
REMARK    9  A    between atoms: C_18  and  C_20
REMARK   10  A    between atoms: N_26  and  C_27
REMARK                            x       y       z     vdW  Elec       q    Type
REMARK                         _______ _______ _______ _____ _____    ______ ____
ROOT
ATOM      1  C   UNL     1      44.497   6.029  11.920  0.00  0.00    +0.000 A 
ATOM      2  C   UNL     1      44.463   7.397  11.657  0.00  0.00    +0.000 A 
ATOM      3  C   UNL     1      45.447   8.215  12.203  0.00  0.00    +0.000 A 
ATOM      4  C   UNL     1      46.438   7.657  13.013  0.00  0.00    +0.000 A 
ATOM      5  C   UNL     1      46.397   6.282  13.220  0.00  0.00    +0.000 A 
ATOM      6  N   UNL     1      45.454   5.460  12.700  0.00  0.00    +0.000 NA
ENDROOT
BRANCH   1   7
ATOM      7  C   UNL     1      43.512   5.110  11.231  0.00  0.00    +0.000 C 
BRANCH   7   8
ATOM      8  N   UNL     1      43.677   5.060   9.766  0.00  0.00    +0.000 NA
ATOM      9  H   UNL     1      42.838   4.644   9.364  0.00  0.00    +0.000 HD
BRANCH   8  11
ATOM     10  C   UNL     1      45.983   5.322   9.118  0.00  0.00    +0.000 C 
ATOM     11  C   UNL     1      44.864   4.293   9.325  0.00  0.00    +0.000 C 
BRANCH  11  12
ATOM     12  C   UNL     1      44.571   3.462   8.053  0.00  0.00    +0.000 C 
BRANCH  12  13
ATOM     13  C   UNL     1      45.749   2.728   7.466  0.00  0.00    +0.000 A 
ATOM     14  C   UNL     1      46.411   3.221   6.341  0.00  0.00    +0.000 A 
ATOM     15  C   UNL     1      47.523   2.536   5.879  0.00  0.00    +0.000 A 
ATOM     16  N   UNL     1      47.970   1.376   6.403  0.00  0.00    +0.000 NA
ATOM     17  C   UNL     1      47.315   0.916   7.488  0.00  0.00    +0.000 A 
ATOM     18  C   UNL     1      46.226   1.559   8.060  0.00  0.00    +0.000 A 
ENDBRANCH  12  13
ENDBRANCH  11  12
ENDBRANCH   8  11
ENDBRANCH   7   8
ENDBRANCH   1   7
BRANCH   4  19
ATOM     19  C   UNL     1      47.565   8.489  13.557  0.00  0.00    +0.000 C 
BRANCH  19  20
ATOM     20  N   UNL     1      47.932   8.037  14.875  0.00  0.00    +0.000 N 
ATOM     21  C   UNL     1      49.217   7.682  15.195  0.00  0.00    +0.000 C 
ATOM     22  O   UNL     1      50.104   7.605  14.350  0.00  0.00    +0.000 OA
ATOM     23  H   UNL     1      47.303   8.299  15.626  0.00  0.00    +0.000 HD
BRANCH  21  24
ATOM     24  C   UNL     1      49.463   7.352  16.607  0.00  0.00    +0.000 A 
ATOM     25  C   UNL     1      50.120   8.252  17.433  0.00  0.00    +0.000 A 
ATOM     26  S   UNL     1      50.357   7.676  19.021  0.00  0.00    +0.000 S 
ATOM     27  C   UNL     1      49.547   6.222  18.674  0.00  0.00    +0.000 A 
ATOM     28  N   UNL     1      49.378   5.270  19.630  0.00  0.00    +0.000 NA
ATOM     29  C   UNL     1      48.732   4.223  19.229  0.00  0.00    +0.000 A 
ATOM     30  N   UNL     1      48.231   4.037  17.962  0.00  0.00    +0.000 N 
ATOM     31  C   UNL     1      47.506   2.836  17.629  0.00  0.00    +0.000 C 
ATOM     32  C   UNL     1      48.370   4.990  16.963  0.00  0.00    +0.000 A 
ATOM     33  O   UNL     1      47.918   4.842  15.828  0.00  0.00    +0.000 OA
ATOM     34  C   UNL     1      49.111   6.173  17.364  0.00  0.00    +0.000 A 
ENDBRANCH  21  24
ENDBRANCH  19  20
ENDBRANCH   4  19
TORSDOF 8
ENDMDL
MODEL 2
REMARK VINA RESULT:    -7.957      3.029      8.676
REMARK INTER + INTRA:         -12.669
REMARK INTER:                 -11.079
REMARK INTRA:                  -1.589
REMARK UNBOUND:                -0.991
REMARK  Name = 
REMARK  10 active torsions:
REMARK  status: ('A' for Active; 'I' for Inactive)
REMARK    1  A    between atoms: C_1  and  C_2
REMARK    2  A    between atoms: C_2  and  C_3
REMARK    3  A    between atoms: C_2  and  N_10
REMARK    4  A    between atoms: C_3  and  C_4
REMARK    5  A    between atoms: N_10  and  C_11
REMARK    6  A    between atoms: C_11  and  C_12
REMARK    7  A    between atoms: C_15  and  C_16
REMARK    8  A    between atoms: C_16  and  N_17
REMARK    9  A    between atoms: C_18  and  C_20
REMARK   10  A    between atoms: N_26  and  C_27
REMARK                            x       y       z     vdW  Elec       q    Type
REMARK                         _______ _______ _______ _____ _____    ______ ____
ROOT
ATOM      1  C   UNL     1      49.251   8.039  15.726  0.00  0.00    +0.000 A 
ATOM      2  C   UNL     1      48.342   9.010  15.310  0.00  0.00    +0.000 A 
ATOM      3  C   UNL     1      47.839   8.952  14.015  0.00  0.00    +0.000 A 
ATOM      4  C   UNL     1      48.262   7.937  13.153  0.00  0.00    +0.000 A 
ATOM      5  C   UNL     1      49.168   7.009  13.654  0.00  0.00    +0.000 A 
ATOM      6  N   UNL     1      49.673   7.037  14.911  0.00  0.00    +0.000 NA
ENDROOT
BRANCH   1   7
ATOM      7  C   UNL     1      49.707   8.012  17.169  0.00  0.00    +0.000 C 
BRANCH   7   8
ATOM      8  N   UNL     1      48.611   7.798  18.131  0.00  0.00    +0.000 NA
ATOM      9  H   UNL     1      48.890   8.193  19.028  0.00  0.00    +0.000 HD
BRANCH   8  11
ATOM     10  C   UNL     1      47.362   6.319  19.567  0.00  0.00    +0.000 C 
ATOM     11  C   UNL     1      48.248   6.373  18.316  0.00  0.00    +0.000 C 
BRANCH  11  12
ATOM     12  C   UNL     1      49.500   5.471  18.428  0.00  0.00    +0.000 C 
BRANCH  12  13
ATOM     13  C   UNL     1      49.436   4.168  17.673  0.00  0.00    +0.000 A 
ATOM     14  C   UNL     1      48.306   3.826  16.931  0.00  0.00    +0.000 A 
ATOM     15  C   UNL     1      48.325   2.643  16.211  0.00  0.00    +0.000 A 
ATOM     16  N   UNL     1      49.343   1.757  16.234  0.00  0.00    +0.000 NA
ATOM     17  C   UNL     1      50.425   2.107  16.959  0.00  0.00    +0.000 A 
ATOM     18  C   UNL     1      50.525   3.296  17.670  0.00  0.00    +0.000 A 
ENDBRANCH  12  13
ENDBRANCH  11  12
ENDBRANCH   8  11
ENDBRANCH   7   8
ENDBRANCH   1   7
BRANCH   4  19
ATOM     19  C   UNL     1      47.684   7.790  11.774  0.00  0.00    +0.000 C 
BRANCH  19  20
ATOM     20  N   UNL     1      46.915   6.575  11.679  0.00  0.00    +0.000 N 
ATOM     21  C   UNL     1      45.545   6.571  11.715  0.00  0.00    +0.000 C 
ATOM     22  O   UNL     1      44.895   7.584  11.957  0.00  0.00    +0.000 OA
ATOM     23  H   UNL     1      47.388   5.781  11.262  0.00  0.00    +0.000 HD
BRANCH  21  24
ATOM     24  C   UNL     1      44.896   5.271  11.491  0.00  0.00    +0.000 A 
ATOM     25  C   UNL     1      44.066   4.726  12.459  0.00  0.00    +0.000 A 
ATOM     26  S   UNL     1      43.443   3.193  12.043  0.00  0.00    +0.000 S 
ATOM     27  C   UNL     1      44.223   3.225  10.532  0.00  0.00    +0.000 A 
ATOM     28  N   UNL     1      44.085   2.198   9.651  0.00  0.00    +0.000 NA
ATOM     29  C   UNL     1      44.721   2.364   8.537  0.00  0.00    +0.000 A 
ATOM     30  N   UNL     1      45.480   3.465   8.214  0.00  0.00    +0.000 N 
ATOM     31  C   UNL     1      46.131   3.555   6.930  0.00  0.00    +0.000 C 
ATOM     32  C   UNL     1      45.634   4.539   9.078  0.00  0.00    +0.000 A 
ATOM     33  O   UNL     1      46.300   5.535   8.798  0.00  0.00    +0.000 OA
ATOM     34  C   UNL     1      44.954   4.383  10.352  0.00  0.00    +0.000 A 
ENDBRANCH  21  24
ENDBRANCH  19  20
ENDBRANCH   4  19
TORSDOF 8
ENDMDL
MODEL 3
REMARK VINA RESULT:    -7.659      3.122      9.043
REMARK INTER + INTRA:         -12.232
REMARK INTER:                 -10.620
REMARK INTRA:                  -1.612
REMARK UNBOUND:                -0.991
REMARK  Name = 
REMARK  10 active torsions:
REMARK  status: ('A' for Active; 'I' for Inactive)
REMARK    1  A    between atoms: C_1  and  C_2
REMARK    2  A    between atoms: C_2  and  C_3
REMARK    3  A    between atoms: C_2  and  N_10
REMARK    4  A    between atoms: C_3  and  C_4
REMARK    5  A    between atoms: N_10  and  C_11
REMARK    6  A    between atoms: C_11  and  C_12
REMARK    7  A    between atoms: C_15  and  C_16
REMARK    8  A    between atoms: C_16  and  N_17
REMARK    9  A    between atoms: C_18  and  C_20
REMARK   10  A    between atoms: N_26  and  C_27
REMARK                            x       y       z     vdW  Elec       q    Type
REMARK                         _______ _______ _______ _____ _____    ______ ____
ROOT
ATOM      1  C   UNL     1      50.397   7.491  14.985  0.00  0.00    +0.000 A 
ATOM      2  C   UNL     1      49.122   6.979  15.216  0.00  0.00    +0.000 A 
ATOM      3  C   UNL     1      48.157   7.098  14.221  0.00  0.00    +0.000 A 
ATOM      4  C   UNL     1      48.475   7.739  13.021  0.00  0.00    +0.000 A 
ATOM      5  C   UNL     1      49.774   8.218  12.877  0.00  0.00    +0.000 A 
ATOM      6  N   UNL     1      50.735   8.113  13.826  0.00  0.00    +0.000 NA
ENDROOT
BRANCH   1   7
ATOM      7  C   UNL     1      51.492   7.256  16.004  0.00  0.00    +0.000 C 
BRANCH   7   8
ATOM      8  N   UNL     1      51.537   5.872  16.512  0.00  0.00    +0.000 NA
ATOM      9  H   UNL     1      50.763   5.354  16.101  0.00  0.00    +0.000 HD
BRANCH   8  11
ATOM     10  C   UNL     1      52.889   6.009  18.503  0.00  0.00    +0.000 C 
ATOM     11  C   UNL     1      51.462   5.776  17.988  0.00  0.00    +0.000 C 
BRANCH  11  12
ATOM     12  C   UNL     1      50.874   4.420  18.446  0.00  0.00    +0.000 C 
BRANCH  12  13
ATOM     13  C   UNL     1      49.469   4.127  17.985  0.00  0.00    +0.000 A 
ATOM     14  C   UNL     1      49.178   2.960  17.279  0.00  0.00    +0.000 A 
ATOM     15  C   UNL     1      47.860   2.714  16.930  0.00  0.00    +0.000 A 
ATOM     16  N   UNL     1      46.841   3.568  17.166  0.00  0.00    +0.000 NA
ATOM     17  C   UNL     1      47.146   4.691  17.848  0.00  0.00    +0.000 A 
ATOM     18  C   UNL     1      48.425   5.000  18.290  0.00  0.00    +0.000 A 
ENDBRANCH  12  13
ENDBRANCH  11  12
ENDBRANCH   8  11
ENDBRANCH   7   8
ENDBRANCH   1   7
BRANCH   4  19
ATOM     19  C   UNL     1      47.490   7.819  11.890  0.00  0.00    +0.000 C 
BRANCH  19  20
ATOM     20  N   UNL     1      46.744   6.590  11.786  0.00  0.00    +0.000 N 
ATOM     21  C   UNL     1      45.384   6.572  11.620  0.00  0.00    +0.000 C 
ATOM     22  O   UNL     1      44.705   7.593  11.678  0.00  0.00    +0.000 OA
ATOM     23  H   UNL     1      47.274   5.771  11.512  0.00  0.00    +0.000 HD
BRANCH  21  24
ATOM     24  C   UNL     1      44.775   5.249  11.414  0.00  0.00    +0.000 A 
ATOM     25  C   UNL     1      43.936   4.707  12.375  0.00  0.00    +0.000 A 
ATOM     26  S   UNL     1      43.365   3.147  11.983  0.00  0.00    +0.000 S 
ATOM     27  C   UNL     1      44.182   3.162  10.492  0.00  0.00    +0.000 A 
ATOM     28  N   UNL     1      44.095   2.109   9.636  0.00  0.00    +0.000 NA
ATOM     29  C   UNL     1      44.755   2.264   8.534  0.00  0.00    +0.000 A 
ATOM     30  N   UNL     1      45.493   3.376   8.201  0.00  0.00    +0.000 N 
ATOM     31  C   UNL     1      46.174   3.452   6.932  0.00  0.00    +0.000 C 
ATOM     32  C   UNL     1      45.595   4.476   9.040  0.00  0.00    +0.000 A 
ATOM     33  O   UNL     1      46.241   5.482   8.751  0.00  0.00    +0.000 OA
ATOM     34  C   UNL     1      44.887   4.335  10.301  0.00  0.00    +0.000 A 
ENDBRANCH  21  24
ENDBRANCH  19  20
ENDBRANCH   4  19
TORSDOF 8
ENDMDL
MODEL 4
REMARK VINA RESULT:    -7.322      1.586      1.775
REMARK INTER + INTRA:         -11.738
REMARK INTER:                 -11.042
REMARK INTRA:                  -0.696
REMARK UNBOUND:                -0.991
REMARK  Name = 
REMARK  10 active torsions:
REMARK  status: ('A' for Active; 'I' for Inactive)
REMARK    1  A    between atoms: C_1  and  C_2
REMARK    2  A    between atoms: C_2  and  C_3
REMARK    3  A    between atoms: C_2  and  N_10
REMARK    4  A    between atoms: C_3  and  C_4
REMARK    5  A    between atoms: N_10  and  C_11
REMARK    6  A    between atoms: C_11  and  C_12
REMARK    7  A    between atoms: C_15  and  C_16
REMARK    8  A    between atoms: C_16  and  N_17
REMARK    9  A    between atoms: C_18  and  C_20
REMARK   10  A    between atoms: N_26  and  C_27
REMARK                            x       y       z     vdW  Elec       q    Type
REMARK                         _______ _______ _______ _____ _____    ______ ____
ROOT
ATOM      1  C   UNL     1      45.140   5.657  12.480  0.00  0.00    +0.000 A 
ATOM      2  C   UNL     1      46.325   5.145  13.004  0.00  0.00    +0.000 A 
ATOM      3  C   UNL     1      47.281   6.026  13.497  0.00  0.00    +0.000 A 
ATOM      4  C   UNL     1      47.046   7.402  13.447  0.00  0.00    +0.000 A 
ATOM      5  C   UNL     1      45.834   7.824  12.909  0.00  0.00    +0.000 A 
ATOM      6  N   UNL     1      44.883   6.990  12.424  0.00  0.00    +0.000 NA
ENDROOT
BRANCH   1   7
ATOM      7  C   UNL     1      44.038   4.709  12.058  0.00  0.00    +0.000 C 
BRANCH   7   8
ATOM      8  N   UNL     1      43.828   4.659  10.599  0.00  0.00    +0.000 NA
ATOM      9  H   UNL     1      43.048   4.031  10.409  0.00  0.00    +0.000 HD
BRANCH   8  11
ATOM     10  C   UNL     1      45.798   5.477   9.477  0.00  0.00    +0.000 C 
ATOM     11  C   UNL     1      45.017   4.207   9.840  0.00  0.00    +0.000 C 
BRANCH  11  12
ATOM     12  C   UNL     1      44.623   3.371   8.600  0.00  0.00    +0.000 C 
BRANCH  12  13
ATOM     13  C   UNL     1      45.758   2.680   7.889  0.00  0.00    +0.000 A 
ATOM     14  C   UNL     1      46.542   3.365   6.960  0.00  0.00    +0.000 A 
ATOM     15  C   UNL     1      47.608   2.697   6.380  0.00  0.00    +0.000 A 
ATOM     16  N   UNL     1      47.900   1.398   6.600  0.00  0.00    +0.000 NA
ATOM     17  C   UNL     1      47.129   0.755   7.501  0.00  0.00    +0.000 A 
ATOM     18  C   UNL     1      46.073   1.352   8.177  0.00  0.00    +0.000 A 
ENDBRANCH  12  13
ENDBRANCH  11  12
ENDBRANCH   8  11
ENDBRANCH   7   8
ENDBRANCH   1   7
BRANCH   4  19
ATOM     19  C   UNL     1      48.014   8.384  14.041  0.00  0.00    +0.000 C 
BRANCH  19  20
ATOM     20  N   UNL     1      49.134   7.693  14.629  0.00  0.00    +0.000 N 
ATOM     21  C   UNL     1      49.725   8.114  15.792  0.00  0.00    +0.000 C 
ATOM     22  O   UNL     1      49.420   9.172  16.334  0.00  0.00    +0.000 OA
ATOM     23  H   UNL     1      49.257   6.727  14.348  0.00  0.00    +0.000 HD
BRANCH  21  24
ATOM     24  C   UNL     1      50.781   7.244  16.331  0.00  0.00    +0.000 A 
ATOM     25  C   UNL     1      52.087   7.700  16.418  0.00  0.00    +0.000 A 
ATOM     26  S   UNL     1      53.179   6.537  17.023  0.00  0.00    +0.000 S 
ATOM     27  C   UNL     1      51.935   5.398  17.235  0.00  0.00    +0.000 A 
ATOM     28  N   UNL     1      52.194   4.165  17.748  0.00  0.00    +0.000 NA
ATOM     29  C   UNL     1      51.151   3.409  17.867  0.00  0.00    +0.000 A 
ATOM     30  N   UNL     1      49.868   3.768  17.526  0.00  0.00    +0.000 N 
ATOM     31  C   UNL     1      48.773   2.850  17.721  0.00  0.00    +0.000 C 
ATOM     32  C   UNL     1      49.560   5.020  17.013  0.00  0.00    +0.000 A 
ATOM     33  O   UNL     1      48.416   5.359  16.715  0.00  0.00    +0.000 OA
ATOM     34  C   UNL     1      50.707   5.894  16.841  0.00  0.00    +0.000 A 
ENDBRANCH  21  24
ENDBRANCH  19  20
ENDBRANCH   4  19
TORSDOF 8
ENDMDL
MODEL 5
REMARK VINA RESULT:    -7.088      1.833      2.105
REMARK INTER + INTRA:         -11.394
REMARK INTER:                 -10.985
REMARK INTRA:                  -0.409
REMARK UNBOUND:                -0.991
REMARK  Name = 
REMARK  10 active torsions:
REMARK  status: ('A' for Active; 'I' for Inactive)
REMARK    1  A    between atoms: C_1  and  C_2
REMARK    2  A    between atoms: C_2  and  C_3
REMARK    3  A    between atoms: C_2  and  N_10
REMARK    4  A    between atoms: C_3  and  C_4
REMARK    5  A    between atoms: N_10  and  C_11
REMARK    6  A    between atoms: C_11  and  C_12
REMARK    7  A    between atoms: C_15  and  C_16
REMARK    8  A    between atoms: C_16  and  N_17
REMARK    9  A    between atoms: C_18  and  C_20
REMARK   10  A    between atoms: N_26  and  C_27
REMARK                            x       y       z     vdW  Elec       q    Type
REMARK                         _______ _______ _______ _____ _____    ______ ____
ROOT
ATOM      1  C   UNL     1      44.645   4.626  12.917  0.00  0.00    +0.000 A 
ATOM      2  C   UNL     1      44.541   5.996  12.685  0.00  0.00    +0.000 A 
ATOM      3  C   UNL     1      45.625   6.815  12.983  0.00  0.00    +0.000 A 
ATOM      4  C   UNL     1      46.787   6.256  13.520  0.00  0.00    +0.000 A 
ATOM      5  C   UNL     1      46.803   4.879  13.716  0.00  0.00    +0.000 A 
ATOM      6  N   UNL     1      45.765   4.055  13.432  0.00  0.00    +0.000 NA
ENDROOT
BRANCH   1   7
ATOM      7  C   UNL     1      43.525   3.707  12.479  0.00  0.00    +0.000 C 
BRANCH   7   8
ATOM      8  N   UNL     1      43.964   2.631  11.571  0.00  0.00    +0.000 NA
ATOM      9  H   UNL     1      44.635   2.046  12.068  0.00  0.00    +0.000 HD
BRANCH   8  11
ATOM     10  C   UNL     1      43.698   4.284   9.838  0.00  0.00    +0.000 C 
ATOM     11  C   UNL     1      44.578   3.122  10.316  0.00  0.00    +0.000 C 
BRANCH  11  12
ATOM     12  C   UNL     1      44.710   1.997   9.262  0.00  0.00    +0.000 C 
BRANCH  12  13
ATOM     13  C   UNL     1      45.784   2.196   8.224  0.00  0.00    +0.000 A 
ATOM     14  C   UNL     1      46.666   1.165   7.901  0.00  0.00    +0.000 A 
ATOM     15  C   UNL     1      47.596   1.385   6.898  0.00  0.00    +0.000 A 
ATOM     16  N   UNL     1      47.755   2.562   6.256  0.00  0.00    +0.000 NA
ATOM     17  C   UNL     1      46.893   3.545   6.585  0.00  0.00    +0.000 A 
ATOM     18  C   UNL     1      45.891   3.405   7.536  0.00  0.00    +0.000 A 
ENDBRANCH  12  13
ENDBRANCH  11  12
ENDBRANCH   8  11
ENDBRANCH   7   8
ENDBRANCH   1   7
BRANCH   4  19
ATOM     19  C   UNL     1      48.009   7.090  13.781  0.00  0.00    +0.000 C 
BRANCH  19  20
ATOM     20  N   UNL     1      48.290   7.140  15.194  0.00  0.00    +0.000 N 
ATOM     21  C   UNL     1      49.513   7.519  15.683  0.00  0.00    +0.000 C 
ATOM     22  O   UNL     1      50.478   7.715  14.950  0.00  0.00    +0.000 OA
ATOM     23  H   UNL     1      47.485   7.209  15.805  0.00  0.00    +0.000 HD
BRANCH  21  24
ATOM     24  C   UNL     1      49.617   7.634  17.145  0.00  0.00    +0.000 A 
ATOM     25  C   UNL     1      49.072   8.726  17.803  0.00  0.00    +0.000 A 
ATOM     26  S   UNL     1      49.333   8.710  19.489  0.00  0.00    +0.000 S 
ATOM     27  C   UNL     1      50.143   7.217  19.405  0.00  0.00    +0.000 A 
ATOM     28  N   UNL     1      50.620   6.616  20.528  0.00  0.00    +0.000 NA
ATOM     29  C   UNL     1      51.200   5.479  20.316  0.00  0.00    +0.000 A 
ATOM     30  N   UNL     1      51.345   4.879  19.087  0.00  0.00    +0.000 N 
ATOM     31  C   UNL     1      51.992   3.596  18.968  0.00  0.00    +0.000 C 
ATOM     32  C   UNL     1      50.860   5.453  17.920  0.00  0.00    +0.000 A 
ATOM     33  O   UNL     1      50.972   4.923  16.816  0.00  0.00    +0.000 OA
ATOM     34  C   UNL     1      50.221   6.743  18.110  0.00  0.00    +0.000 A 
ENDBRANCH  21  24
ENDBRANCH  19  20
ENDBRANCH   4  19
TORSDOF 8
ENDMDL
MODEL 6
REMARK VINA RESULT:    -6.972      5.184      9.840
REMARK INTER + INTRA:         -11.224
REMARK INTER:                 -10.289
REMARK INTRA:                  -0.935
REMARK UNBOUND:                -0.991
REMARK  Name = 
REMARK  10 active torsions:
REMARK  status: ('A' for Active; 'I' for Inactive)
REMARK    1  A    between atoms: C_1  and  C_2
REMARK    2  A    between atoms: C_2  and  C_3
REMARK    3  A    between atoms: C_2  and  N_10
REMARK    4  A    between atoms: C_3  and  C_4
REMARK    5  A    between atoms: N_10  and  C_11
REMARK    6  A    between atoms: C_11  and  C_12
REMARK    7  A    between atoms: C_15  and  C_16
REMARK    8  A    between atoms: C_16  and  N_17
REMARK    9  A    between atoms: C_18  and  C_20
REMARK   10  A    between atoms: N_26  and  C_27
REMARK                            x       y       z     vdW  Elec       q    Type
REMARK                         _______ _______ _______ _____ _____    ______ ____
ROOT
ATOM      1  C   UNL     1      51.305   2.897  17.815  0.00  0.00    +0.000 A 
ATOM      2  C   UNL     1      50.580   1.907  17.156  0.00  0.00    +0.000 A 
ATOM      3  C   UNL     1      49.232   2.122  16.888  0.00  0.00    +0.000 A 
ATOM      4  C   UNL     1      48.628   3.313  17.297  0.00  0.00    +0.000 A 
ATOM      5  C   UNL     1      49.428   4.247  17.946  0.00  0.00    +0.000 A 
ATOM      6  N   UNL     1      50.744   4.067  18.217  0.00  0.00    +0.000 NA
ENDROOT
BRANCH   1   7
ATOM      7  C   UNL     1      52.798   2.733  17.998  0.00  0.00    +0.000 C 
BRANCH   7   8
ATOM      8  N   UNL     1      53.181   1.446  18.608  0.00  0.00    +0.000 NA
ATOM      9  H   UNL     1      52.931   1.472  19.595  0.00  0.00    +0.000 HD
BRANCH   8  11
ATOM     10  C   UNL     1      55.368   2.458  18.634  0.00  0.00    +0.000 C 
ATOM     11  C   UNL     1      54.621   1.127  18.476  0.00  0.00    +0.000 C 
BRANCH  11  12
ATOM     12  C   UNL     1      54.933   0.420  17.135  0.00  0.00    +0.000 C 
BRANCH  12  13
ATOM     13  C   UNL     1      54.919  -1.086  17.171  0.00  0.00    +0.000 A 
ATOM     14  C   UNL     1      54.771  -1.771  18.377  0.00  0.00    +0.000 A 
ATOM     15  C   UNL     1      54.707  -3.155  18.344  0.00  0.00    +0.000 A 
ATOM     16  N   UNL     1      54.851  -3.894  17.224  0.00  0.00    +0.000 NA
ATOM     17  C   UNL     1      54.995  -3.211  16.070  0.00  0.00    +0.000 A 
ATOM     18  C   UNL     1      55.014  -1.826  15.992  0.00  0.00    +0.000 A 
ENDBRANCH  12  13
ENDBRANCH  11  12
ENDBRANCH   8  11
ENDBRANCH   7   8
ENDBRANCH   1   7
BRANCH   4  19
ATOM     19  C   UNL     1      47.197   3.622  16.958  0.00  0.00    +0.000 C 
BRANCH  19  20
ATOM     20  N   UNL     1      47.130   4.644  15.944  0.00  0.00    +0.000 N 
ATOM     21  C   UNL     1      47.127   4.348  14.606  0.00  0.00    +0.000 C 
ATOM     22  O   UNL     1      47.311   3.209  14.188  0.00  0.00    +0.000 OA
ATOM     23  H   UNL     1      46.758   5.540  16.241  0.00  0.00    +0.000 HD
BRANCH  21  24
ATOM     24  C   UNL     1      46.938   5.486  13.693  0.00  0.00    +0.000 A 
ATOM     25  C   UNL     1      47.978   6.371  13.452  0.00  0.00    +0.000 A 
ATOM     26  S   UNL     1      47.557   7.652  12.406  0.00  0.00    +0.000 S 
ATOM     27  C   UNL     1      45.984   7.040  12.200  0.00  0.00    +0.000 A 
ATOM     28  N   UNL     1      45.090   7.668  11.390  0.00  0.00    +0.000 NA
ATOM     29  C   UNL     1      43.938   7.083  11.316  0.00  0.00    +0.000 A 
ATOM     30  N   UNL     1      43.593   5.925  11.972  0.00  0.00    +0.000 N 
ATOM     31  C   UNL     1      42.283   5.347  11.801  0.00  0.00    +0.000 C 
ATOM     32  C   UNL     1      44.480   5.247  12.796  0.00  0.00    +0.000 A 
ATOM     33  O   UNL     1      44.190   4.204  13.380  0.00  0.00    +0.000 OA
ATOM     34  C   UNL     1      45.780   5.882  12.925  0.00  0.00    +0.000 A 
ENDBRANCH  21  24
ENDBRANCH  19  20
ENDBRANCH   4  19
TORSDOF 8
ENDMDL
MODEL 7
REMARK VINA RESULT:    -6.748      3.924      9.425
REMARK INTER + INTRA:         -10.895
REMARK INTER:                  -9.122
REMARK INTRA:                  -1.773
REMARK UNBOUND:                -0.991
REMARK  Name = 
REMARK  10 active torsions:
REMARK  status: ('A' for Active; 'I' for Inactive)
REMARK    1  A    between atoms: C_1  and  C_2
REMARK    2  A    between atoms: C_2  and  C_3
REMARK    3  A    between atoms: C_2  and  N_10
REMARK    4  A    between atoms: C_3  and  C_4
REMARK    5  A    between atoms: N_10  and  C_11
REMARK    6  A    between atoms: C_11  and  C_12
REMARK    7  A    between atoms: C_15  and  C_16
REMARK    8  A    between atoms: C_16  and  N_17
REMARK    9  A    between atoms: C_18  and  C_20
REMARK   10  A    between atoms: N_26  and  C_27
REMARK                            x       y       z     vdW  Elec       q    Type
REMARK                         _______ _______ _______ _____ _____    ______ ____
ROOT
ATOM      1  C   UNL     1      51.296   3.521  18.405  0.00  0.00    +0.000 A 
ATOM      2  C   UNL     1      50.901   2.624  17.415  0.00  0.00    +0.000 A 
ATOM      3  C   UNL     1      49.584   2.650  16.968  0.00  0.00    +0.000 A 
ATOM      4  C   UNL     1      48.681   3.558  17.526  0.00  0.00    +0.000 A 
ATOM      5  C   UNL     1      49.164   4.418  18.508  0.00  0.00    +0.000 A 
ATOM      6  N   UNL     1      50.441   4.419  18.961  0.00  0.00    +0.000 NA
ENDROOT
BRANCH   1   7
ATOM      7  C   UNL     1      52.753   3.593  18.810  0.00  0.00    +0.000 C 
BRANCH   7   8
ATOM      8  N   UNL     1      53.594   4.341  17.857  0.00  0.00    +0.000 NA
ATOM      9  H   UNL     1      54.277   3.697  17.459  0.00  0.00    +0.000 HD
BRANCH   8  11
ATOM     10  C   UNL     1      53.927   5.489  19.948  0.00  0.00    +0.000 C 
ATOM     11  C   UNL     1      54.301   5.494  18.460  0.00  0.00    +0.000 C 
BRANCH  11  12
ATOM     12  C   UNL     1      53.941   6.822  17.755  0.00  0.00    +0.000 C 
BRANCH  12  13
ATOM     13  C   UNL     1      52.474   7.047  17.492  0.00  0.00    +0.000 A 
ATOM     14  C   UNL     1      51.680   7.731  18.411  0.00  0.00    +0.000 A 
ATOM     15  C   UNL     1      50.351   7.959  18.091  0.00  0.00    +0.000 A 
ATOM     16  N   UNL     1      49.751   7.499  16.973  0.00  0.00    +0.000 NA
ATOM     17  C   UNL     1      50.537   6.838  16.100  0.00  0.00    +0.000 A 
ATOM     18  C   UNL     1      51.891   6.608  16.303  0.00  0.00    +0.000 A 
ENDBRANCH  12  13
ENDBRANCH  11  12
ENDBRANCH   8  11
ENDBRANCH   7   8
ENDBRANCH   1   7
BRANCH   4  19
ATOM     19  C   UNL     1      47.273   3.676  17.018  0.00  0.00    +0.000 C 
BRANCH  19  20
ATOM     20  N   UNL     1      47.194   4.675  15.982  0.00  0.00    +0.000 N 
ATOM     21  C   UNL     1      47.170   4.348  14.651  0.00  0.00    +0.000 C 
ATOM     22  O   UNL     1      47.342   3.198  14.257  0.00  0.00    +0.000 OA
ATOM     23  H   UNL     1      46.831   5.578  16.263  0.00  0.00    +0.000 HD
BRANCH  21  24
ATOM     24  C   UNL     1      46.971   5.465  13.715  0.00  0.00    +0.000 A 
ATOM     25  C   UNL     1      48.005   6.351  13.453  0.00  0.00    +0.000 A 
ATOM     26  S   UNL     1      47.574   7.607  12.381  0.00  0.00    +0.000 S 
ATOM     27  C   UNL     1      46.004   6.982  12.192  0.00  0.00    +0.000 A 
ATOM     28  N   UNL     1      45.104   7.586  11.371  0.00  0.00    +0.000 NA
ATOM     29  C   UNL     1      43.955   6.994  11.313  0.00  0.00    +0.000 A 
ATOM     30  N   UNL     1      43.619   5.847  11.994  0.00  0.00    +0.000 N 
ATOM     31  C   UNL     1      42.312   5.258  11.839  0.00  0.00    +0.000 C 
ATOM     32  C   UNL     1      44.512   5.192  12.830  0.00  0.00    +0.000 A 
ATOM     33  O   UNL     1      44.230   4.160  13.436  0.00  0.00    +0.000 OA
ATOM     34  C   UNL     1      45.809   5.838  12.942  0.00  0.00    +0.000 A 
ENDBRANCH  21  24
ENDBRANCH  19  20
ENDBRANCH   4  19
TORSDOF 8
ENDMDL
MODEL 8
REMARK VINA RESULT:    -6.730      4.107      5.468
REMARK INTER + INTRA:         -10.868
REMARK INTER:                  -9.595
REMARK INTRA:                  -1.273
REMARK UNBOUND:                -0.991
REMARK  Name = 
REMARK  10 active torsions:
REMARK  status: ('A' for Active; 'I' for Inactive)
REMARK    1  A    between atoms: C_1  and  C_2
REMARK    2  A    between atoms: C_2  and  C_3
REMARK    3  A    between atoms: C_2  and  N_10
REMARK    4  A    between atoms: C_3  and  C_4
REMARK    5  A    between atoms: N_10  and  C_11
REMARK    6  A    between atoms: C_11  and  C_12
REMARK    7  A    between atoms: C_15  and  C_16
REMARK    8  A    between atoms: C_16  and  N_17
REMARK    9  A    between atoms: C_18  and  C_20
REMARK   10  A    between atoms: N_26  and  C_27
REMARK                            x       y       z     vdW  Elec       q    Type
REMARK                         _______ _______ _______ _____ _____    ______ ____
ROOT
ATOM      1  C   UNL     1      46.202   4.966  12.875  0.00  0.00    +0.000 A 
ATOM      2  C   UNL     1      46.259   5.884  11.828  0.00  0.00    +0.000 A 
ATOM      3  C   UNL     1      47.089   6.993  11.947  0.00  0.00    +0.000 A 
ATOM      4  C   UNL     1      47.837   7.175  13.113  0.00  0.00    +0.000 A 
ATOM      5  C   UNL     1      47.721   6.207  14.105  0.00  0.00    +0.000 A 
ATOM      6  N   UNL     1      46.923   5.115  14.017  0.00  0.00    +0.000 NA
ENDROOT
BRANCH   1   7
ATOM      7  C   UNL     1      45.404   3.691  12.708  0.00  0.00    +0.000 C 
BRANCH   7   8
ATOM      8  N   UNL     1      45.571   3.058  11.387  0.00  0.00    +0.000 NA
ATOM      9  H   UNL     1      46.356   3.504  10.915  0.00  0.00    +0.000 HD
BRANCH   8  11
ATOM     10  C   UNL     1      43.165   2.934  11.454  0.00  0.00    +0.000 C 
ATOM     11  C   UNL     1      44.368   3.146  10.526  0.00  0.00    +0.000 C 
BRANCH  11  12
ATOM     12  C   UNL     1      44.417   2.126   9.365  0.00  0.00    +0.000 C 
BRANCH  12  13
ATOM     13  C   UNL     1      45.564   2.286   8.400  0.00  0.00    +0.000 A 
ATOM     14  C   UNL     1      46.377   1.202   8.070  0.00  0.00    +0.000 A 
ATOM     15  C   UNL     1      47.380   1.394   7.134  0.00  0.00    +0.000 A 
ATOM     16  N   UNL     1      47.673   2.584   6.569  0.00  0.00    +0.000 NA
ATOM     17  C   UNL     1      46.875   3.618   6.904  0.00  0.00    +0.000 A 
ATOM     18  C   UNL     1      45.810   3.515   7.788  0.00  0.00    +0.000 A 
ENDBRANCH  12  13
ENDBRANCH  11  12
ENDBRANCH   8  11
ENDBRANCH   7   8
ENDBRANCH   1   7
BRANCH   4  19
ATOM     19  C   UNL     1      48.807   8.314  13.251  0.00  0.00    +0.000 C 
BRANCH  19  20
ATOM     20  N   UNL     1      50.088   7.953  12.696  0.00  0.00    +0.000 N 
ATOM     21  C   UNL     1      50.619   8.594  11.607  0.00  0.00    +0.000 C 
ATOM     22  O   UNL     1      49.985   9.424  10.963  0.00  0.00    +0.000 OA
ATOM     23  H   UNL     1      50.715   7.453  13.315  0.00  0.00    +0.000 HD
BRANCH  21  24
ATOM     24  C   UNL     1      51.982   8.195  11.225  0.00  0.00    +0.000 A 
ATOM     25  C   UNL     1      52.233   7.676   9.965  0.00  0.00    +0.000 A 
ATOM     26  S   UNL     1      53.861   7.226   9.720  0.00  0.00    +0.000 S 
ATOM     27  C   UNL     1      54.298   7.756  11.276  0.00  0.00    +0.000 A 
ATOM     28  N   UNL     1      55.585   7.672  11.708  0.00  0.00    +0.000 NA
ATOM     29  C   UNL     1      55.774   8.125  12.905  0.00  0.00    +0.000 A 
ATOM     30  N   UNL     1      54.800   8.662  13.713  0.00  0.00    +0.000 N 
ATOM     31  C   UNL     1      55.128   9.158  15.027  0.00  0.00    +0.000 C 
ATOM     32  C   UNL     1      53.479   8.778  13.305  0.00  0.00    +0.000 A 
ATOM     33  O   UNL     1      52.599   9.266  14.012  0.00  0.00    +0.000 OA
ATOM     34  C   UNL     1      53.217   8.259  11.974  0.00  0.00    +0.000 A 
ENDBRANCH  21  24
ENDBRANCH  19  20
ENDBRANCH   4  19
TORSDOF 8
ENDMDL
MODEL 9
REMARK VINA RESULT:    -6.620      4.715      6.365
REMARK INTER + INTRA:         -10.707
REMARK INTER:                  -9.547
REMARK INTRA:                  -1.161
REMARK UNBOUND:                -0.991
REMARK  Name = 
REMARK  10 active torsions:
REMARK  status: ('A' for Active; 'I' for Inactive)
REMARK    1  A    between atoms: C_1  and  C_2
REMARK    2  A    between atoms: C_2  and  C_3
REMARK    3  A    between atoms: C_2  and  N_10
REMARK    4  A    between atoms: C_3  and  C_4
REMARK    5  A    between atoms: N_10  and  C_11
REMARK    6  A    between atoms: C_11  and  C_12
REMARK    7  A    between atoms: C_15  and  C_16
REMARK    8  A    between atoms: C_16  and  N_17
REMARK    9  A    between atoms: C_18  and  C_20
REMARK   10  A    between atoms: N_26  and  C_27
REMARK                            x       y       z     vdW  Elec       q    Type
REMARK                         _______ _______ _______ _____ _____    ______ ____
ROOT
ATOM      1  C   UNL     1      46.867   5.882  12.912  0.00  0.00    +0.000 A 
ATOM      2  C   UNL     1      46.950   6.621  11.734  0.00  0.00    +0.000 A 
ATOM      3  C   UNL     1      47.981   7.542  11.585  0.00  0.00    +0.000 A 
ATOM      4  C   UNL     1      48.903   7.720  12.620  0.00  0.00    +0.000 A 
ATOM      5  C   UNL     1      48.746   6.938  13.759  0.00  0.00    +0.000 A 
ATOM      6  N   UNL     1      47.754   6.031  13.931  0.00  0.00    +0.000 NA
ENDROOT
BRANCH   1   7
ATOM      7  C   UNL     1      45.829   4.787  13.036  0.00  0.00    +0.000 C 
BRANCH   7   8
ATOM      8  N   UNL     1      44.441   5.279  12.962  0.00  0.00    +0.000 NA
ATOM      9  H   UNL     1      43.880   4.757  13.635  0.00  0.00    +0.000 HD
BRANCH   8  11
ATOM     10  C   UNL     1      42.423   5.746  11.730  0.00  0.00    +0.000 C 
ATOM     11  C   UNL     1      43.834   5.153  11.617  0.00  0.00    +0.000 C 
BRANCH  11  12
ATOM     12  C   UNL     1      43.830   3.687  11.122  0.00  0.00    +0.000 C 
BRANCH  12  13
ATOM     13  C   UNL     1      44.658   3.409   9.894  0.00  0.00    +0.000 A 
ATOM     14  C   UNL     1      45.188   4.455   9.138  0.00  0.00    +0.000 A 
ATOM     15  C   UNL     1      45.990   4.140   8.052  0.00  0.00    +0.000 A 
ATOM     16  N   UNL     1      46.236   2.882   7.630  0.00  0.00    +0.000 NA
ATOM     17  C   UNL     1      45.712   1.887   8.375  0.00  0.00    +0.000 A 
ATOM     18  C   UNL     1      44.943   2.098   9.511  0.00  0.00    +0.000 A 
ENDBRANCH  12  13
ENDBRANCH  11  12
ENDBRANCH   8  11
ENDBRANCH   7   8
ENDBRANCH   1   7
BRANCH   4  19
ATOM     19  C   UNL     1      50.079   8.644  12.470  0.00  0.00    +0.000 C 
BRANCH  19  20
ATOM     20  N   UNL     1      51.274   7.892  12.182  0.00  0.00    +0.000 N 
ATOM     21  C   UNL     1      52.222   8.337  11.297  0.00  0.00    +0.000 C 
ATOM     22  O   UNL     1      52.052   9.335  10.604  0.00  0.00    +0.000 OA
ATOM     23  H   UNL     1      51.548   7.209  12.879  0.00  0.00    +0.000 HD
BRANCH  21  24
ATOM     24  C   UNL     1      53.441   7.521  11.191  0.00  0.00    +0.000 A 
ATOM     25  C   UNL     1      54.397   7.556  12.194  0.00  0.00    +0.000 A 
ATOM     26  S   UNL     1      55.761   6.582  11.875  0.00  0.00    +0.000 S 
ATOM     27  C   UNL     1      55.099   6.041  10.405  0.00  0.00    +0.000 A 
ATOM     28  N   UNL     1      55.766   5.151   9.623  0.00  0.00    +0.000 NA
ATOM     29  C   UNL     1      55.137   4.817   8.543  0.00  0.00    +0.000 A 
ATOM     30  N   UNL     1      53.898   5.285   8.169  0.00  0.00    +0.000 N 
ATOM     31  C   UNL     1      53.279   4.828   6.950  0.00  0.00    +0.000 C 
ATOM     32  C   UNL     1      53.180   6.183   8.945  0.00  0.00    +0.000 A 
ATOM     33  O   UNL     1      52.067   6.601   8.630  0.00  0.00    +0.000 OA
ATOM     34  C   UNL     1      53.861   6.602  10.158  0.00  0.00    +0.000 A 
ENDBRANCH  21  24
ENDBRANCH  19  20
ENDBRANCH   4  19
TORSDOF 8
ENDMDL
