MODEL 1
REMARK VINA RESULT:    -7.996      0.000      0.000
REMARK INTER + INTRA:         -11.706
REMARK INTER:                 -10.801
REMARK INTRA:                  -0.905
REMARK UNBOUND:                -0.905
REMARK  Name = 
REMARK  6 active torsions:
REMARK  status: ('A' for Active; 'I' for Inactive)
REMARK    1  A    between atoms: C_2  and  C_20
REMARK    2  A    between atoms: N_3  and  C_4
REMARK    3  A    between atoms: C_4  and  C_5
REMARK    4  A    between atoms: C_8  and  C_9
REMARK    5  A    between atoms: C_9  and  N_10
REMARK    6  A    between atoms: C_11  and  C_13
REMARK                            x       y       z     vdW  Elec       q    Type
REMARK                         _______ _______ _______ _____ _____    ______ ____
ROOT
ATOM      1  C   UNL     1      46.429   7.641  12.974  0.00  0.00    +0.000 A 
ATOM      2  C   UNL     1      46.507   6.241  12.941  0.00  0.00    +0.000 A 
ATOM      3  C   UNL     1      45.576   5.489  12.214  0.00  0.00    +0.000 A 
ATOM      4  C   UNL     1      44.562   6.121  11.482  0.00  0.00    +0.000 A 
ATOM      5  C   UNL     1      44.499   7.521  11.496  0.00  0.00    +0.000 A 
ATOM      6  C   UNL     1      45.427   8.272  12.226  0.00  0.00    +0.000 A 
ENDROOT
BRANCH   1   7
ATOM      7  C   UNL     1      47.429   8.452  13.760  0.00  0.00    +0.000 C 
BRANCH   7  10
ATOM      8  O   UNL     1      49.851   7.069  14.023  0.00  0.00    +0.000 OA
ATOM      9  C   UNL     1      49.106   7.143  14.994  0.00  0.00    +0.000 C 
ATOM     10  N   UNL     1      47.872   7.735  14.930  0.00  0.00    +0.000 N 
ATOM     11  H   UNL     1      47.389   7.960  15.792  0.00  0.00    +0.000 HD
BRANCH   9  12
ATOM     12  C   UNL     1      49.471   6.560  16.291  0.00  0.00    +0.000 A 
ATOM     13  C   UNL     1      50.441   7.159  17.082  0.00  0.00    +0.000 A 
ATOM     14  S   UNL     1      50.750   6.321  18.538  0.00  0.00    +0.000 S 
ATOM     15  C   UNL     1      49.560   5.156  18.184  0.00  0.00    +0.000 A 
ATOM     16  N   UNL     1      49.289   4.142  19.054  0.00  0.00    +0.000 NA
ATOM     17  C   UNL     1      48.345   3.350  18.668  0.00  0.00    +0.000 A 
ATOM     18  N   UNL     1      47.653   3.473  17.493  0.00  0.00    +0.000 N 
ATOM     19  C   UNL     1      47.910   4.459  16.578  0.00  0.00    +0.000 A 
ATOM     20  O   UNL     1      47.300   4.510  15.513  0.00  0.00    +0.000 OA
ATOM     21  C   UNL     1      48.954   5.391  16.964  0.00  0.00    +0.000 A 
ATOM     22  H   UNL     1      46.931   2.811  17.244  0.00  0.00    +0.000 HD
ENDBRANCH   9  12
ENDBRANCH   7  10
ENDBRANCH   1   7
BRANCH   4  23
ATOM     23  C   UNL     1      43.563   5.320  10.685  0.00  0.00    +0.000 C 
BRANCH  23  24
ATOM     24  N   UNL     1      44.141   4.739   9.497  0.00  0.00    +0.000 N 
ATOM     25  C   UNL     1      44.428   3.386   9.465  0.00  0.00    +0.000 C 
ATOM     26  O   UNL     1      44.124   2.621  10.378  0.00  0.00    +0.000 OA
ATOM     27  H   UNL     1      44.741   5.311   8.912  0.00  0.00    +0.000 HD
BRANCH  25  28
ATOM     28  C   UNL     1      45.036   2.893   8.143  0.00  0.00    +0.000 C 
ATOM     29  C   UNL     1      46.060   1.790   8.335  0.00  0.00    +0.000 C 
ATOM     30  C   UNL     1      46.812   1.804   7.020  0.00  0.00    +0.000 C 
ATOM     31  C   UNL     1      46.746   3.252   6.554  0.00  0.00    +0.000 C 
ATOM     32  N   UNL     1      45.795   3.951   7.432  0.00  0.00    +0.000 NA
ATOM     33  H   UNL     1      45.151   4.499   6.861  0.00  0.00    +0.000 HD
ENDBRANCH  25  28
ENDBRANCH  23  24
ENDBRANCH   4  23
TORSDOF 6
ENDMDL
MODEL 2
REMARK VINA RESULT:    -7.580      2.330      3.509
REMARK INTER + INTRA:         -11.143
REMARK INTER:                 -10.250
REMARK INTRA:                  -0.894
REMARK UNBOUND:                -0.905
REMARK  Name = 
REMARK  6 active torsions:
REMARK  status: ('A' for Active; 'I' for Inactive)
REMARK    1  A    between atoms: C_2  and  C_20
REMARK    2  A    between atoms: N_3  and  C_4
REMARK    3  A    between atoms: C_4  and  C_5
REMARK    4  A    between atoms: C_8  and  C_9
REMARK    5  A    between atoms: C_9  and  N_10
REMARK    6  A    between atoms: C_11  and  C_13
REMARK                            x       y       z     vdW  Elec       q    Type
REMARK                         _______ _______ _______ _____ _____    ______ ____
ROOT
ATOM      1  C   UNL     1      46.996   4.709  14.393  0.00  0.00    +0.000 A 
ATOM      2  C   UNL     1      45.958   4.020  13.751  0.00  0.00    +0.000 A 
ATOM      3  C   UNL     1      45.430   4.486  12.541  0.00  0.00    +0.000 A 
ATOM      4  C   UNL     1      45.946   5.637  11.932  0.00  0.00    +0.000 A 
ATOM      5  C   UNL     1      47.001   6.312  12.563  0.00  0.00    +0.000 A 
ATOM      6  C   UNL     1      47.526   5.848  13.774  0.00  0.00    +0.000 A 
ENDROOT
BRANCH   1   7
ATOM      7  C   UNL     1      47.563   4.210  15.700  0.00  0.00    +0.000 C 
BRANCH   7  10
ATOM      8  O   UNL     1      49.745   5.566  16.819  0.00  0.00    +0.000 OA
ATOM      9  C   UNL     1      48.611   5.890  17.158  0.00  0.00    +0.000 C 
ATOM     10  N   UNL     1      47.495   5.229  16.716  0.00  0.00    +0.000 N 
ATOM     11  H   UNL     1      46.586   5.658  16.848  0.00  0.00    +0.000 HD
BRANCH   9  12
ATOM     12  C   UNL     1      48.375   6.991  18.100  0.00  0.00    +0.000 A 
ATOM     13  C   UNL     1      48.313   6.746  19.464  0.00  0.00    +0.000 A 
ATOM     14  S   UNL     1      48.003   8.143  20.397  0.00  0.00    +0.000 S 
ATOM     15  C   UNL     1      47.991   9.132  19.011  0.00  0.00    +0.000 A 
ATOM     16  N   UNL     1      47.799  10.478  19.110  0.00  0.00    +0.000 NA
ATOM     17  C   UNL     1      47.842  11.105  17.982  0.00  0.00    +0.000 A 
ATOM     18  N   UNL     1      48.052  10.512  16.766  0.00  0.00    +0.000 N 
ATOM     19  C   UNL     1      48.222   9.161  16.617  0.00  0.00    +0.000 A 
ATOM     20  O   UNL     1      48.361   8.659  15.504  0.00  0.00    +0.000 OA
ATOM     21  C   UNL     1      48.198   8.404  17.855  0.00  0.00    +0.000 A 
ATOM     22  H   UNL     1      48.063  11.059  15.917  0.00  0.00    +0.000 HD
ENDBRANCH   9  12
ENDBRANCH   7  10
ENDBRANCH   1   7
BRANCH   4  23
ATOM     23  C   UNL     1      45.394   6.139  10.622  0.00  0.00    +0.000 C 
BRANCH  23  24
ATOM     24  N   UNL     1      45.819   5.339   9.498  0.00  0.00    +0.000 N 
ATOM     25  C   UNL     1      44.999   4.330   9.026  0.00  0.00    +0.000 C 
ATOM     26  O   UNL     1      43.866   4.137   9.460  0.00  0.00    +0.000 OA
ATOM     27  H   UNL     1      46.811   5.178   9.358  0.00  0.00    +0.000 HD
BRANCH  25  28
ATOM     28  C   UNL     1      45.566   3.557   7.826  0.00  0.00    +0.000 C 
ATOM     29  C   UNL     1      46.029   2.157   8.186  0.00  0.00    +0.000 C 
ATOM     30  C   UNL     1      46.925   1.794   7.019  0.00  0.00    +0.000 C 
ATOM     31  C   UNL     1      47.508   3.122   6.554  0.00  0.00    +0.000 C 
ATOM     32  N   UNL     1      46.783   4.189   7.259  0.00  0.00    +0.000 NA
ATOM     33  H   UNL     1      46.505   4.907   6.589  0.00  0.00    +0.000 HD
ENDBRANCH  25  28
ENDBRANCH  23  24
ENDBRANCH   4  23
TORSDOF 6
ENDMDL
MODEL 3
REMARK VINA RESULT:    -7.572      2.224      2.783
REMARK INTER + INTRA:         -11.132
REMARK INTER:                 -10.154
REMARK INTRA:                  -0.978
REMARK UNBOUND:                -0.905
REMARK  Name = 
REMARK  6 active torsions:
REMARK  status: ('A' for Active; 'I' for Inactive)
REMARK    1  A    between atoms: C_2  and  C_20
REMARK    2  A    between atoms: N_3  and  C_4
REMARK    3  A    between atoms: C_4  and  C_5
REMARK    4  A    between atoms: C_8  and  C_9
REMARK    5  A    between atoms: C_9  and  N_10
REMARK    6  A    between atoms: C_11  and  C_13
REMARK                            x       y       z     vdW  Elec       q    Type
REMARK                         _______ _______ _______ _____ _____    ______ ____
ROOT
ATOM      1  C   UNL     1      47.661   6.461  13.418  0.00  0.00    +0.000 A 
ATOM      2  C   UNL     1      47.401   7.136  12.218  0.00  0.00    +0.000 A 
ATOM      3  C   UNL     1      46.362   6.723  11.375  0.00  0.00    +0.000 A 
ATOM      4  C   UNL     1      45.544   5.641  11.726  0.00  0.00    +0.000 A 
ATOM      5  C   UNL     1      45.790   4.981  12.938  0.00  0.00    +0.000 A 
ATOM      6  C   UNL     1      46.831   5.392  13.778  0.00  0.00    +0.000 A 
ENDROOT
BRANCH   1   7
ATOM      7  C   UNL     1      48.783   6.903  14.326  0.00  0.00    +0.000 C 
BRANCH   7  10
ATOM      8  O   UNL     1      50.538   5.933  16.283  0.00  0.00    +0.000 OA
ATOM      9  C   UNL     1      49.400   6.246  16.614  0.00  0.00    +0.000 C 
ATOM     10  N   UNL     1      48.457   6.656  15.708  0.00  0.00    +0.000 N 
ATOM     11  H   UNL     1      47.612   7.102  16.046  0.00  0.00    +0.000 HD
BRANCH   9  12
ATOM     12  C   UNL     1      48.954   6.159  18.010  0.00  0.00    +0.000 A 
ATOM     13  C   UNL     1      49.137   4.990  18.734  0.00  0.00    +0.000 A 
ATOM     14  S   UNL     1      48.529   5.071  20.329  0.00  0.00    +0.000 S 
ATOM     15  C   UNL     1      48.045   6.690  20.121  0.00  0.00    +0.000 A 
ATOM     16  N   UNL     1      47.462   7.385  21.139  0.00  0.00    +0.000 NA
ATOM     17  C   UNL     1      47.173   8.609  20.848  0.00  0.00    +0.000 A 
ATOM     18  N   UNL     1      47.405   9.200  19.635  0.00  0.00    +0.000 N 
ATOM     19  C   UNL     1      47.962   8.532  18.576  0.00  0.00    +0.000 A 
ATOM     20  O   UNL     1      48.112   9.081  17.488  0.00  0.00    +0.000 OA
ATOM     21  C   UNL     1      48.323   7.153  18.849  0.00  0.00    +0.000 A 
ATOM     22  H   UNL     1      47.144  10.161  19.467  0.00  0.00    +0.000 HD
ENDBRANCH   9  12
ENDBRANCH   7  10
ENDBRANCH   1   7
BRANCH   4  23
ATOM     23  C   UNL     1      44.414   5.197  10.831  0.00  0.00    +0.000 C 
BRANCH  23  24
ATOM     24  N   UNL     1      44.880   4.662   9.574  0.00  0.00    +0.000 N 
ATOM     25  C   UNL     1      44.805   3.301   9.338  0.00  0.00    +0.000 C 
ATOM     26  O   UNL     1      44.265   2.520  10.118  0.00  0.00    +0.000 OA
ATOM     27  H   UNL     1      45.638   5.133   9.091  0.00  0.00    +0.000 HD
BRANCH  25  28
ATOM     28  C   UNL     1      45.331   2.862   7.963  0.00  0.00    +0.000 C 
ATOM     29  C   UNL     1      46.349   1.740   8.047  0.00  0.00    +0.000 C 
ATOM     30  C   UNL     1      47.026   1.804   6.693  0.00  0.00    +0.000 C 
ATOM     31  C   UNL     1      46.953   3.273   6.296  0.00  0.00    +0.000 C 
ATOM     32  N   UNL     1      46.063   3.942   7.257  0.00  0.00    +0.000 NA
ATOM     33  H   UNL     1      45.395   4.523   6.749  0.00  0.00    +0.000 HD
ENDBRANCH  25  28
ENDBRANCH  23  24
ENDBRANCH   4  23
TORSDOF 6
ENDMDL
MODEL 4
REMARK VINA RESULT:    -7.447      2.300      2.404
REMARK INTER + INTRA:         -10.963
REMARK INTER:                 -10.102
REMARK INTRA:                  -0.861
REMARK UNBOUND:                -0.905
REMARK  Name = 
REMARK  6 active torsions:
REMARK  status: ('A' for Active; 'I' for Inactive)
REMARK    1  A    between atoms: C_2  and  C_20
REMARK    2  A    between atoms: N_3  and  C_4
REMARK    3  A    between atoms: C_4  and  C_5
REMARK    4  A    between atoms: C_8  and  C_9
REMARK    5  A    between atoms: C_9  and  N_10
REMARK    6  A    between atoms: C_11  and  C_13
REMARK                            x       y       z     vdW  Elec       q    Type
REMARK                         _______ _______ _______ _____ _____    ______ ____
ROOT
ATOM      1  C   UNL     1      46.804   8.053  13.042  0.00  0.00    +0.000 A 
ATOM      2  C   UNL     1      47.179   6.765  12.633  0.00  0.00    +0.000 A 
ATOM      3  C   UNL     1      46.279   5.942  11.946  0.00  0.00    +0.000 A 
ATOM      4  C   UNL     1      44.992   6.398  11.628  0.00  0.00    +0.000 A 
ATOM      5  C   UNL     1      44.627   7.694  12.016  0.00  0.00    +0.000 A 
ATOM      6  C   UNL     1      45.526   8.515  12.706  0.00  0.00    +0.000 A 
ENDROOT
BRANCH   1   7
ATOM      7  C   UNL     1      47.772   8.940  13.786  0.00  0.00    +0.000 C 
BRANCH   7  10
ATOM      8  O   UNL     1      49.510   9.912  15.757  0.00  0.00    +0.000 OA
ATOM      9  C   UNL     1      48.452   9.398  16.104  0.00  0.00    +0.000 C 
ATOM     10  N   UNL     1      47.582   8.832  15.211  0.00  0.00    +0.000 N 
ATOM     11  H   UNL     1      46.639   8.615  15.512  0.00  0.00    +0.000 HD
BRANCH   9  12
ATOM     12  C   UNL     1      48.063   9.318  17.518  0.00  0.00    +0.000 A 
ATOM     13  C   UNL     1      47.677  10.460  18.205  0.00  0.00    +0.000 A 
ATOM     14  S   UNL     1      47.289  10.173  19.844  0.00  0.00    +0.000 S 
ATOM     15  C   UNL     1      47.578   8.503  19.677  0.00  0.00    +0.000 A 
ATOM     16  N   UNL     1      47.401   7.652  20.727  0.00  0.00    +0.000 NA
ATOM     17  C   UNL     1      47.629   6.412  20.448  0.00  0.00    +0.000 A 
ATOM     18  N   UNL     1      48.024   5.946  19.223  0.00  0.00    +0.000 N 
ATOM     19  C   UNL     1      48.240   6.768  18.148  0.00  0.00    +0.000 A 
ATOM     20  O   UNL     1      48.638   6.319  17.077  0.00  0.00    +0.000 OA
ATOM     21  C   UNL     1      47.984   8.175  18.398  0.00  0.00    +0.000 A 
ATOM     22  H   UNL     1      48.198   4.962  19.073  0.00  0.00    +0.000 HD
ENDBRANCH   9  12
ENDBRANCH   7  10
ENDBRANCH   1   7
BRANCH   4  23
ATOM     23  C   UNL     1      44.021   5.524  10.876  0.00  0.00    +0.000 C 
BRANCH  23  24
ATOM     24  N   UNL     1      44.609   4.921   9.704  0.00  0.00    +0.000 N 
ATOM     25  C   UNL     1      44.471   3.561   9.490  0.00  0.00    +0.000 C 
ATOM     26  O   UNL     1      43.778   2.843  10.208  0.00  0.00    +0.000 OA
ATOM     27  H   UNL     1      45.456   5.325   9.317  0.00  0.00    +0.000 HD
BRANCH  25  28
ATOM     28  C   UNL     1      45.140   3.046   8.207  0.00  0.00    +0.000 C 
ATOM     29  C   UNL     1      45.988   1.808   8.435  0.00  0.00    +0.000 C 
ATOM     30  C   UNL     1      46.865   1.774   7.200  0.00  0.00    +0.000 C 
ATOM     31  C   UNL     1      47.035   3.237   6.810  0.00  0.00    +0.000 C 
ATOM     32  N   UNL     1      46.099   4.020   7.630  0.00  0.00    +0.000 NA
ATOM     33  H   UNL     1      45.592   4.673   7.031  0.00  0.00    +0.000 HD
ENDBRANCH  25  28
ENDBRANCH  23  24
ENDBRANCH   4  23
TORSDOF 6
ENDMDL
MODEL 5
REMARK VINA RESULT:    -7.226      2.146      3.239
REMARK INTER + INTRA:         -10.665
REMARK INTER:                  -9.808
REMARK INTRA:                  -0.857
REMARK UNBOUND:                -0.905
REMARK  Name = 
REMARK  6 active torsions:
REMARK  status: ('A' for Active; 'I' for Inactive)
REMARK    1  A    between atoms: C_2  and  C_20
REMARK    2  A    between atoms: N_3  and  C_4
REMARK    3  A    between atoms: C_4  and  C_5
REMARK    4  A    between atoms: C_8  and  C_9
REMARK    5  A    between atoms: C_9  and  N_10
REMARK    6  A    between atoms: C_11  and  C_13
REMARK                            x       y       z     vdW  Elec       q    Type
REMARK                         _______ _______ _______ _____ _____    ______ ____
ROOT
ATOM      1  C   UNL     1      46.792   4.616  14.199  0.00  0.00    +0.000 A 
ATOM      2  C   UNL     1      45.912   3.840  13.430  0.00  0.00    +0.000 A 
ATOM      3  C   UNL     1      45.459   4.293  12.185  0.00  0.00    +0.000 A 
ATOM      4  C   UNL     1      45.896   5.521  11.669  0.00  0.00    +0.000 A 
ATOM      5  C   UNL     1      46.794   6.285  12.428  0.00  0.00    +0.000 A 
ATOM      6  C   UNL     1      47.243   5.833  13.674  0.00  0.00    +0.000 A 
ENDROOT
BRANCH   1   7
ATOM      7  C   UNL     1      47.277   4.130  15.543  0.00  0.00    +0.000 C 
BRANCH   7  10
ATOM      8  O   UNL     1      47.610   4.050  18.324  0.00  0.00    +0.000 OA
ATOM      9  C   UNL     1      47.877   5.088  17.727  0.00  0.00    +0.000 C 
ATOM     10  N   UNL     1      47.671   5.235  16.381  0.00  0.00    +0.000 N 
ATOM     11  H   UNL     1      48.098   6.019  15.901  0.00  0.00    +0.000 HD
BRANCH   9  12
ATOM     12  C   UNL     1      48.400   6.267  18.429  0.00  0.00    +0.000 A 
ATOM     13  C   UNL     1      47.627   6.917  19.380  0.00  0.00    +0.000 A 
ATOM     14  S   UNL     1      48.391   8.281  20.067  0.00  0.00    +0.000 S 
ATOM     15  C   UNL     1      49.803   8.019  19.152  0.00  0.00    +0.000 A 
ATOM     16  N   UNL     1      50.887   8.836  19.283  0.00  0.00    +0.000 NA
ATOM     17  C   UNL     1      51.895   8.502  18.548  0.00  0.00    +0.000 A 
ATOM     18  N   UNL     1      51.918   7.434  17.691  0.00  0.00    +0.000 N 
ATOM     19  C   UNL     1      50.843   6.604  17.508  0.00  0.00    +0.000 A 
ATOM     20  O   UNL     1      50.884   5.684  16.696  0.00  0.00    +0.000 OA
ATOM     21  C   UNL     1      49.683   6.922  18.320  0.00  0.00    +0.000 A 
ATOM     22  H   UNL     1      52.736   7.233  17.134  0.00  0.00    +0.000 HD
ENDBRANCH   9  12
ENDBRANCH   7  10
ENDBRANCH   1   7
BRANCH   4  23
ATOM     23  C   UNL     1      45.425   6.011  10.324  0.00  0.00    +0.000 C 
BRANCH  23  24
ATOM     24  N   UNL     1      45.897   5.186   9.236  0.00  0.00    +0.000 N 
ATOM     25  C   UNL     1      45.096   4.169   8.749  0.00  0.00    +0.000 C 
ATOM     26  O   UNL     1      43.943   3.988   9.136  0.00  0.00    +0.000 OA
ATOM     27  H   UNL     1      46.894   5.020   9.144  0.00  0.00    +0.000 HD
BRANCH  25  28
ATOM     28  C   UNL     1      45.713   3.370   7.592  0.00  0.00    +0.000 C 
ATOM     29  C   UNL     1      46.227   2.007   8.019  0.00  0.00    +0.000 C 
ATOM     30  C   UNL     1      47.156   1.631   6.882  0.00  0.00    +0.000 C 
ATOM     31  C   UNL     1      47.692   2.962   6.369  0.00  0.00    +0.000 C 
ATOM     32  N   UNL     1      46.913   4.027   7.016  0.00  0.00    +0.000 NA
ATOM     33  H   UNL     1      46.617   4.703   6.311  0.00  0.00    +0.000 HD
ENDBRANCH  25  28
ENDBRANCH  23  24
ENDBRANCH   4  23
TORSDOF 6
ENDMDL
MODEL 6
REMARK VINA RESULT:    -6.997      3.744      8.620
REMARK INTER + INTRA:         -10.356
REMARK INTER:                  -9.386
REMARK INTRA:                  -0.970
REMARK UNBOUND:                -0.905
REMARK  Name = 
REMARK  6 active torsions:
REMARK  status: ('A' for Active; 'I' for Inactive)
REMARK    1  A    between atoms: C_2  and  C_20
REMARK    2  A    between atoms: N_3  and  C_4
REMARK    3  A    between atoms: C_4  and  C_5
REMARK    4  A    between atoms: C_8  and  C_9
REMARK    5  A    between atoms: C_9  and  N_10
REMARK    6  A    between atoms: C_11  and  C_13
REMARK                            x       y       z     vdW  Elec       q    Type
REMARK                         _______ _______ _______ _____ _____    ______ ____
ROOT
ATOM      1  C   UNL     1      48.701   6.521  15.532  0.00  0.00    +0.000 A 
ATOM      2  C   UNL     1      49.965   6.555  16.140  0.00  0.00    +0.000 A 
ATOM      3  C   UNL     1      50.337   5.578  17.072  0.00  0.00    +0.000 A 
ATOM      4  C   UNL     1      49.465   4.531  17.397  0.00  0.00    +0.000 A 
ATOM      5  C   UNL     1      48.211   4.485  16.771  0.00  0.00    +0.000 A 
ATOM      6  C   UNL     1      47.839   5.463  15.842  0.00  0.00    +0.000 A 
ENDROOT
BRANCH   1   7
ATOM      7  C   UNL     1      48.298   7.576  14.530  0.00  0.00    +0.000 C 
BRANCH   7  10
ATOM      8  O   UNL     1      47.999   6.628  11.910  0.00  0.00    +0.000 OA
ATOM      9  C   UNL     1      47.006   6.709  12.626  0.00  0.00    +0.000 C 
ATOM     10  N   UNL     1      47.053   7.231  13.891  0.00  0.00    +0.000 N 
ATOM     11  H   UNL     1      46.266   7.083  14.513  0.00  0.00    +0.000 HD
BRANCH   9  12
ATOM     12  C   UNL     1      45.682   6.286  12.153  0.00  0.00    +0.000 A 
ATOM     13  C   UNL     1      44.834   7.195  11.537  0.00  0.00    +0.000 A 
ATOM     14  S   UNL     1      43.329   6.526  11.083  0.00  0.00    +0.000 S 
ATOM     15  C   UNL     1      43.780   4.985  11.651  0.00  0.00    +0.000 A 
ATOM     16  N   UNL     1      42.935   3.921  11.539  0.00  0.00    +0.000 NA
ATOM     17  C   UNL     1      43.420   2.810  11.986  0.00  0.00    +0.000 A 
ATOM     18  N   UNL     1      44.664   2.667  12.539  0.00  0.00    +0.000 N 
ATOM     19  C   UNL     1      45.534   3.714  12.696  0.00  0.00    +0.000 A 
ATOM     20  O   UNL     1      46.624   3.556  13.239  0.00  0.00    +0.000 OA
ATOM     21  C   UNL     1      45.049   4.988  12.197  0.00  0.00    +0.000 A 
ATOM     22  H   UNL     1      44.980   1.771  12.881  0.00  0.00    +0.000 HD
ENDBRANCH   9  12
ENDBRANCH   7  10
ENDBRANCH   1   7
BRANCH   4  23
ATOM     23  C   UNL     1      49.862   3.467  18.388  0.00  0.00    +0.000 C 
BRANCH  23  24
ATOM     24  N   UNL     1      51.274   3.169  18.347  0.00  0.00    +0.000 N 
ATOM     25  C   UNL     1      51.717   2.040  17.682  0.00  0.00    +0.000 C 
ATOM     26  O   UNL     1      50.968   1.315  17.031  0.00  0.00    +0.000 OA
ATOM     27  H   UNL     1      51.859   3.459  19.123  0.00  0.00    +0.000 HD
BRANCH  25  28
ATOM     28  C   UNL     1      53.240   1.839  17.710  0.00  0.00    +0.000 C 
ATOM     29  C   UNL     1      53.671   0.493  17.161  0.00  0.00    +0.000 C 
ATOM     30  C   UNL     1      55.081   0.350  17.700  0.00  0.00    +0.000 C 
ATOM     31  C   UNL     1      55.065   1.111  19.020  0.00  0.00    +0.000 C 
ATOM     32  N   UNL     1      53.793   1.846  19.087  0.00  0.00    +0.000 NA
ATOM     33  H   UNL     1      53.976   2.809  19.369  0.00  0.00    +0.000 HD
ENDBRANCH  25  28
ENDBRANCH  23  24
ENDBRANCH   4  23
TORSDOF 6
ENDMDL
MODEL 7
REMARK VINA RESULT:    -6.939      2.067      2.367
REMARK INTER + INTRA:         -10.277
REMARK INTER:                  -9.397
REMARK INTRA:                  -0.880
REMARK UNBOUND:                -0.905
REMARK  Name = 
REMARK  6 active torsions:
REMARK  status: ('A' for Active; 'I' for Inactive)
REMARK    1  A    between atoms: C_2  and  C_20
REMARK    2  A    between atoms: N_3  and  C_4
REMARK    3  A    between atoms: C_4  and  C_5
REMARK    4  A    between atoms: C_8  and  C_9
REMARK    5  A    between atoms: C_9  and  N_10
REMARK    6  A    between atoms: C_11  and  C_13
REMARK                            x       y       z     vdW  Elec       q    Type
REMARK                         _______ _______ _______ _____ _____    ______ ____
ROOT
ATOM      1  C   UNL     1      47.671   6.679  14.029  0.00  0.00    +0.000 A 
ATOM      2  C   UNL     1      47.614   5.377  14.549  0.00  0.00    +0.000 A 
ATOM      3  C   UNL     1      46.697   4.446  14.048  0.00  0.00    +0.000 A 
ATOM      4  C   UNL     1      45.833   4.787  12.999  0.00  0.00    +0.000 A 
ATOM      5  C   UNL     1      45.907   6.081  12.464  0.00  0.00    +0.000 A 
ATOM      6  C   UNL     1      46.822   7.012  12.967  0.00  0.00    +0.000 A 
ENDROOT
BRANCH   1   7
ATOM      7  C   UNL     1      48.658   7.684  14.571  0.00  0.00    +0.000 C 
BRANCH   7  10
ATOM      8  O   UNL     1      49.821   8.106  17.085  0.00  0.00    +0.000 OA
ATOM      9  C   UNL     1      50.297   7.247  16.351  0.00  0.00    +0.000 C 
ATOM     10  N   UNL     1      49.837   7.030  15.079  0.00  0.00    +0.000 N 
ATOM     11  H   UNL     1      50.111   6.182  14.595  0.00  0.00    +0.000 HD
BRANCH   9  12
ATOM     12  C   UNL     1      51.431   6.416  16.774  0.00  0.00    +0.000 A 
ATOM     13  C   UNL     1      52.712   6.947  16.821  0.00  0.00    +0.000 A 
ATOM     14  S   UNL     1      53.902   5.823  17.309  0.00  0.00    +0.000 S 
ATOM     15  C   UNL     1      52.736   4.600  17.523  0.00  0.00    +0.000 A 
ATOM     16  N   UNL     1      53.092   3.360  17.964  0.00  0.00    +0.000 NA
ATOM     17  C   UNL     1      52.102   2.543  18.107  0.00  0.00    +0.000 A 
ATOM     18  N   UNL     1      50.794   2.847  17.843  0.00  0.00    +0.000 N 
ATOM     19  C   UNL     1      50.394   4.070  17.372  0.00  0.00    +0.000 A 
ATOM     20  O   UNL     1      49.217   4.292  17.102  0.00  0.00    +0.000 OA
ATOM     21  C   UNL     1      51.465   5.037  17.206  0.00  0.00    +0.000 A 
ATOM     22  H   UNL     1      50.066   2.158  17.963  0.00  0.00    +0.000 HD
ENDBRANCH   9  12
ENDBRANCH   7  10
ENDBRANCH   1   7
BRANCH   4  23
ATOM     23  C   UNL     1      44.851   3.787  12.443  0.00  0.00    +0.000 C 
BRANCH  23  24
ATOM     24  N   UNL     1      45.176   3.379  11.097  0.00  0.00    +0.000 N 
ATOM     25  C   UNL     1      44.416   3.842  10.038  0.00  0.00    +0.000 C 
ATOM     26  O   UNL     1      43.521   4.674  10.176  0.00  0.00    +0.000 OA
ATOM     27  H   UNL     1      45.595   2.467  10.949  0.00  0.00    +0.000 HD
BRANCH  25  28
ATOM     28  C   UNL     1      44.866   3.336   8.660  0.00  0.00    +0.000 C 
ATOM     29  C   UNL     1      45.722   2.086   8.736  0.00  0.00    +0.000 C 
ATOM     30  C   UNL     1      46.392   2.058   7.377  0.00  0.00    +0.000 C 
ATOM     31  C   UNL     1      46.518   3.524   6.982  0.00  0.00    +0.000 C 
ATOM     32  N   UNL     1      45.735   4.307   7.949  0.00  0.00    +0.000 NA
ATOM     33  H   UNL     1      45.149   4.974   7.445  0.00  0.00    +0.000 HD
ENDBRANCH  25  28
ENDBRANCH  23  24
ENDBRANCH   4  23
TORSDOF 6
ENDMDL
MODEL 8
REMARK VINA RESULT:    -6.826      2.001      2.856
REMARK INTER + INTRA:         -10.126
REMARK INTER:                  -9.356
REMARK INTRA:                  -0.770
REMARK UNBOUND:                -0.905
REMARK  Name = 
REMARK  6 active torsions:
REMARK  status: ('A' for Active; 'I' for Inactive)
REMARK    1  A    between atoms: C_2  and  C_20
REMARK    2  A    between atoms: N_3  and  C_4
REMARK    3  A    between atoms: C_4  and  C_5
REMARK    4  A    between atoms: C_8  and  C_9
REMARK    5  A    between atoms: C_9  and  N_10
REMARK    6  A    between atoms: C_11  and  C_13
REMARK                            x       y       z     vdW  Elec       q    Type
REMARK                         _______ _______ _______ _____ _____    ______ ____
ROOT
ATOM      1  C   UNL     1      47.078   7.611  13.170  0.00  0.00    +0.000 A 
ATOM      2  C   UNL     1      45.873   8.251  12.844  0.00  0.00    +0.000 A 
ATOM      3  C   UNL     1      44.910   7.607  12.057  0.00  0.00    +0.000 A 
ATOM      4  C   UNL     1      45.119   6.299  11.599  0.00  0.00    +0.000 A 
ATOM      5  C   UNL     1      46.314   5.652  11.945  0.00  0.00    +0.000 A 
ATOM      6  C   UNL     1      47.277   6.297  12.729  0.00  0.00    +0.000 A 
ENDROOT
BRANCH   1   7
ATOM      7  C   UNL     1      48.117   8.306  14.015  0.00  0.00    +0.000 C 
BRANCH   7  10
ATOM      8  O   UNL     1      49.605   8.814  16.334  0.00  0.00    +0.000 OA
ATOM      9  C   UNL     1      49.567   7.669  15.896  0.00  0.00    +0.000 C 
ATOM     10  N   UNL     1      48.926   7.350  14.728  0.00  0.00    +0.000 N 
ATOM     11  H   UNL     1      48.740   6.375  14.520  0.00  0.00    +0.000 HD
BRANCH   9  12
ATOM     12  C   UNL     1      50.248   6.561  16.579  0.00  0.00    +0.000 A 
ATOM     13  C   UNL     1      49.516   5.616  17.284  0.00  0.00    +0.000 A 
ATOM     14  S   UNL     1      50.482   4.423  18.033  0.00  0.00    +0.000 S 
ATOM     15  C   UNL     1      51.909   5.102  17.398  0.00  0.00    +0.000 A 
ATOM     16  N   UNL     1      53.125   4.536  17.643  0.00  0.00    +0.000 NA
ATOM     17  C   UNL     1      54.115   5.142  17.076  0.00  0.00    +0.000 A 
ATOM     18  N   UNL     1      54.004   6.261  16.296  0.00  0.00    +0.000 N 
ATOM     19  C   UNL     1      52.806   6.878  16.046  0.00  0.00    +0.000 A 
ATOM     20  O   UNL     1      52.751   7.908  15.380  0.00  0.00    +0.000 OA
ATOM     21  C   UNL     1      51.653   6.233  16.646  0.00  0.00    +0.000 A 
ATOM     22  H   UNL     1      54.821   6.694  15.890  0.00  0.00    +0.000 HD
ENDBRANCH   9  12
ENDBRANCH   7  10
ENDBRANCH   1   7
BRANCH   4  23
ATOM     23  C   UNL     1      44.083   5.593  10.763  0.00  0.00    +0.000 C 
BRANCH  23  24
ATOM     24  N   UNL     1      44.651   4.956   9.598  0.00  0.00    +0.000 N 
ATOM     25  C   UNL     1      44.489   3.594   9.414  0.00  0.00    +0.000 C 
ATOM     26  O   UNL     1      43.793   2.902  10.155  0.00  0.00    +0.000 OA
ATOM     27  H   UNL     1      45.499   5.338   9.194  0.00  0.00    +0.000 HD
BRANCH  25  28
ATOM     28  C   UNL     1      45.138   3.041   8.137  0.00  0.00    +0.000 C 
ATOM     29  C   UNL     1      46.032   1.843   8.396  0.00  0.00    +0.000 C 
ATOM     30  C   UNL     1      46.874   1.779   7.138  0.00  0.00    +0.000 C 
ATOM     31  C   UNL     1      46.984   3.227   6.675  0.00  0.00    +0.000 C 
ATOM     32  N   UNL     1      46.047   4.017   7.487  0.00  0.00    +0.000 NA
ATOM     33  H   UNL     1      45.501   4.625   6.874  0.00  0.00    +0.000 HD
ENDBRANCH  25  28
ENDBRANCH  23  24
ENDBRANCH   4  23
TORSDOF 6
ENDMDL
MODEL 9
REMARK VINA RESULT:    -6.789      1.528      2.244
REMARK INTER + INTRA:         -10.075
REMARK INTER:                  -9.157
REMARK INTRA:                  -0.919
REMARK UNBOUND:                -0.905
REMARK  Name = 
REMARK  6 active torsions:
REMARK  status: ('A' for Active; 'I' for Inactive)
REMARK    1  A    between atoms: C_2  and  C_20
REMARK    2  A    between atoms: N_3  and  C_4
REMARK    3  A    between atoms: C_4  and  C_5
REMARK    4  A    between atoms: C_8  and  C_9
REMARK    5  A    between atoms: C_9  and  N_10
REMARK    6  A    between atoms: C_11  and  C_13
REMARK                            x       y       z     vdW  Elec       q    Type
REMARK                         _______ _______ _______ _____ _____    ______ ____
ROOT
ATOM      1  C   UNL     1      48.640   7.861  13.461  0.00  0.00    +0.000 A 
ATOM      2  C   UNL     1      47.515   8.580  13.892  0.00  0.00    +0.000 A 
ATOM      3  C   UNL     1      46.275   8.412  13.264  0.00  0.00    +0.000 A 
ATOM      4  C   UNL     1      46.125   7.503  12.209  0.00  0.00    +0.000 A 
ATOM      5  C   UNL     1      47.244   6.767  11.794  0.00  0.00    +0.000 A 
ATOM      6  C   UNL     1      48.484   6.938  12.420  0.00  0.00    +0.000 A 
ENDROOT
BRANCH   1   7
ATOM      7  C   UNL     1      49.978   8.044  14.134  0.00  0.00    +0.000 C 
BRANCH   7  10
ATOM      8  O   UNL     1      52.216   7.160  15.570  0.00  0.00    +0.000 OA
ATOM      9  C   UNL     1      51.120   7.150  16.120  0.00  0.00    +0.000 C 
ATOM     10  N   UNL     1      49.966   7.493  15.466  0.00  0.00    +0.000 N 
ATOM     11  H   UNL     1      49.129   7.674  16.008  0.00  0.00    +0.000 HD
BRANCH   9  12
ATOM     12  C   UNL     1      50.964   6.723  17.517  0.00  0.00    +0.000 A 
ATOM     13  C   UNL     1      51.725   7.309  18.518  0.00  0.00    +0.000 A 
ATOM     14  S   UNL     1      51.425   6.664  20.071  0.00  0.00    +0.000 S 
ATOM     15  C   UNL     1      50.230   5.613  19.464  0.00  0.00    +0.000 A 
ATOM     16  N   UNL     1      49.541   4.779  20.293  0.00  0.00    +0.000 NA
ATOM     17  C   UNL     1      48.647   4.061  19.700  0.00  0.00    +0.000 A 
ATOM     18  N   UNL     1      48.384   4.093  18.357  0.00  0.00    +0.000 N 
ATOM     19  C   UNL     1      49.070   4.894  17.483  0.00  0.00    +0.000 A 
ATOM     20  O   UNL     1      48.838   4.862  16.277  0.00  0.00    +0.000 OA
ATOM     21  C   UNL     1      50.080   5.738  18.096  0.00  0.00    +0.000 A 
ATOM     22  H   UNL     1      47.678   3.495  17.951  0.00  0.00    +0.000 HD
ENDBRANCH   9  12
ENDBRANCH   7  10
ENDBRANCH   1   7
BRANCH   4  23
ATOM     23  C   UNL     1      44.790   7.305  11.536  0.00  0.00    +0.000 C 
BRANCH  23  24
ATOM     24  N   UNL     1      44.801   6.213  10.592  0.00  0.00    +0.000 N 
ATOM     25  C   UNL     1      43.874   5.193  10.713  0.00  0.00    +0.000 C 
ATOM     26  O   UNL     1      42.964   5.218  11.539  0.00  0.00    +0.000 OA
ATOM     27  H   UNL     1      45.683   5.933  10.175  0.00  0.00    +0.000 HD
BRANCH  25  28
ATOM     28  C   UNL     1      43.991   4.094   9.647  0.00  0.00    +0.000 C 
ATOM     29  C   UNL     1      44.724   2.862  10.141  0.00  0.00    +0.000 C 
ATOM     30  C   UNL     1      45.104   2.161   8.852  0.00  0.00    +0.000 C 
ATOM     31  C   UNL     1      45.284   3.287   7.842  0.00  0.00    +0.000 C 
ATOM     32  N   UNL     1      44.786   4.521   8.469  0.00  0.00    +0.000 NA
ATOM     33  H   UNL     1      44.176   5.009   7.812  0.00  0.00    +0.000 HD
ENDBRANCH  25  28
ENDBRANCH  23  24
ENDBRANCH   4  23
TORSDOF 6
ENDMDL
