MODEL 1
REMARK VINA RESULT:    -7.180      0.000      0.000
REMARK INTER + INTRA:         -10.731
REMARK INTER:                 -10.119
REMARK INTRA:                  -0.612
REMARK UNBOUND:                -0.612
REMARK  Name = 
REMARK  8 active torsions:
REMARK  status: ('A' for Active; 'I' for Inactive)
REMARK    1  A    between atoms: C_1  and  C_2
REMARK    2  A    between atoms: C_2  and  O_3
REMARK    3  A    between atoms: O_3  and  C_4
REMARK    4  A    between atoms: C_4  and  C_5
REMARK    5  A    between atoms: C_4  and  C_19
REMARK    6  A    between atoms: C_5  and  N_6
REMARK    7  A    between atoms: C_9  and  C_10
REMARK    8  A    between atoms: C_10  and  N_11
REMARK                            x       y       z     vdW  Elec       q    Type
REMARK                         _______ _______ _______ _____ _____    ______ ____
ROOT
ATOM      1  C   UNL     1      48.709   4.524  17.636  0.00  0.00    +0.000 C 
ENDROOT
BRANCH   1   2
ATOM      2  C   UNL     1      50.167   4.281  18.002  0.00  0.00    +0.000 A 
ATOM      3  C   UNL     1      50.901   5.133  18.812  0.00  0.00    +0.000 A 
ATOM      4  S   UNL     1      52.449   4.534  19.206  0.00  0.00    +0.000 S 
ATOM      5  C   UNL     1      52.177   3.100  18.330  0.00  0.00    +0.000 A 
ATOM      6  N   UNL     1      53.106   2.105  18.311  0.00  0.00    +0.000 NA
ATOM      7  C   UNL     1      52.748   1.063  17.638  0.00  0.00    +0.000 A 
ATOM      8  N   UNL     1      51.560   0.936  16.968  0.00  0.00    +0.000 N 
ATOM      9  C   UNL     1      50.591   1.915  16.935  0.00  0.00    +0.000 A 
ATOM     10  O   UNL     1      49.547   1.759  16.312  0.00  0.00    +0.000 OA
ATOM     11  C   UNL     1      50.937   3.097  17.711  0.00  0.00    +0.000 A 
ATOM     12  H   UNL     1      51.351   0.094  16.441  0.00  0.00    +0.000 HD
ENDBRANCH   1   2
BRANCH   1  13
ATOM     13  O   UNL     1      48.041   4.776  18.886  0.00  0.00    +0.000 OA
BRANCH  13  15
ATOM     14  C   UNL     1      47.625   6.968  19.999  0.00  0.00    +0.000 C 
ATOM     15  C   UNL     1      47.185   5.900  19.014  0.00  0.00    +0.000 C 
ENDBRANCH  13  15
ENDBRANCH   1  13
BRANCH   1  16
ATOM     16  C   UNL     1      48.525   5.688  16.588  0.00  0.00    +0.000 C 
BRANCH  16  17
ATOM     17  N   UNL     1      48.277   5.320  15.156  0.00  0.00    +0.000 NA
ATOM     18  C   UNL     1      47.151   4.381  15.046  0.00  0.00    +0.000 C 
ATOM     19  C   UNL     1      46.794   4.018  13.605  0.00  0.00    +0.000 C 
ATOM     20  C   UNL     1      46.471   5.242  12.741  0.00  0.00    +0.000 C 
ATOM     21  C   UNL     1      47.644   6.232  12.886  0.00  0.00    +0.000 C 
ATOM     22  C   UNL     1      48.036   6.531  14.345  0.00  0.00    +0.000 C 
BRANCH  20  23
ATOM     23  C   UNL     1      45.085   5.883  13.052  0.00  0.00    +0.000 C 
BRANCH  23  24
ATOM     24  N   UNL     1      44.151   5.881  11.913  0.00  0.00    +0.000 NA
ATOM     25  C   UNL     1      42.919   5.083  12.097  0.00  0.00    +0.000 C 
ATOM     26  C   UNL     1      43.035   3.580  11.775  0.00  0.00    +0.000 C 
ATOM     27  O   UNL     1      43.621   3.350  10.488  0.00  0.00    +0.000 OA
ATOM     28  C   UNL     1      44.908   3.973  10.418  0.00  0.00    +0.000 C 
ATOM     29  C   UNL     1      44.791   5.489  10.638  0.00  0.00    +0.000 C 
ENDBRANCH  23  24
ENDBRANCH  20  23
ENDBRANCH  16  17
ENDBRANCH   1  16
TORSDOF 7
ENDMDL
MODEL 2
REMARK VINA RESULT:    -6.487      3.329      8.374
REMARK INTER + INTRA:          -9.753
REMARK INTER:                  -8.869
REMARK INTRA:                  -0.884
REMARK UNBOUND:                -0.612
REMARK  Name = 
REMARK  8 active torsions:
REMARK  status: ('A' for Active; 'I' for Inactive)
REMARK    1  A    between atoms: C_1  and  C_2
REMARK    2  A    between atoms: C_2  and  O_3
REMARK    3  A    between atoms: O_3  and  C_4
REMARK    4  A    between atoms: C_4  and  C_5
REMARK    5  A    between atoms: C_4  and  C_19
REMARK    6  A    between atoms: C_5  and  N_6
REMARK    7  A    between atoms: C_9  and  C_10
REMARK    8  A    between atoms: C_10  and  N_11
REMARK                            x       y       z     vdW  Elec       q    Type
REMARK                         _______ _______ _______ _____ _____    ______ ____
ROOT
ATOM      1  C   UNL     1      45.106   7.407  11.464  0.00  0.00    +0.000 C 
ENDROOT
BRANCH   1   2
ATOM      2  C   UNL     1      44.631   5.985  11.731  0.00  0.00    +0.000 A 
ATOM      3  C   UNL     1      43.910   5.623  12.858  0.00  0.00    +0.000 A 
ATOM      4  S   UNL     1      43.352   4.011  12.821  0.00  0.00    +0.000 S 
ATOM      5  C   UNL     1      44.032   3.753  11.282  0.00  0.00    +0.000 A 
ATOM      6  N   UNL     1      43.862   2.570  10.632  0.00  0.00    +0.000 NA
ATOM      7  C   UNL     1      44.401   2.531   9.459  0.00  0.00    +0.000 A 
ATOM      8  N   UNL     1      45.110   3.556   8.891  0.00  0.00    +0.000 N 
ATOM      9  C   UNL     1      45.332   4.768   9.508  0.00  0.00    +0.000 A 
ATOM     10  O   UNL     1      45.983   5.652   8.963  0.00  0.00    +0.000 OA
ATOM     11  C   UNL     1      44.711   4.870  10.821  0.00  0.00    +0.000 A 
ATOM     12  H   UNL     1      45.524   3.450   7.971  0.00  0.00    +0.000 HD
ENDBRANCH   1   2
BRANCH   1  13
ATOM     13  O   UNL     1      43.980   8.077  10.866  0.00  0.00    +0.000 OA
BRANCH  13  15
ATOM     14  C   UNL     1      42.533  10.082  10.549  0.00  0.00    +0.000 C 
ATOM     15  C   UNL     1      43.867   9.488  10.963  0.00  0.00    +0.000 C 
ENDBRANCH  13  15
ENDBRANCH   1  13
BRANCH   1  16
ATOM     16  C   UNL     1      45.642   8.129  12.759  0.00  0.00    +0.000 C 
BRANCH  16  17
ATOM     17  N   UNL     1      47.118   8.110  13.022  0.00  0.00    +0.000 NA
ATOM     18  C   UNL     1      47.451   8.941  14.189  0.00  0.00    +0.000 C 
ATOM     19  C   UNL     1      48.933   8.909  14.561  0.00  0.00    +0.000 C 
ATOM     20  C   UNL     1      49.454   7.493  14.828  0.00  0.00    +0.000 C 
ATOM     21  C   UNL     1      49.075   6.624  13.613  0.00  0.00    +0.000 C 
ATOM     22  C   UNL     1      47.592   6.724  13.208  0.00  0.00    +0.000 C 
BRANCH  20  23
ATOM     23  C   UNL     1      48.976   6.893  16.185  0.00  0.00    +0.000 C 
BRANCH  23  24
ATOM     24  N   UNL     1      49.119   5.429  16.279  0.00  0.00    +0.000 NA
ATOM     25  C   UNL     1      47.857   4.673  16.441  0.00  0.00    +0.000 C 
ATOM     26  C   UNL     1      47.333   4.537  17.885  0.00  0.00    +0.000 C 
ATOM     27  O   UNL     1      48.346   4.066  18.781  0.00  0.00    +0.000 OA
ATOM     28  C   UNL     1      49.478   4.940  18.745  0.00  0.00    +0.000 C 
ATOM     29  C   UNL     1      50.071   5.005  17.329  0.00  0.00    +0.000 C 
ENDBRANCH  23  24
ENDBRANCH  20  23
ENDBRANCH  16  17
ENDBRANCH   1  16
TORSDOF 7
ENDMDL
MODEL 3
REMARK VINA RESULT:    -6.472      2.334      3.060
REMARK INTER + INTRA:          -9.733
REMARK INTER:                  -8.570
REMARK INTRA:                  -1.163
REMARK UNBOUND:                -0.612
REMARK  Name = 
REMARK  8 active torsions:
REMARK  status: ('A' for Active; 'I' for Inactive)
REMARK    1  A    between atoms: C_1  and  C_2
REMARK    2  A    between atoms: C_2  and  O_3
REMARK    3  A    between atoms: O_3  and  C_4
REMARK    4  A    between atoms: C_4  and  C_5
REMARK    5  A    between atoms: C_4  and  C_19
REMARK    6  A    between atoms: C_5  and  N_6
REMARK    7  A    between atoms: C_9  and  C_10
REMARK    8  A    between atoms: C_10  and  N_11
REMARK                            x       y       z     vdW  Elec       q    Type
REMARK                         _______ _______ _______ _____ _____    ______ ____
ROOT
ATOM      1  C   UNL     1      48.704   7.671  15.683  0.00  0.00    +0.000 C 
ENDROOT
BRANCH   1   2
ATOM      2  C   UNL     1      49.388   6.523  16.410  0.00  0.00    +0.000 A 
ATOM      3  C   UNL     1      50.553   6.674  17.148  0.00  0.00    +0.000 A 
ATOM      4  S   UNL     1      51.005   5.269  18.003  0.00  0.00    +0.000 S 
ATOM      5  C   UNL     1      49.641   4.420  17.440  0.00  0.00    +0.000 A 
ATOM      6  N   UNL     1      49.386   3.150  17.857  0.00  0.00    +0.000 NA
ATOM      7  C   UNL     1      48.298   2.646  17.377  0.00  0.00    +0.000 A 
ATOM      8  N   UNL     1      47.458   3.288  16.506  0.00  0.00    +0.000 N 
ATOM      9  C   UNL     1      47.673   4.564  16.034  0.00  0.00    +0.000 A 
ATOM     10  O   UNL     1      46.898   5.093  15.247  0.00  0.00    +0.000 OA
ATOM     11  C   UNL     1      48.872   5.187  16.578  0.00  0.00    +0.000 A 
ATOM     12  H   UNL     1      46.628   2.824  16.152  0.00  0.00    +0.000 HD
ENDBRANCH   1   2
BRANCH   1  13
ATOM     13  O   UNL     1      48.962   8.838  16.486  0.00  0.00    +0.000 OA
BRANCH  13  15
ATOM     14  C   UNL     1      47.697   9.061  18.624  0.00  0.00    +0.000 C 
ATOM     15  C   UNL     1      47.895   9.470  17.175  0.00  0.00    +0.000 C 
ENDBRANCH  13  15
ENDBRANCH   1  13
BRANCH   1  16
ATOM     16  C   UNL     1      49.187   7.827  14.189  0.00  0.00    +0.000 C 
BRANCH  16  17
ATOM     17  N   UNL     1      48.147   7.911  13.113  0.00  0.00    +0.000 NA
ATOM     18  C   UNL     1      47.927   6.594  12.497  0.00  0.00    +0.000 C 
ATOM     19  C   UNL     1      46.825   6.589  11.439  0.00  0.00    +0.000 C 
ATOM     20  C   UNL     1      45.478   7.090  11.973  0.00  0.00    +0.000 C 
ATOM     21  C   UNL     1      45.726   8.457  12.641  0.00  0.00    +0.000 C 
ATOM     22  C   UNL     1      46.887   8.460  13.652  0.00  0.00    +0.000 C 
BRANCH  20  23
ATOM     23  C   UNL     1      44.755   6.072  12.906  0.00  0.00    +0.000 C 
BRANCH  23  24
ATOM     24  N   UNL     1      43.459   5.598  12.390  0.00  0.00    +0.000 NA
ATOM     25  C   UNL     1      42.979   4.315  12.950  0.00  0.00    +0.000 C 
ATOM     26  C   UNL     1      43.516   3.040  12.268  0.00  0.00    +0.000 C 
ATOM     27  O   UNL     1      43.357   3.084  10.846  0.00  0.00    +0.000 OA
ATOM     28  C   UNL     1      44.009   4.242  10.315  0.00  0.00    +0.000 C 
ATOM     29  C   UNL     1      43.413   5.525  10.913  0.00  0.00    +0.000 C 
ENDBRANCH  23  24
ENDBRANCH  20  23
ENDBRANCH  16  17
ENDBRANCH   1  16
TORSDOF 7
ENDMDL
MODEL 4
REMARK VINA RESULT:    -6.293      3.122      7.837
REMARK INTER + INTRA:          -9.481
REMARK INTER:                  -8.448
REMARK INTRA:                  -1.032
REMARK UNBOUND:                -0.612
REMARK  Name = 
REMARK  8 active torsions:
REMARK  status: ('A' for Active; 'I' for Inactive)
REMARK    1  A    between atoms: C_1  and  C_2
REMARK    2  A    between atoms: C_2  and  O_3
REMARK    3  A    between atoms: O_3  and  C_4
REMARK    4  A    between atoms: C_4  and  C_5
REMARK    5  A    between atoms: C_4  and  C_19
REMARK    6  A    between atoms: C_5  and  N_6
REMARK    7  A    between atoms: C_9  and  C_10
REMARK    8  A    between atoms: C_10  and  N_11
REMARK                            x       y       z     vdW  Elec       q    Type
REMARK                         _______ _______ _______ _____ _____    ______ ____
ROOT
ATOM      1  C   UNL     1      48.209   6.602  13.631  0.00  0.00    +0.000 C 
ENDROOT
BRANCH   1   2
ATOM      2  C   UNL     1      46.800   6.429  13.083  0.00  0.00    +0.000 A 
ATOM      3  C   UNL     1      46.054   7.472  12.555  0.00  0.00    +0.000 A 
ATOM      4  S   UNL     1      44.583   6.970  11.852  0.00  0.00    +0.000 S 
ATOM      5  C   UNL     1      44.908   5.337  12.203  0.00  0.00    +0.000 A 
ATOM      6  N   UNL     1      44.058   4.353  11.803  0.00  0.00    +0.000 NA
ATOM      7  C   UNL     1      44.452   3.161  12.106  0.00  0.00    +0.000 A 
ATOM      8  N   UNL     1      45.603   2.868  12.789  0.00  0.00    +0.000 N 
ATOM      9  C   UNL     1      46.491   3.822  13.236  0.00  0.00    +0.000 A 
ATOM     10  O   UNL     1      47.503   3.512  13.853  0.00  0.00    +0.000 OA
ATOM     11  C   UNL     1      46.105   5.181  12.885  0.00  0.00    +0.000 A 
ATOM     12  H   UNL     1      45.842   1.908  13.011  0.00  0.00    +0.000 HD
ENDBRANCH   1   2
BRANCH   1  13
ATOM     13  O   UNL     1      49.079   6.468  12.491  0.00  0.00    +0.000 OA
BRANCH  13  15
ATOM     14  C   UNL     1      50.954   7.885  11.659  0.00  0.00    +0.000 C 
ATOM     15  C   UNL     1      49.462   7.620  11.757  0.00  0.00    +0.000 C 
ENDBRANCH  13  15
ENDBRANCH   1  13
BRANCH   1  16
ATOM     16  C   UNL     1      48.405   7.964  14.404  0.00  0.00    +0.000 C 
BRANCH  16  17
ATOM     17  N   UNL     1      49.197   7.949  15.676  0.00  0.00    +0.000 NA
ATOM     18  C   UNL     1      48.697   6.910  16.589  0.00  0.00    +0.000 C 
ATOM     19  C   UNL     1      49.506   6.788  17.880  0.00  0.00    +0.000 C 
ATOM     20  C   UNL     1      50.995   6.519  17.632  0.00  0.00    +0.000 C 
ATOM     21  C   UNL     1      51.501   7.595  16.652  0.00  0.00    +0.000 C 
ATOM     22  C   UNL     1      50.633   7.754  15.390  0.00  0.00    +0.000 C 
BRANCH  20  23
ATOM     23  C   UNL     1      51.300   5.066  17.159  0.00  0.00    +0.000 C 
BRANCH  23  24
ATOM     24  N   UNL     1      51.018   4.032  18.170  0.00  0.00    +0.000 NA
ATOM     25  C   UNL     1      52.105   3.057  18.408  0.00  0.00    +0.000 C 
ATOM     26  C   UNL     1      52.153   1.852  17.447  0.00  0.00    +0.000 C 
ATOM     27  O   UNL     1      50.881   1.203  17.337  0.00  0.00    +0.000 OA
ATOM     28  C   UNL     1      49.888   2.140  16.908  0.00  0.00    +0.000 C 
ATOM     29  C   UNL     1      49.761   3.296  17.912  0.00  0.00    +0.000 C 
ENDBRANCH  23  24
ENDBRANCH  20  23
ENDBRANCH  16  17
ENDBRANCH   1  16
TORSDOF 7
ENDMDL
MODEL 5
REMARK VINA RESULT:    -5.967      3.179      8.486
REMARK INTER + INTRA:          -9.021
REMARK INTER:                  -7.980
REMARK INTRA:                  -1.042
REMARK UNBOUND:                -0.612
REMARK  Name = 
REMARK  8 active torsions:
REMARK  status: ('A' for Active; 'I' for Inactive)
REMARK    1  A    between atoms: C_1  and  C_2
REMARK    2  A    between atoms: C_2  and  O_3
REMARK    3  A    between atoms: O_3  and  C_4
REMARK    4  A    between atoms: C_4  and  C_5
REMARK    5  A    between atoms: C_4  and  C_19
REMARK    6  A    between atoms: C_5  and  N_6
REMARK    7  A    between atoms: C_9  and  C_10
REMARK    8  A    between atoms: C_10  and  N_11
REMARK                            x       y       z     vdW  Elec       q    Type
REMARK                         _______ _______ _______ _____ _____    ______ ____
ROOT
ATOM      1  C   UNL     1      48.186   6.255  13.934  0.00  0.00    +0.000 C 
ENDROOT
BRANCH   1   2
ATOM      2  C   UNL     1      46.820   6.221  13.263  0.00  0.00    +0.000 A 
ATOM      3  C   UNL     1      46.197   7.346  12.746  0.00  0.00    +0.000 A 
ATOM      4  S   UNL     1      44.761   6.999  11.893  0.00  0.00    +0.000 S 
ATOM      5  C   UNL     1      44.941   5.327  12.161  0.00  0.00    +0.000 A 
ATOM      6  N   UNL     1      44.063   4.435  11.627  0.00  0.00    +0.000 NA
ATOM      7  C   UNL     1      44.346   3.201  11.882  0.00  0.00    +0.000 A 
ATOM      8  N   UNL     1      45.411   2.783  12.636  0.00  0.00    +0.000 N 
ATOM      9  C   UNL     1      46.321   3.639  13.217  0.00  0.00    +0.000 A 
ATOM     10  O   UNL     1      47.252   3.218  13.892  0.00  0.00    +0.000 OA
ATOM     11  C   UNL     1      46.061   5.042  12.926  0.00  0.00    +0.000 A 
ATOM     12  H   UNL     1      45.563   1.796  12.813  0.00  0.00    +0.000 HD
ENDBRANCH   1   2
BRANCH   1  13
ATOM     13  O   UNL     1      49.136   6.354  12.857  0.00  0.00    +0.000 OA
BRANCH  13  15
ATOM     14  C   UNL     1      49.486   8.353  11.408  0.00  0.00    +0.000 C 
ATOM     15  C   UNL     1      49.848   7.564  12.654  0.00  0.00    +0.000 C 
ENDBRANCH  13  15
ENDBRANCH   1  13
BRANCH   1  16
ATOM     16  C   UNL     1      48.322   7.419  14.990  0.00  0.00    +0.000 C 
BRANCH  16  17
ATOM     17  N   UNL     1      48.625   7.054  16.412  0.00  0.00    +0.000 NA
ATOM     18  C   UNL     1      48.452   5.610  16.628  0.00  0.00    +0.000 C 
ATOM     19  C   UNL     1      48.815   5.153  18.041  0.00  0.00    +0.000 C 
ATOM     20  C   UNL     1      50.249   5.519  18.439  0.00  0.00    +0.000 C 
ATOM     21  C   UNL     1      50.429   7.029  18.182  0.00  0.00    +0.000 C 
ATOM     22  C   UNL     1      49.991   7.483  16.777  0.00  0.00    +0.000 C 
BRANCH  20  23
ATOM     23  C   UNL     1      51.337   4.645  17.745  0.00  0.00    +0.000 C 
BRANCH  23  24
ATOM     24  N   UNL     1      51.985   3.669  18.639  0.00  0.00    +0.000 NA
ATOM     25  C   UNL     1      52.705   4.243  19.797  0.00  0.00    +0.000 C 
ATOM     26  C   UNL     1      54.155   4.697  19.532  0.00  0.00    +0.000 C 
ATOM     27  O   UNL     1      54.927   3.677  18.887  0.00  0.00    +0.000 OA
ATOM     28  C   UNL     1      54.298   3.287  17.663  0.00  0.00    +0.000 C 
ATOM     29  C   UNL     1      52.887   2.738  17.926  0.00  0.00    +0.000 C 
ENDBRANCH  23  24
ENDBRANCH  20  23
ENDBRANCH  16  17
ENDBRANCH   1  16
TORSDOF 7
ENDMDL
MODEL 6
REMARK VINA RESULT:    -5.827      4.699      8.932
REMARK INTER + INTRA:          -8.823
REMARK INTER:                  -8.033
REMARK INTRA:                  -0.790
REMARK UNBOUND:                -0.612
REMARK  Name = 
REMARK  8 active torsions:
REMARK  status: ('A' for Active; 'I' for Inactive)
REMARK    1  A    between atoms: C_1  and  C_2
REMARK    2  A    between atoms: C_2  and  O_3
REMARK    3  A    between atoms: O_3  and  C_4
REMARK    4  A    between atoms: C_4  and  C_5
REMARK    5  A    between atoms: C_4  and  C_19
REMARK    6  A    between atoms: C_5  and  N_6
REMARK    7  A    between atoms: C_9  and  C_10
REMARK    8  A    between atoms: C_10  and  N_11
REMARK                            x       y       z     vdW  Elec       q    Type
REMARK                         _______ _______ _______ _____ _____    ______ ____
ROOT
ATOM      1  C   UNL     1      45.203   6.981  11.250  0.00  0.00    +0.000 C 
ENDROOT
BRANCH   1   2
ATOM      2  C   UNL     1      44.742   5.537  11.395  0.00  0.00    +0.000 A 
ATOM      3  C   UNL     1      44.013   5.075  12.480  0.00  0.00    +0.000 A 
ATOM      4  S   UNL     1      43.476   3.465  12.304  0.00  0.00    +0.000 S 
ATOM      5  C   UNL     1      44.174   3.343  10.757  0.00  0.00    +0.000 A 
ATOM      6  N   UNL     1      44.024   2.216  10.009  0.00  0.00    +0.000 NA
ATOM      7  C   UNL     1      44.576   2.279   8.843  0.00  0.00    +0.000 A 
ATOM      8  N   UNL     1      45.279   3.356   8.369  0.00  0.00    +0.000 N 
ATOM      9  C   UNL     1      45.480   4.515   9.087  0.00  0.00    +0.000 A 
ATOM     10  O   UNL     1      46.126   5.448   8.624  0.00  0.00    +0.000 OA
ATOM     11  C   UNL     1      44.845   4.502  10.396  0.00  0.00    +0.000 A 
ATOM     12  H   UNL     1      45.704   3.331   7.449  0.00  0.00    +0.000 HD
ENDBRANCH   1   2
BRANCH   1  13
ATOM     13  O   UNL     1      43.999   7.770  11.297  0.00  0.00    +0.000 OA
BRANCH  13  15
ATOM     14  C   UNL     1      42.747   9.768  10.488  0.00  0.00    +0.000 C 
ATOM     15  C   UNL     1      44.047   9.149  10.968  0.00  0.00    +0.000 C 
ENDBRANCH  13  15
ENDBRANCH   1  13
BRANCH   1  16
ATOM     16  C   UNL     1      46.262   7.400  12.342  0.00  0.00    +0.000 C 
BRANCH  16  17
ATOM     17  N   UNL     1      47.587   7.925  11.878  0.00  0.00    +0.000 NA
ATOM     18  C   UNL     1      47.788   9.308  12.335  0.00  0.00    +0.000 C 
ATOM     19  C   UNL     1      49.153   9.885  11.961  0.00  0.00    +0.000 C 
ATOM     20  C   UNL     1      50.323   9.043  12.482  0.00  0.00    +0.000 C 
ATOM     21  C   UNL     1      50.088   7.590  12.022  0.00  0.00    +0.000 C 
ATOM     22  C   UNL     1      48.682   7.050  12.344  0.00  0.00    +0.000 C 
BRANCH  20  23
ATOM     23  C   UNL     1      50.555   9.171  14.018  0.00  0.00    +0.000 C 
BRANCH  23  24
ATOM     24  N   UNL     1      51.040   7.936  14.659  0.00  0.00    +0.000 NA
ATOM     25  C   UNL     1      50.227   7.442  15.792  0.00  0.00    +0.000 C 
ATOM     26  C   UNL     1      50.539   8.067  17.167  0.00  0.00    +0.000 C 
ATOM     27  O   UNL     1      51.938   8.029  17.469  0.00  0.00    +0.000 OA
ATOM     28  C   UNL     1      52.679   8.695  16.443  0.00  0.00    +0.000 C 
ATOM     29  C   UNL     1      52.455   8.018  15.082  0.00  0.00    +0.000 C 
ENDBRANCH  23  24
ENDBRANCH  20  23
ENDBRANCH  16  17
ENDBRANCH   1  16
TORSDOF 7
ENDMDL
MODEL 7
REMARK VINA RESULT:    -5.791      2.078      2.838
REMARK INTER + INTRA:          -8.772
REMARK INTER:                  -8.121
REMARK INTRA:                  -0.652
REMARK UNBOUND:                -0.612
REMARK  Name = 
REMARK  8 active torsions:
REMARK  status: ('A' for Active; 'I' for Inactive)
REMARK    1  A    between atoms: C_1  and  C_2
REMARK    2  A    between atoms: C_2  and  O_3
REMARK    3  A    between atoms: O_3  and  C_4
REMARK    4  A    between atoms: C_4  and  C_5
REMARK    5  A    between atoms: C_4  and  C_19
REMARK    6  A    between atoms: C_5  and  N_6
REMARK    7  A    between atoms: C_9  and  C_10
REMARK    8  A    between atoms: C_10  and  N_11
REMARK                            x       y       z     vdW  Elec       q    Type
REMARK                         _______ _______ _______ _____ _____    ______ ____
ROOT
ATOM      1  C   UNL     1      48.694   6.891  16.516  0.00  0.00    +0.000 C 
ENDROOT
BRANCH   1   2
ATOM      2  C   UNL     1      48.721   5.408  16.858  0.00  0.00    +0.000 A 
ATOM      3  C   UNL     1      47.619   4.577  16.730  0.00  0.00    +0.000 A 
ATOM      4  S   UNL     1      47.970   2.931  17.010  0.00  0.00    +0.000 S 
ATOM      5  C   UNL     1      49.615   3.272  17.282  0.00  0.00    +0.000 A 
ATOM      6  N   UNL     1      50.507   2.271  17.517  0.00  0.00    +0.000 NA
ATOM      7  C   UNL     1      51.724   2.675  17.668  0.00  0.00    +0.000 A 
ATOM      8  N   UNL     1      52.124   3.985  17.627  0.00  0.00    +0.000 N 
ATOM      9  C   UNL     1      51.265   5.041  17.413  0.00  0.00    +0.000 A 
ATOM     10  O   UNL     1      51.668   6.197  17.395  0.00  0.00    +0.000 OA
ATOM     11  C   UNL     1      49.885   4.629  17.201  0.00  0.00    +0.000 A 
ATOM     12  H   UNL     1      53.096   4.233  17.774  0.00  0.00    +0.000 HD
ENDBRANCH   1   2
BRANCH   1  13
ATOM     13  O   UNL     1      49.125   7.565  17.713  0.00  0.00    +0.000 OA
BRANCH  13  15
ATOM     14  C   UNL     1      47.475   8.734  19.173  0.00  0.00    +0.000 C 
ATOM     15  C   UNL     1      48.322   7.508  18.882  0.00  0.00    +0.000 C 
ENDBRANCH  13  15
ENDBRANCH   1  13
BRANCH   1  16
ATOM     16  C   UNL     1      49.573   7.246  15.255  0.00  0.00    +0.000 C 
BRANCH  16  17
ATOM     17  N   UNL     1      48.878   7.747  14.025  0.00  0.00    +0.000 NA
ATOM     18  C   UNL     1      48.595   6.641  13.098  0.00  0.00    +0.000 C 
ATOM     19  C   UNL     1      47.820   7.069  11.852  0.00  0.00    +0.000 C 
ATOM     20  C   UNL     1      46.491   7.759  12.180  0.00  0.00    +0.000 C 
ATOM     21  C   UNL     1      46.795   8.898  13.173  0.00  0.00    +0.000 C 
ATOM     22  C   UNL     1      47.638   8.463  14.387  0.00  0.00    +0.000 C 
BRANCH  20  23
ATOM     23  C   UNL     1      45.384   6.784  12.683  0.00  0.00    +0.000 C 
BRANCH  23  24
ATOM     24  N   UNL     1      45.437   5.445  12.070  0.00  0.00    +0.000 NA
ATOM     25  C   UNL     1      44.731   5.306  10.778  0.00  0.00    +0.000 C 
ATOM     26  C   UNL     1      43.219   5.012  10.864  0.00  0.00    +0.000 C 
ATOM     27  O   UNL     1      42.934   3.915  11.738  0.00  0.00    +0.000 OA
ATOM     28  C   UNL     1      43.463   4.177  13.041  0.00  0.00    +0.000 C 
ATOM     29  C   UNL     1      44.986   4.371  12.982  0.00  0.00    +0.000 C 
ENDBRANCH  23  24
ENDBRANCH  20  23
ENDBRANCH  16  17
ENDBRANCH   1  16
TORSDOF 7
ENDMDL
MODEL 8
REMARK VINA RESULT:    -5.711      3.323      8.567
REMARK INTER + INTRA:          -8.660
REMARK INTER:                  -8.194
REMARK INTRA:                  -0.466
REMARK UNBOUND:                -0.612
REMARK  Name = 
REMARK  8 active torsions:
REMARK  status: ('A' for Active; 'I' for Inactive)
REMARK    1  A    between atoms: C_1  and  C_2
REMARK    2  A    between atoms: C_2  and  O_3
REMARK    3  A    between atoms: O_3  and  C_4
REMARK    4  A    between atoms: C_4  and  C_5
REMARK    5  A    between atoms: C_4  and  C_19
REMARK    6  A    between atoms: C_5  and  N_6
REMARK    7  A    between atoms: C_9  and  C_10
REMARK    8  A    between atoms: C_10  and  N_11
REMARK                            x       y       z     vdW  Elec       q    Type
REMARK                         _______ _______ _______ _____ _____    ______ ____
ROOT
ATOM      1  C   UNL     1      46.638   6.581  12.036  0.00  0.00    +0.000 C 
ENDROOT
BRANCH   1   2
ATOM      2  C   UNL     1      45.834   5.675  11.114  0.00  0.00    +0.000 A 
ATOM      3  C   UNL     1      46.002   5.645   9.738  0.00  0.00    +0.000 A 
ATOM      4  S   UNL     1      45.105   4.416   8.968  0.00  0.00    +0.000 S 
ATOM      5  C   UNL     1      44.484   3.862  10.453  0.00  0.00    +0.000 A 
ATOM      6  N   UNL     1      43.679   2.767  10.510  0.00  0.00    +0.000 NA
ATOM      7  C   UNL     1      43.315   2.441  11.706  0.00  0.00    +0.000 A 
ATOM      8  N   UNL     1      43.666   3.123  12.842  0.00  0.00    +0.000 N 
ATOM      9  C   UNL     1      44.461   4.248  12.845  0.00  0.00    +0.000 A 
ATOM     10  O   UNL     1      44.739   4.830  13.886  0.00  0.00    +0.000 OA
ATOM     11  C   UNL     1      44.925   4.632  11.519  0.00  0.00    +0.000 A 
ATOM     12  H   UNL     1      43.327   2.823  13.749  0.00  0.00    +0.000 HD
ENDBRANCH   1   2
BRANCH   1  13
ATOM     13  O   UNL     1      45.659   7.344  12.767  0.00  0.00    +0.000 OA
BRANCH  13  15
ATOM     14  C   UNL     1      46.352   9.681  12.242  0.00  0.00    +0.000 C 
ATOM     15  C   UNL     1      45.265   8.622  12.294  0.00  0.00    +0.000 C 
ENDBRANCH  13  15
ENDBRANCH   1  13
BRANCH   1  16
ATOM     16  C   UNL     1      47.628   5.785  12.970  0.00  0.00    +0.000 C 
BRANCH  16  17
ATOM     17  N   UNL     1      47.751   6.213  14.401  0.00  0.00    +0.000 NA
ATOM     18  C   UNL     1      47.701   5.050  15.300  0.00  0.00    +0.000 C 
ATOM     19  C   UNL     1      47.894   5.405  16.774  0.00  0.00    +0.000 C 
ATOM     20  C   UNL     1      49.206   6.151  17.043  0.00  0.00    +0.000 C 
ATOM     21  C   UNL     1      49.262   7.351  16.077  0.00  0.00    +0.000 C 
ATOM     22  C   UNL     1      48.994   6.985  14.606  0.00  0.00    +0.000 C 
BRANCH  20  23
ATOM     23  C   UNL     1      50.471   5.245  16.970  0.00  0.00    +0.000 C 
BRANCH  23  24
ATOM     24  N   UNL     1      50.479   4.141  17.946  0.00  0.00    +0.000 NA
ATOM     25  C   UNL     1      50.573   4.544  19.366  0.00  0.00    +0.000 C 
ATOM     26  C   UNL     1      51.996   4.793  19.904  0.00  0.00    +0.000 C 
ATOM     27  O   UNL     1      52.879   3.705  19.608  0.00  0.00    +0.000 OA
ATOM     28  C   UNL     1      52.916   3.473  18.196  0.00  0.00    +0.000 C 
ATOM     29  C   UNL     1      51.517   3.125  17.665  0.00  0.00    +0.000 C 
ENDBRANCH  23  24
ENDBRANCH  20  23
ENDBRANCH  16  17
ENDBRANCH   1  16
TORSDOF 7
ENDMDL
MODEL 9
REMARK VINA RESULT:    -5.594      2.863      3.924
REMARK INTER + INTRA:          -8.495
REMARK INTER:                  -7.459
REMARK INTRA:                  -1.035
REMARK UNBOUND:                -0.612
REMARK  Name = 
REMARK  8 active torsions:
REMARK  status: ('A' for Active; 'I' for Inactive)
REMARK    1  A    between atoms: C_1  and  C_2
REMARK    2  A    between atoms: C_2  and  O_3
REMARK    3  A    between atoms: O_3  and  C_4
REMARK    4  A    between atoms: C_4  and  C_5
REMARK    5  A    between atoms: C_4  and  C_19
REMARK    6  A    between atoms: C_5  and  N_6
REMARK    7  A    between atoms: C_9  and  C_10
REMARK    8  A    between atoms: C_10  and  N_11
REMARK                            x       y       z     vdW  Elec       q    Type
REMARK                         _______ _______ _______ _____ _____    ______ ____
ROOT
ATOM      1  C   UNL     1      49.144   7.722  16.452  0.00  0.00    +0.000 C 
ENDROOT
BRANCH   1   2
ATOM      2  C   UNL     1      49.392   6.473  17.285  0.00  0.00    +0.000 A 
ATOM      3  C   UNL     1      50.364   5.533  16.979  0.00  0.00    +0.000 A 
ATOM      4  S   UNL     1      50.548   4.328  18.173  0.00  0.00    +0.000 S 
ATOM      5  C   UNL     1      49.355   5.042  19.155  0.00  0.00    +0.000 A 
ATOM      6  N   UNL     1      49.062   4.531  20.382  0.00  0.00    +0.000 NA
ATOM      7  C   UNL     1      48.165   5.197  21.029  0.00  0.00    +0.000 A 
ATOM      8  N   UNL     1      47.522   6.309  20.552  0.00  0.00    +0.000 N 
ATOM      9  C   UNL     1      47.762   6.860  19.313  0.00  0.00    +0.000 A 
ATOM     10  O   UNL     1      47.153   7.850  18.926  0.00  0.00    +0.000 OA
ATOM     11  C   UNL     1      48.794   6.162  18.560  0.00  0.00    +0.000 A 
ATOM     12  H   UNL     1      46.811   6.772  21.108  0.00  0.00    +0.000 HD
ENDBRANCH   1   2
BRANCH   1  13
ATOM     13  O   UNL     1      49.709   8.805  17.213  0.00  0.00    +0.000 OA
BRANCH  13  15
ATOM     14  C   UNL     1      48.502  10.910  17.790  0.00  0.00    +0.000 C 
ATOM     15  C   UNL     1      49.421  10.147  16.852  0.00  0.00    +0.000 C 
ENDBRANCH  13  15
ENDBRANCH   1  13
BRANCH   1  16
ATOM     16  C   UNL     1      49.735   7.615  14.993  0.00  0.00    +0.000 C 
BRANCH  16  17
ATOM     17  N   UNL     1      48.835   7.935  13.838  0.00  0.00    +0.000 NA
ATOM     18  C   UNL     1      48.768   6.804  12.900  0.00  0.00    +0.000 C 
ATOM     19  C   UNL     1      47.809   7.032  11.732  0.00  0.00    +0.000 C 
ATOM     20  C   UNL     1      46.380   7.353  12.184  0.00  0.00    +0.000 C 
ATOM     21  C   UNL     1      46.464   8.520  13.188  0.00  0.00    +0.000 C 
ATOM     22  C   UNL     1      47.488   8.303  14.318  0.00  0.00    +0.000 C 
BRANCH  20  23
ATOM     23  C   UNL     1      45.604   6.121  12.739  0.00  0.00    +0.000 C 
BRANCH  23  24
ATOM     24  N   UNL     1      45.622   4.947  11.849  0.00  0.00    +0.000 NA
ATOM     25  C   UNL     1      44.884   5.100  10.576  0.00  0.00    +0.000 C 
ATOM     26  C   UNL     1      43.370   4.810  10.635  0.00  0.00    +0.000 C 
ATOM     27  O   UNL     1      43.089   3.551  11.257  0.00  0.00    +0.000 OA
ATOM     28  C   UNL     1      43.652   3.517  12.572  0.00  0.00    +0.000 C 
ATOM     29  C   UNL     1      45.176   3.705  12.516  0.00  0.00    +0.000 C 
ENDBRANCH  23  24
ENDBRANCH  20  23
ENDBRANCH  16  17
ENDBRANCH   1  16
TORSDOF 7
ENDMDL
