MODEL 1
REMARK VINA RESULT:    -8.637      0.000      0.000
REMARK INTER + INTRA:         -11.275
REMARK INTER:                 -10.656
REMARK INTRA:                  -0.619
REMARK UNBOUND:                -0.619
REMARK  Name = 
REMARK  4 active torsions:
REMARK  status: ('A' for Active; 'I' for Inactive)
REMARK    1  A    between atoms: C_2  and  C_4
REMARK    2  A    between atoms: N_8  and  C_9
REMARK    3  A    between atoms: C_9  and  C_10
REMARK    4  A    between atoms: C_14  and  C_15
REMARK                            x       y       z     vdW  Elec       q    Type
REMARK                         _______ _______ _______ _____ _____    ______ ____
ROOT
ATOM      1  C   UNL     1      43.459   3.688  11.177  0.00  0.00    +0.000 C 
ENDROOT
BRANCH   1   6
ATOM      2  C   UNL     1      46.591   2.485   7.237  0.00  0.00    +0.000 A 
ATOM      3  C   UNL     1      46.018   3.698   7.593  0.00  0.00    +0.000 A 
ATOM      4  C   UNL     1      45.171   3.754   8.699  0.00  0.00    +0.000 A 
ATOM      5  C   UNL     1      44.914   2.602   9.434  0.00  0.00    +0.000 A 
ATOM      6  N   UNL     1      44.154   2.579  10.568  0.00  0.00    +0.000 N 
ATOM      7  N   UNL     1      45.436   1.412   9.074  0.00  0.00    +0.000 NA
ATOM      8  C   UNL     1      46.252   1.370   7.986  0.00  0.00    +0.000 A 
ATOM      9  H   UNL     1      44.040   1.650  10.954  0.00  0.00    +0.000 HD
BRANCH   2  11
ATOM     10  N   UNL     1      47.466   3.309   5.130  0.00  0.00    +0.000 N 
ATOM     11  C   UNL     1      47.523   2.345   6.100  0.00  0.00    +0.000 C 
ATOM     12  O   UNL     1      48.336   1.433   6.043  0.00  0.00    +0.000 OA
ATOM     13  H   UNL     1      48.170   3.266   4.404  0.00  0.00    +0.000 HD
ATOM     14  H   UNL     1      46.992   4.192   5.266  0.00  0.00    +0.000 HD
ENDBRANCH   2  11
ENDBRANCH   1   6
BRANCH   1  15
ATOM     15  C   UNL     1      44.396   4.674  11.821  0.00  0.00    +0.000 A 
ATOM     16  C   UNL     1      45.270   4.271  12.821  0.00  0.00    +0.000 A 
ATOM     17  N   UNL     1      46.110   5.102  13.472  0.00  0.00    +0.000 NA
ATOM     18  C   UNL     1      46.072   6.411  13.113  0.00  0.00    +0.000 A 
ATOM     19  C   UNL     1      45.230   6.955  12.142  0.00  0.00    +0.000 A 
ATOM     20  C   UNL     1      44.375   6.040  11.508  0.00  0.00    +0.000 A 
BRANCH  19  21
ATOM     21  C   UNL     1      45.221   8.395  11.802  0.00  0.00    +0.000 A 
ATOM     22  C   UNL     1      46.265   9.251  12.212  0.00  0.00    +0.000 A 
ATOM     23  C   UNL     1      46.281  10.610  11.877  0.00  0.00    +0.000 A 
ATOM     24  C   UNL     1      45.240  11.151  11.132  0.00  0.00    +0.000 A 
ATOM     25  C   UNL     1      44.198  10.327  10.728  0.00  0.00    +0.000 A 
ATOM     26  F   UNL     1      43.191  10.843  10.012  0.00  0.00    +0.000 F 
ATOM     27  C   UNL     1      44.183   8.970  11.048  0.00  0.00    +0.000 A 
ENDBRANCH  19  21
ENDBRANCH   1  15
TORSDOF 4
ENDMDL
MODEL 2
REMARK VINA RESULT:    -8.489      4.041      7.294
REMARK INTER + INTRA:         -11.093
REMARK INTER:                 -10.330
REMARK INTRA:                  -0.763
REMARK UNBOUND:                -0.619
REMARK  Name = 
REMARK  4 active torsions:
REMARK  status: ('A' for Active; 'I' for Inactive)
REMARK    1  A    between atoms: C_2  and  C_4
REMARK    2  A    between atoms: N_8  and  C_9
REMARK    3  A    between atoms: C_9  and  C_10
REMARK    4  A    between atoms: C_14  and  C_15
REMARK                            x       y       z     vdW  Elec       q    Type
REMARK                         _______ _______ _______ _____ _____    ______ ____
ROOT
ATOM      1  C   UNL     1      44.481   6.400  12.240  0.00  0.00    +0.000 C 
ENDROOT
BRANCH   1   6
ATOM      2  C   UNL     1      49.468   7.698  12.719  0.00  0.00    +0.000 A 
ATOM      3  C   UNL     1      48.602   7.834  11.642  0.00  0.00    +0.000 A 
ATOM      4  C   UNL     1      47.293   7.369  11.757  0.00  0.00    +0.000 A 
ATOM      5  C   UNL     1      46.867   6.782  12.944  0.00  0.00    +0.000 A 
ATOM      6  N   UNL     1      45.587   6.362  13.167  0.00  0.00    +0.000 N 
ATOM      7  N   UNL     1      47.711   6.612  13.981  0.00  0.00    +0.000 NA
ATOM      8  C   UNL     1      48.989   7.060  13.852  0.00  0.00    +0.000 A 
ATOM      9  H   UNL     1      45.461   5.925  14.071  0.00  0.00    +0.000 HD
BRANCH   2  11
ATOM     10  N   UNL     1      51.644   7.895  13.774  0.00  0.00    +0.000 N 
ATOM     11  C   UNL     1      50.860   8.192  12.692  0.00  0.00    +0.000 C 
ATOM     12  O   UNL     1      51.306   8.803  11.731  0.00  0.00    +0.000 OA
ATOM     13  H   UNL     1      52.622   8.149  13.710  0.00  0.00    +0.000 HD
ATOM     14  H   UNL     1      51.389   7.194  14.456  0.00  0.00    +0.000 HD
ENDBRANCH   2  11
ENDBRANCH   1   6
BRANCH   1  15
ATOM     15  C   UNL     1      44.245   5.076  11.566  0.00  0.00    +0.000 A 
ATOM     16  C   UNL     1      43.318   4.178  12.077  0.00  0.00    +0.000 A 
ATOM     17  N   UNL     1      43.080   2.957  11.554  0.00  0.00    +0.000 NA
ATOM     18  C   UNL     1      43.812   2.607  10.465  0.00  0.00    +0.000 A 
ATOM     19  C   UNL     1      44.789   3.401   9.863  0.00  0.00    +0.000 A 
ATOM     20  C   UNL     1      44.995   4.654  10.459  0.00  0.00    +0.000 A 
BRANCH  19  21
ATOM     21  C   UNL     1      45.568   2.961   8.685  0.00  0.00    +0.000 A 
ATOM     22  C   UNL     1      45.961   3.873   7.684  0.00  0.00    +0.000 A 
ATOM     23  C   UNL     1      46.718   3.474   6.575  0.00  0.00    +0.000 A 
ATOM     24  C   UNL     1      47.088   2.142   6.434  0.00  0.00    +0.000 A 
ATOM     25  C   UNL     1      46.701   1.227   7.404  0.00  0.00    +0.000 A 
ATOM     26  F   UNL     1      47.054  -0.058   7.272  0.00  0.00    +0.000 F 
ATOM     27  C   UNL     1      45.959   1.621   8.516  0.00  0.00    +0.000 A 
ENDBRANCH  19  21
ENDBRANCH   1  15
TORSDOF 4
ENDMDL
MODEL 3
REMARK VINA RESULT:    -8.366      3.144      4.487
REMARK INTER + INTRA:         -10.941
REMARK INTER:                 -10.295
REMARK INTRA:                  -0.646
REMARK UNBOUND:                -0.619
REMARK  Name = 
REMARK  4 active torsions:
REMARK  status: ('A' for Active; 'I' for Inactive)
REMARK    1  A    between atoms: C_2  and  C_4
REMARK    2  A    between atoms: N_8  and  C_9
REMARK    3  A    between atoms: C_9  and  C_10
REMARK    4  A    between atoms: C_14  and  C_15
REMARK                            x       y       z     vdW  Elec       q    Type
REMARK                         _______ _______ _______ _____ _____    ______ ____
ROOT
ATOM      1  C   UNL     1      43.634   4.950  11.183  0.00  0.00    +0.000 C 
ENDROOT
BRANCH   1   6
ATOM      2  C   UNL     1      46.444   2.658   7.491  0.00  0.00    +0.000 A 
ATOM      3  C   UNL     1      46.124   3.996   7.678  0.00  0.00    +0.000 A 
ATOM      4  C   UNL     1      45.311   4.359   8.751  0.00  0.00    +0.000 A 
ATOM      5  C   UNL     1      44.836   3.384   9.621  0.00  0.00    +0.000 A 
ATOM      6  N   UNL     1      44.092   3.657  10.734  0.00  0.00    +0.000 N 
ATOM      7  N   UNL     1      45.111   2.079   9.426  0.00  0.00    +0.000 NA
ATOM      8  C   UNL     1      45.896   1.737   8.369  0.00  0.00    +0.000 A 
ATOM      9  H   UNL     1      43.799   2.826  11.233  0.00  0.00    +0.000 HD
BRANCH   2  11
ATOM     10  N   UNL     1      47.418   2.995   5.294  0.00  0.00    +0.000 N 
ATOM     11  C   UNL     1      47.325   2.193   6.399  0.00  0.00    +0.000 C 
ATOM     12  O   UNL     1      47.971   1.159   6.492  0.00  0.00    +0.000 OA
ATOM     13  H   UNL     1      48.095   2.725   4.592  0.00  0.00    +0.000 HD
ATOM     14  H   UNL     1      47.101   3.955   5.289  0.00  0.00    +0.000 HD
ENDBRANCH   2  11
ENDBRANCH   1   6
BRANCH   1  15
ATOM     15  C   UNL     1      44.725   5.757  11.831  0.00  0.00    +0.000 A 
ATOM     16  C   UNL     1      45.098   6.989  11.311  0.00  0.00    +0.000 A 
ATOM     17  N   UNL     1      46.091   7.752  11.811  0.00  0.00    +0.000 NA
ATOM     18  C   UNL     1      46.758   7.257  12.885  0.00  0.00    +0.000 A 
ATOM     19  C   UNL     1      46.504   6.028  13.494  0.00  0.00    +0.000 A 
ATOM     20  C   UNL     1      45.464   5.279  12.922  0.00  0.00    +0.000 A 
BRANCH  19  21
ATOM     21  C   UNL     1      47.275   5.532  14.655  0.00  0.00    +0.000 A 
ATOM     22  C   UNL     1      48.310   6.299  15.229  0.00  0.00    +0.000 A 
ATOM     23  C   UNL     1      49.031   5.851  16.343  0.00  0.00    +0.000 A 
ATOM     24  C   UNL     1      48.741   4.612  16.902  0.00  0.00    +0.000 A 
ATOM     25  C   UNL     1      47.733   3.839  16.345  0.00  0.00    +0.000 A 
ATOM     26  F   UNL     1      47.450   2.644  16.879  0.00  0.00    +0.000 F 
ATOM     27  C   UNL     1      47.003   4.285  15.244  0.00  0.00    +0.000 A 
ENDBRANCH  19  21
ENDBRANCH   1  15
TORSDOF 4
ENDMDL
MODEL 4
REMARK VINA RESULT:    -8.327      1.839      2.241
REMARK INTER + INTRA:         -10.893
REMARK INTER:                 -10.247
REMARK INTRA:                  -0.646
REMARK UNBOUND:                -0.619
REMARK  Name = 
REMARK  4 active torsions:
REMARK  status: ('A' for Active; 'I' for Inactive)
REMARK    1  A    between atoms: C_2  and  C_4
REMARK    2  A    between atoms: N_8  and  C_9
REMARK    3  A    between atoms: C_9  and  C_10
REMARK    4  A    between atoms: C_14  and  C_15
REMARK                            x       y       z     vdW  Elec       q    Type
REMARK                         _______ _______ _______ _____ _____    ______ ____
ROOT
ATOM      1  C   UNL     1      43.810   4.338  11.272  0.00  0.00    +0.000 C 
ENDROOT
BRANCH   1   6
ATOM      2  C   UNL     1      46.599   2.597   7.276  0.00  0.00    +0.000 A 
ATOM      3  C   UNL     1      46.351   3.894   7.703  0.00  0.00    +0.000 A 
ATOM      4  C   UNL     1      45.526   4.102   8.807  0.00  0.00    +0.000 A 
ATOM      5  C   UNL     1      44.968   3.016   9.471  0.00  0.00    +0.000 A 
ATOM      6  N   UNL     1      44.207   3.124  10.600  0.00  0.00    +0.000 N 
ATOM      7  N   UNL     1      45.174   1.754   9.042  0.00  0.00    +0.000 NA
ATOM      8  C   UNL     1      45.971   1.565   7.956  0.00  0.00    +0.000 A 
ATOM      9  H   UNL     1      43.851   2.235  10.929  0.00  0.00    +0.000 HD
BRANCH   2  11
ATOM     10  N   UNL     1      47.379   3.091   5.033  0.00  0.00    +0.000 N 
ATOM     11  C   UNL     1      47.485   2.287   6.135  0.00  0.00    +0.000 C 
ATOM     12  O   UNL     1      48.302   1.379   6.184  0.00  0.00    +0.000 OA
ATOM     13  H   UNL     1      48.053   2.939   4.292  0.00  0.00    +0.000 HD
ATOM     14  H   UNL     1      46.903   3.983   5.052  0.00  0.00    +0.000 HD
ENDBRANCH   2  11
ENDBRANCH   1   6
BRANCH   1  15
ATOM     15  C   UNL     1      44.927   4.945  12.077  0.00  0.00    +0.000 A 
ATOM     16  C   UNL     1      45.382   4.329  13.234  0.00  0.00    +0.000 A 
ATOM     17  N   UNL     1      46.349   4.831  14.029  0.00  0.00    +0.000 NA
ATOM     18  C   UNL     1      46.889   6.019  13.655  0.00  0.00    +0.000 A 
ATOM     19  C   UNL     1      46.512   6.757  12.532  0.00  0.00    +0.000 A 
ATOM     20  C   UNL     1      45.496   6.184  11.752  0.00  0.00    +0.000 A 
BRANCH  19  21
ATOM     21  C   UNL     1      47.127   8.056  12.181  0.00  0.00    +0.000 A 
ATOM     22  C   UNL     1      46.376   9.250  12.199  0.00  0.00    +0.000 A 
ATOM     23  C   UNL     1      46.950  10.490  11.892  0.00  0.00    +0.000 A 
ATOM     24  C   UNL     1      48.294  10.561  11.543  0.00  0.00    +0.000 A 
ATOM     25  C   UNL     1      49.047   9.396  11.509  0.00  0.00    +0.000 A 
ATOM     26  F   UNL     1      50.341   9.459  11.172  0.00  0.00    +0.000 F 
ATOM     27  C   UNL     1      48.483   8.161  11.827  0.00  0.00    +0.000 A 
ENDBRANCH  19  21
ENDBRANCH   1  15
TORSDOF 4
ENDMDL
MODEL 5
REMARK VINA RESULT:    -8.052      4.716      8.337
REMARK INTER + INTRA:         -10.553
REMARK INTER:                 -10.075
REMARK INTRA:                  -0.478
REMARK UNBOUND:                -0.619
REMARK  Name = 
REMARK  4 active torsions:
REMARK  status: ('A' for Active; 'I' for Inactive)
REMARK    1  A    between atoms: C_2  and  C_4
REMARK    2  A    between atoms: N_8  and  C_9
REMARK    3  A    between atoms: C_9  and  C_10
REMARK    4  A    between atoms: C_14  and  C_15
REMARK                            x       y       z     vdW  Elec       q    Type
REMARK                         _______ _______ _______ _____ _____    ______ ____
ROOT
ATOM      1  C   UNL     1      46.014   5.765  13.237  0.00  0.00    +0.000 C 
ENDROOT
BRANCH   1   6
ATOM      2  C   UNL     1      48.588   4.412  17.518  0.00  0.00    +0.000 A 
ATOM      3  C   UNL     1      48.728   5.523  16.697  0.00  0.00    +0.000 A 
ATOM      4  C   UNL     1      47.921   5.641  15.567  0.00  0.00    +0.000 A 
ATOM      5  C   UNL     1      46.985   4.655  15.277  0.00  0.00    +0.000 A 
ATOM      6  N   UNL     1      46.109   4.723  14.232  0.00  0.00    +0.000 N 
ATOM      7  N   UNL     1      46.868   3.555  16.047  0.00  0.00    +0.000 NA
ATOM      8  C   UNL     1      47.669   3.446  17.141  0.00  0.00    +0.000 A 
ATOM      9  H   UNL     1      45.524   3.901  14.146  0.00  0.00    +0.000 HD
BRANCH   2  11
ATOM     10  N   UNL     1      48.749   3.630  19.809  0.00  0.00    +0.000 N 
ATOM     11  C   UNL     1      49.381   4.225  18.751  0.00  0.00    +0.000 C 
ATOM     12  O   UNL     1      50.558   4.551  18.813  0.00  0.00    +0.000 OA
ATOM     13  H   UNL     1      49.320   3.415  20.617  0.00  0.00    +0.000 HD
ATOM     14  H   UNL     1      47.874   3.133  19.713  0.00  0.00    +0.000 HD
ENDBRANCH   2  11
ENDBRANCH   1   6
BRANCH   1  15
ATOM     15  C   UNL     1      45.229   5.340  12.027  0.00  0.00    +0.000 A 
ATOM     16  C   UNL     1      43.870   5.611  11.934  0.00  0.00    +0.000 A 
ATOM     17  N   UNL     1      43.091   5.227  10.901  0.00  0.00    +0.000 NA
ATOM     18  C   UNL     1      43.696   4.527   9.908  0.00  0.00    +0.000 A 
ATOM     19  C   UNL     1      45.045   4.167   9.883  0.00  0.00    +0.000 A 
ATOM     20  C   UNL     1      45.798   4.589  10.989  0.00  0.00    +0.000 A 
BRANCH  19  21
ATOM     21  C   UNL     1      45.648   3.389   8.779  0.00  0.00    +0.000 A 
ATOM     22  C   UNL     1      46.137   4.023   7.618  0.00  0.00    +0.000 A 
ATOM     23  C   UNL     1      46.732   3.300   6.576  0.00  0.00    +0.000 A 
ATOM     24  C   UNL     1      46.837   1.918   6.666  0.00  0.00    +0.000 A 
ATOM     25  C   UNL     1      46.352   1.275   7.796  0.00  0.00    +0.000 A 
ATOM     26  F   UNL     1      46.451  -0.058   7.888  0.00  0.00    +0.000 F 
ATOM     27  C   UNL     1      45.771   1.990   8.843  0.00  0.00    +0.000 A 
ENDBRANCH  19  21
ENDBRANCH   1  15
TORSDOF 4
ENDMDL
MODEL 6
REMARK VINA RESULT:    -7.839      3.916      7.468
REMARK INTER + INTRA:         -10.291
REMARK INTER:                  -9.602
REMARK INTRA:                  -0.689
REMARK UNBOUND:                -0.619
REMARK  Name = 
REMARK  4 active torsions:
REMARK  status: ('A' for Active; 'I' for Inactive)
REMARK    1  A    between atoms: C_2  and  C_4
REMARK    2  A    between atoms: N_8  and  C_9
REMARK    3  A    between atoms: C_9  and  C_10
REMARK    4  A    between atoms: C_14  and  C_15
REMARK                            x       y       z     vdW  Elec       q    Type
REMARK                         _______ _______ _______ _____ _____    ______ ____
ROOT
ATOM      1  C   UNL     1      44.988   5.336  13.305  0.00  0.00    +0.000 C 
ENDROOT
BRANCH   1   6
ATOM      2  C   UNL     1      47.477   9.658  11.925  0.00  0.00    +0.000 A 
ATOM      3  C   UNL     1      47.971   8.429  12.341  0.00  0.00    +0.000 A 
ATOM      4  C   UNL     1      47.077   7.419  12.692  0.00  0.00    +0.000 A 
ATOM      5  C   UNL     1      45.708   7.648  12.619  0.00  0.00    +0.000 A 
ATOM      6  N   UNL     1      44.763   6.696  12.877  0.00  0.00    +0.000 N 
ATOM      7  N   UNL     1      45.219   8.850  12.252  0.00  0.00    +0.000 NA
ATOM      8  C   UNL     1      46.103   9.831  11.922  0.00  0.00    +0.000 A 
ATOM      9  H   UNL     1      43.815   7.045  12.813  0.00  0.00    +0.000 HD
BRANCH   2  11
ATOM     10  N   UNL     1      49.377  11.106  12.351  0.00  0.00    +0.000 N 
ATOM     11  C   UNL     1      48.354  10.771  11.505  0.00  0.00    +0.000 C 
ATOM     12  O   UNL     1      48.200  11.341  10.435  0.00  0.00    +0.000 OA
ATOM     13  H   UNL     1      50.034  11.800  12.017  0.00  0.00    +0.000 HD
ATOM     14  H   UNL     1      49.679  10.506  13.106  0.00  0.00    +0.000 HD
ENDBRANCH   2  11
ENDBRANCH   1   6
BRANCH   1  15
ATOM     15  C   UNL     1      44.545   4.327  12.280  0.00  0.00    +0.000 A 
ATOM     16  C   UNL     1      43.453   3.504  12.524  0.00  0.00    +0.000 A 
ATOM     17  N   UNL     1      43.021   2.551  11.673  0.00  0.00    +0.000 NA
ATOM     18  C   UNL     1      43.718   2.401  10.519  0.00  0.00    +0.000 A 
ATOM     19  C   UNL     1      44.844   3.143  10.156  0.00  0.00    +0.000 A 
ATOM     20  C   UNL     1      45.248   4.112  11.087  0.00  0.00    +0.000 A 
BRANCH  19  21
ATOM     21  C   UNL     1      45.575   2.926   8.889  0.00  0.00    +0.000 A 
ATOM     22  C   UNL     1      45.914   4.004   8.045  0.00  0.00    +0.000 A 
ATOM     23  C   UNL     1      46.626   3.816   6.854  0.00  0.00    +0.000 A 
ATOM     24  C   UNL     1      47.004   2.535   6.470  0.00  0.00    +0.000 A 
ATOM     25  C   UNL     1      46.671   1.460   7.282  0.00  0.00    +0.000 A 
ATOM     26  F   UNL     1      47.032   0.223   6.917  0.00  0.00    +0.000 F 
ATOM     27  C   UNL     1      45.974   1.643   8.476  0.00  0.00    +0.000 A 
ENDBRANCH  19  21
ENDBRANCH   1  15
TORSDOF 4
ENDMDL
MODEL 7
REMARK VINA RESULT:    -7.030      4.365      7.673
REMARK INTER + INTRA:          -9.292
REMARK INTER:                  -9.236
REMARK INTRA:                  -0.056
REMARK UNBOUND:                -0.619
REMARK  Name = 
REMARK  4 active torsions:
REMARK  status: ('A' for Active; 'I' for Inactive)
REMARK    1  A    between atoms: C_2  and  C_4
REMARK    2  A    between atoms: N_8  and  C_9
REMARK    3  A    between atoms: C_9  and  C_10
REMARK    4  A    between atoms: C_14  and  C_15
REMARK                            x       y       z     vdW  Elec       q    Type
REMARK                         _______ _______ _______ _____ _____    ______ ____
ROOT
ATOM      1  C   UNL     1      48.727   7.902  12.640  0.00  0.00    +0.000 C 
ENDROOT
BRANCH   1   6
ATOM      2  C   UNL     1      47.723   4.716  16.592  0.00  0.00    +0.000 A 
ATOM      3  C   UNL     1      47.433   4.592  15.240  0.00  0.00    +0.000 A 
ATOM      4  C   UNL     1      47.787   5.621  14.370  0.00  0.00    +0.000 A 
ATOM      5  C   UNL     1      48.429   6.753  14.859  0.00  0.00    +0.000 A 
ATOM      6  N   UNL     1      48.872   7.776  14.071  0.00  0.00    +0.000 N 
ATOM      7  N   UNL     1      48.682   6.898  16.176  0.00  0.00    +0.000 NA
ATOM      8  C   UNL     1      48.321   5.891  17.016  0.00  0.00    +0.000 A 
ATOM      9  H   UNL     1      49.283   8.538  14.596  0.00  0.00    +0.000 HD
BRANCH   2  11
ATOM     10  N   UNL     1      48.181   3.618  18.707  0.00  0.00    +0.000 N 
ATOM     11  C   UNL     1      47.411   3.658  17.576  0.00  0.00    +0.000 C 
ATOM     12  O   UNL     1      46.484   2.879  17.408  0.00  0.00    +0.000 OA
ATOM     13  H   UNL     1      47.904   2.958  19.422  0.00  0.00    +0.000 HD
ATOM     14  H   UNL     1      48.778   4.384  18.988  0.00  0.00    +0.000 HD
ENDBRANCH   2  11
ENDBRANCH   1   6
BRANCH   1  15
ATOM     15  C   UNL     1      47.320   7.640  12.176  0.00  0.00    +0.000 A 
ATOM     16  C   UNL     1      46.291   8.511  12.509  0.00  0.00    +0.000 A 
ATOM     17  N   UNL     1      45.000   8.323  12.165  0.00  0.00    +0.000 NA
ATOM     18  C   UNL     1      44.715   7.201  11.457  0.00  0.00    +0.000 A 
ATOM     19  C   UNL     1      45.644   6.232  11.075  0.00  0.00    +0.000 A 
ATOM     20  C   UNL     1      46.968   6.482  11.470  0.00  0.00    +0.000 A 
BRANCH  19  21
ATOM     21  C   UNL     1      45.273   5.019  10.314  0.00  0.00    +0.000 A 
ATOM     22  C   UNL     1      44.539   3.974  10.913  0.00  0.00    +0.000 A 
ATOM     23  C   UNL     1      44.161   2.831  10.198  0.00  0.00    +0.000 A 
ATOM     24  C   UNL     1      44.525   2.699   8.864  0.00  0.00    +0.000 A 
ATOM     25  C   UNL     1      45.257   3.711   8.259  0.00  0.00    +0.000 A 
ATOM     26  F   UNL     1      45.611   3.589   6.973  0.00  0.00    +0.000 F 
ATOM     27  C   UNL     1      45.624   4.858   8.962  0.00  0.00    +0.000 A 
ENDBRANCH  19  21
ENDBRANCH   1  15
TORSDOF 4
ENDMDL
MODEL 8
REMARK VINA RESULT:    -7.008      6.131      8.557
REMARK INTER + INTRA:          -9.265
REMARK INTER:                  -8.641
REMARK INTRA:                  -0.624
REMARK UNBOUND:                -0.619
REMARK  Name = 
REMARK  4 active torsions:
REMARK  status: ('A' for Active; 'I' for Inactive)
REMARK    1  A    between atoms: C_2  and  C_4
REMARK    2  A    between atoms: N_8  and  C_9
REMARK    3  A    between atoms: C_9  and  C_10
REMARK    4  A    between atoms: C_14  and  C_15
REMARK                            x       y       z     vdW  Elec       q    Type
REMARK                         _______ _______ _______ _____ _____    ______ ____
ROOT
ATOM      1  C   UNL     1      47.599   3.961  16.973  0.00  0.00    +0.000 C 
ENDROOT
BRANCH   1   6
ATOM      2  C   UNL     1      52.426   2.323  17.863  0.00  0.00    +0.000 A 
ATOM      3  C   UNL     1      51.858   3.580  18.026  0.00  0.00    +0.000 A 
ATOM      4  C   UNL     1      50.522   3.773  17.678  0.00  0.00    +0.000 A 
ATOM      5  C   UNL     1      49.774   2.712  17.181  0.00  0.00    +0.000 A 
ATOM      6  N   UNL     1      48.444   2.795  16.881  0.00  0.00    +0.000 N 
ATOM      7  N   UNL     1      50.327   1.498  16.985  0.00  0.00    +0.000 NA
ATOM      8  C   UNL     1      51.635   1.326  17.317  0.00  0.00    +0.000 A 
ATOM      9  H   UNL     1      48.067   1.938  16.494  0.00  0.00    +0.000 HD
BRANCH   2  11
ATOM     10  N   UNL     1      54.101   1.925  19.573  0.00  0.00    +0.000 N 
ATOM     11  C   UNL     1      53.825   2.025  18.236  0.00  0.00    +0.000 C 
ATOM     12  O   UNL     1      54.689   1.838  17.391  0.00  0.00    +0.000 OA
ATOM     13  H   UNL     1      55.036   1.625  19.822  0.00  0.00    +0.000 HD
ATOM     14  H   UNL     1      53.379   1.828  20.273  0.00  0.00    +0.000 HD
ENDBRANCH   2  11
ENDBRANCH   1   6
BRANCH   1  15
ATOM     15  C   UNL     1      47.539   4.735  15.684  0.00  0.00    +0.000 A 
ATOM     16  C   UNL     1      48.292   5.889  15.515  0.00  0.00    +0.000 A 
ATOM     17  N   UNL     1      48.261   6.657  14.406  0.00  0.00    +0.000 NA
ATOM     18  C   UNL     1      47.428   6.259  13.412  0.00  0.00    +0.000 A 
ATOM     19  C   UNL     1      46.600   5.136  13.456  0.00  0.00    +0.000 A 
ATOM     20  C   UNL     1      46.672   4.384  14.639  0.00  0.00    +0.000 A 
BRANCH  19  21
ATOM     21  C   UNL     1      45.699   4.758  12.345  0.00  0.00    +0.000 A 
ATOM     22  C   UNL     1      45.710   5.459  11.122  0.00  0.00    +0.000 A 
ATOM     23  C   UNL     1      44.879   5.097  10.054  0.00  0.00    +0.000 A 
ATOM     24  C   UNL     1      44.001   4.028  10.193  0.00  0.00    +0.000 A 
ATOM     25  C   UNL     1      43.969   3.331  11.394  0.00  0.00    +0.000 A 
ATOM     26  F   UNL     1      43.125   2.301  11.533  0.00  0.00    +0.000 F 
ATOM     27  C   UNL     1      44.803   3.679  12.455  0.00  0.00    +0.000 A 
ENDBRANCH  19  21
ENDBRANCH   1  15
TORSDOF 4
ENDMDL
MODEL 9
REMARK VINA RESULT:    -6.894      5.191      8.651
REMARK INTER + INTRA:          -9.125
REMARK INTER:                  -8.591
REMARK INTRA:                  -0.533
REMARK UNBOUND:                -0.619
REMARK  Name = 
REMARK  4 active torsions:
REMARK  status: ('A' for Active; 'I' for Inactive)
REMARK    1  A    between atoms: C_2  and  C_4
REMARK    2  A    between atoms: N_8  and  C_9
REMARK    3  A    between atoms: C_9  and  C_10
REMARK    4  A    between atoms: C_14  and  C_15
REMARK                            x       y       z     vdW  Elec       q    Type
REMARK                         _______ _______ _______ _____ _____    ______ ____
ROOT
ATOM      1  C   UNL     1      48.155   7.600  14.141  0.00  0.00    +0.000 C 
ENDROOT
BRANCH   1   6
ATOM      2  C   UNL     1      48.989   5.445  18.771  0.00  0.00    +0.000 A 
ATOM      3  C   UNL     1      48.933   6.781  18.397  0.00  0.00    +0.000 A 
ATOM      4  C   UNL     1      48.723   7.105  17.058  0.00  0.00    +0.000 A 
ATOM      5  C   UNL     1      48.567   6.095  16.116  0.00  0.00    +0.000 A 
ATOM      6  N   UNL     1      48.290   6.321  14.798  0.00  0.00    +0.000 N 
ATOM      7  N   UNL     1      48.656   4.796  16.464  0.00  0.00    +0.000 NA
ATOM      8  C   UNL     1      48.874   4.493  17.772  0.00  0.00    +0.000 A 
ATOM      9  H   UNL     1      48.246   5.474  14.247  0.00  0.00    +0.000 HD
BRANCH   2  11
ATOM     10  N   UNL     1      48.564   3.851  20.550  0.00  0.00    +0.000 N 
ATOM     11  C   UNL     1      49.177   5.015  20.172  0.00  0.00    +0.000 C 
ATOM     12  O   UNL     1      49.877   5.648  20.950  0.00  0.00    +0.000 OA
ATOM     13  H   UNL     1      48.773   3.508  21.479  0.00  0.00    +0.000 HD
ATOM     14  H   UNL     1      48.193   3.188  19.883  0.00  0.00    +0.000 HD
ENDBRANCH   2  11
ENDBRANCH   1   6
BRANCH   1  15
ATOM     15  C   UNL     1      47.029   7.621  13.143  0.00  0.00    +0.000 A 
ATOM     16  C   UNL     1      46.222   8.743  13.011  0.00  0.00    +0.000 A 
ATOM     17  N   UNL     1      45.170   8.824  12.170  0.00  0.00    +0.000 NA
ATOM     18  C   UNL     1      44.901   7.723  11.424  0.00  0.00    +0.000 A 
ATOM     19  C   UNL     1      45.613   6.523  11.472  0.00  0.00    +0.000 A 
ATOM     20  C   UNL     1      46.689   6.501  12.372  0.00  0.00    +0.000 A 
BRANCH  19  21
ATOM     21  C   UNL     1      45.264   5.348  10.644  0.00  0.00    +0.000 A 
ATOM     22  C   UNL     1      45.690   5.242   9.304  0.00  0.00    +0.000 A 
ATOM     23  C   UNL     1      45.387   4.125   8.517  0.00  0.00    +0.000 A 
ATOM     24  C   UNL     1      44.632   3.088   9.051  0.00  0.00    +0.000 A 
ATOM     25  C   UNL     1      44.194   3.177  10.366  0.00  0.00    +0.000 A 
ATOM     26  F   UNL     1      43.466   2.181  10.886  0.00  0.00    +0.000 F 
ATOM     27  C   UNL     1      44.505   4.282  11.158  0.00  0.00    +0.000 A 
ENDBRANCH  19  21
ENDBRANCH   1  15
TORSDOF 4
ENDMDL
