MODEL 1
REMARK VINA RESULT:    -7.641      0.000      0.000
REMARK INTER + INTRA:         -12.187
REMARK INTER:                 -11.215
REMARK INTRA:                  -0.972
REMARK UNBOUND:                -0.972
REMARK  Name = 
REMARK  11 active torsions:
REMARK  status: ('A' for Active; 'I' for Inactive)
REMARK    1  A    between atoms: C_1  and  C_2
REMARK    2  A    between atoms: C_2  and  O_3
REMARK    3  A    between atoms: O_3  and  C_4
REMARK    4  A    between atoms: C_4  and  C_6
REMARK    5  A    between atoms: N_8  and  C_9
REMARK    6  A    between atoms: C_9  and  C_10
REMARK    7  A    between atoms: C_13  and  C_14
REMARK    8  A    between atoms: C_14  and  N_15
REMARK    9  A    between atoms: N_15  and  C_16
REMARK   10  A    between atoms: C_22  and  O_23
REMARK   11  A    between atoms: O_23  and  C_24
REMARK                            x       y       z     vdW  Elec       q    Type
REMARK                         _______ _______ _______ _____ _____    ______ ____
ROOT
ATOM      1  C   UNL     1      45.548   7.287  12.105  0.00  0.00    +0.000 A 
ATOM      2  C   UNL     1      44.672   6.806  11.146  0.00  0.00    +0.000 A 
ATOM      3  N   UNL     1      44.642   5.433  11.217  0.00  0.00    +0.000 N 
ATOM      4  C   UNL     1      45.489   5.005  12.218  0.00  0.00    +0.000 A 
ATOM      5  C   UNL     1      45.864   3.737  12.678  0.00  0.00    +0.000 A 
ATOM      6  C   UNL     1      46.739   3.702  13.765  0.00  0.00    +0.000 A 
ATOM      7  C   UNL     1      47.188   4.891  14.318  0.00  0.00    +0.000 A 
ATOM      8  N   UNL     1      46.873   6.111  13.862  0.00  0.00    +0.000 NA
ATOM      9  C   UNL     1      46.024   6.152  12.810  0.00  0.00    +0.000 A 
ENDROOT
BRANCH   1  10
ATOM     10  C   UNL     1      45.934   8.679  12.271  0.00  0.00    +0.000 C 
ATOM     11  O   UNL     1      47.102   9.050  12.280  0.00  0.00    +0.000 OA
BRANCH  10  12
ATOM     12  O   UNL     1      44.869   9.494  12.505  0.00  0.00    +0.000 OA
BRANCH  12  14
ATOM     13  C   UNL     1      44.028  10.398  10.456  0.00  0.00    +0.000 C 
ATOM     14  C   UNL     1      44.806  10.693  11.727  0.00  0.00    +0.000 C 
ENDBRANCH  12  14
ENDBRANCH  10  12
ENDBRANCH   1  10
BRANCH   7  15
ATOM     15  O   UNL     1      48.014   4.784  15.425  0.00  0.00    +0.000 OA
ATOM     16  C   UNL     1      47.640   3.709  16.286  0.00  0.00    +0.000 C 
ENDBRANCH   7  15
BRANCH   3  17
ATOM     17  C   UNL     1      43.791   4.593  10.375  0.00  0.00    +0.000 C 
BRANCH  17  18
ATOM     18  C   UNL     1      44.610   3.775   9.409  0.00  0.00    +0.000 A 
ATOM     19  C   UNL     1      44.611   2.376   9.481  0.00  0.00    +0.000 A 
ATOM     20  C   UNL     1      45.482   1.625   8.690  0.00  0.00    +0.000 A 
ATOM     21  C   UNL     1      46.370   2.256   7.808  0.00  0.00    +0.000 A 
ATOM     22  C   UNL     1      46.313   3.649   7.677  0.00  0.00    +0.000 A 
ATOM     23  C   UNL     1      45.441   4.401   8.468  0.00  0.00    +0.000 A 
BRANCH  21  24
ATOM     24  C   UNL     1      47.445   1.464   7.097  0.00  0.00    +0.000 C 
BRANCH  24  25
ATOM     25  N   UNL     1      48.363   2.320   6.346  0.00  0.00    +0.000 NA
ATOM     26  C   UNL     1      47.924   2.435   4.961  0.00  0.00    +0.000 C 
ATOM     27  H   UNL     1      49.294   1.906   6.374  0.00  0.00    +0.000 HD
ENDBRANCH  24  25
ENDBRANCH  21  24
ENDBRANCH  17  18
ENDBRANCH   3  17
TORSDOF 8
ENDMDL
MODEL 2
REMARK VINA RESULT:    -7.469      0.916      4.280
REMARK INTER + INTRA:         -11.934
REMARK INTER:                 -11.042
REMARK INTRA:                  -0.891
REMARK UNBOUND:                -0.972
REMARK  Name = 
REMARK  11 active torsions:
REMARK  status: ('A' for Active; 'I' for Inactive)
REMARK    1  A    between atoms: C_1  and  C_2
REMARK    2  A    between atoms: C_2  and  O_3
REMARK    3  A    between atoms: O_3  and  C_4
REMARK    4  A    between atoms: C_4  and  C_6
REMARK    5  A    between atoms: N_8  and  C_9
REMARK    6  A    between atoms: C_9  and  C_10
REMARK    7  A    between atoms: C_13  and  C_14
REMARK    8  A    between atoms: C_14  and  N_15
REMARK    9  A    between atoms: N_15  and  C_16
REMARK   10  A    between atoms: C_22  and  O_23
REMARK   11  A    between atoms: O_23  and  C_24
REMARK                            x       y       z     vdW  Elec       q    Type
REMARK                         _______ _______ _______ _____ _____    ______ ____
ROOT
ATOM      1  C   UNL     1      46.266   5.384  13.206  0.00  0.00    +0.000 A 
ATOM      2  C   UNL     1      45.522   4.444  12.511  0.00  0.00    +0.000 A 
ATOM      3  N   UNL     1      44.705   5.093  11.616  0.00  0.00    +0.000 N 
ATOM      4  C   UNL     1      44.906   6.455  11.712  0.00  0.00    +0.000 A 
ATOM      5  C   UNL     1      44.318   7.556  11.079  0.00  0.00    +0.000 A 
ATOM      6  C   UNL     1      44.824   8.812  11.418  0.00  0.00    +0.000 A 
ATOM      7  C   UNL     1      45.851   8.907  12.344  0.00  0.00    +0.000 A 
ATOM      8  N   UNL     1      46.394   7.866  12.990  0.00  0.00    +0.000 NA
ATOM      9  C   UNL     1      45.909   6.646  12.666  0.00  0.00    +0.000 A 
ENDROOT
BRANCH   1  10
ATOM     10  C   UNL     1      47.164   5.098  14.313  0.00  0.00    +0.000 C 
ATOM     11  O   UNL     1      48.225   5.687  14.480  0.00  0.00    +0.000 OA
BRANCH  10  12
ATOM     12  O   UNL     1      46.738   4.053  15.076  0.00  0.00    +0.000 OA
BRANCH  12  14
ATOM     13  C   UNL     1      48.132   2.901  16.642  0.00  0.00    +0.000 C 
ATOM     14  C   UNL     1      47.162   4.053  16.442  0.00  0.00    +0.000 C 
ENDBRANCH  12  14
ENDBRANCH  10  12
ENDBRANCH   1  10
BRANCH   7  15
ATOM     15  O   UNL     1      46.339  10.179  12.596  0.00  0.00    +0.000 OA
ATOM     16  C   UNL     1      45.722  11.175  11.782  0.00  0.00    +0.000 C 
ENDBRANCH   7  15
BRANCH   3  17
ATOM     17  C   UNL     1      43.808   4.407  10.687  0.00  0.00    +0.000 C 
BRANCH  17  18
ATOM     18  C   UNL     1      44.580   3.654   9.633  0.00  0.00    +0.000 A 
ATOM     19  C   UNL     1      44.585   2.253   9.617  0.00  0.00    +0.000 A 
ATOM     20  C   UNL     1      45.418   1.557   8.739  0.00  0.00    +0.000 A 
ATOM     21  C   UNL     1      46.262   2.245   7.857  0.00  0.00    +0.000 A 
ATOM     22  C   UNL     1      46.197   3.644   7.817  0.00  0.00    +0.000 A 
ATOM     23  C   UNL     1      45.364   4.341   8.694  0.00  0.00    +0.000 A 
BRANCH  21  24
ATOM     24  C   UNL     1      47.302   1.503   7.047  0.00  0.00    +0.000 C 
BRANCH  24  25
ATOM     25  N   UNL     1      48.248   2.408   6.394  0.00  0.00    +0.000 NA
ATOM     26  C   UNL     1      47.958   2.495   4.967  0.00  0.00    +0.000 C 
ATOM     27  H   UNL     1      49.192   2.046   6.527  0.00  0.00    +0.000 HD
ENDBRANCH  24  25
ENDBRANCH  21  24
ENDBRANCH  17  18
ENDBRANCH   3  17
TORSDOF 8
ENDMDL
MODEL 3
REMARK VINA RESULT:    -7.460      2.060      4.061
REMARK INTER + INTRA:         -11.921
REMARK INTER:                 -10.860
REMARK INTRA:                  -1.062
REMARK UNBOUND:                -0.972
REMARK  Name = 
REMARK  11 active torsions:
REMARK  status: ('A' for Active; 'I' for Inactive)
REMARK    1  A    between atoms: C_1  and  C_2
REMARK    2  A    between atoms: C_2  and  O_3
REMARK    3  A    between atoms: O_3  and  C_4
REMARK    4  A    between atoms: C_4  and  C_6
REMARK    5  A    between atoms: N_8  and  C_9
REMARK    6  A    between atoms: C_9  and  C_10
REMARK    7  A    between atoms: C_13  and  C_14
REMARK    8  A    between atoms: C_14  and  N_15
REMARK    9  A    between atoms: N_15  and  C_16
REMARK   10  A    between atoms: C_22  and  O_23
REMARK   11  A    between atoms: O_23  and  C_24
REMARK                            x       y       z     vdW  Elec       q    Type
REMARK                         _______ _______ _______ _____ _____    ______ ____
ROOT
ATOM      1  C   UNL     1      46.853   4.467  13.932  0.00  0.00    +0.000 A 
ATOM      2  C   UNL     1      45.744   4.196  13.147  0.00  0.00    +0.000 A 
ATOM      3  N   UNL     1      45.671   5.128  12.140  0.00  0.00    +0.000 N 
ATOM      4  C   UNL     1      46.726   6.011  12.252  0.00  0.00    +0.000 A 
ATOM      5  C   UNL     1      47.100   7.152  11.532  0.00  0.00    +0.000 A 
ATOM      6  C   UNL     1      48.283   7.778  11.928  0.00  0.00    +0.000 A 
ATOM      7  C   UNL     1      49.006   7.260  12.990  0.00  0.00    +0.000 A 
ATOM      8  N   UNL     1      48.639   6.195  13.716  0.00  0.00    +0.000 NA
ATOM      9  C   UNL     1      47.495   5.583  13.336  0.00  0.00    +0.000 A 
ENDROOT
BRANCH   1  10
ATOM     10  C   UNL     1      47.208   3.771  15.158  0.00  0.00    +0.000 C 
ATOM     11  O   UNL     1      47.913   2.768  15.176  0.00  0.00    +0.000 OA
BRANCH  10  12
ATOM     12  O   UNL     1      46.601   4.300  16.256  0.00  0.00    +0.000 OA
BRANCH  12  14
ATOM     13  C   UNL     1      48.317   5.578  17.327  0.00  0.00    +0.000 C 
ATOM     14  C   UNL     1      47.394   4.376  17.444  0.00  0.00    +0.000 C 
ENDBRANCH  12  14
ENDBRANCH  10  12
ENDBRANCH   1  10
BRANCH   7  15
ATOM     15  O   UNL     1      50.195   7.901  13.298  0.00  0.00    +0.000 OA
ATOM     16  C   UNL     1      50.580   7.719  14.660  0.00  0.00    +0.000 C 
ENDBRANCH   7  15
BRANCH   3  17
ATOM     17  C   UNL     1      44.645   5.123  11.098  0.00  0.00    +0.000 C 
BRANCH  17  18
ATOM     18  C   UNL     1      45.024   4.214   9.957  0.00  0.00    +0.000 A 
ATOM     19  C   UNL     1      44.771   2.838  10.026  0.00  0.00    +0.000 A 
ATOM     20  C   UNL     1      45.257   1.976   9.041  0.00  0.00    +0.000 A 
ATOM     21  C   UNL     1      46.004   2.472   7.964  0.00  0.00    +0.000 A 
ATOM     22  C   UNL     1      46.189   3.856   7.852  0.00  0.00    +0.000 A 
ATOM     23  C   UNL     1      45.702   4.718   8.837  0.00  0.00    +0.000 A 
BRANCH  21  24
ATOM     24  C   UNL     1      46.696   1.527   7.005  0.00  0.00    +0.000 C 
BRANCH  24  25
ATOM     25  N   UNL     1      48.034   1.989   6.637  0.00  0.00    +0.000 NA
ATOM     26  C   UNL     1      48.056   2.405   5.240  0.00  0.00    +0.000 C 
ATOM     27  H   UNL     1      48.693   1.224   6.774  0.00  0.00    +0.000 HD
ENDBRANCH  24  25
ENDBRANCH  21  24
ENDBRANCH  17  18
ENDBRANCH   3  17
TORSDOF 8
ENDMDL
MODEL 4
REMARK VINA RESULT:    -6.150      1.675      2.087
REMARK INTER + INTRA:          -9.998
REMARK INTER:                  -8.961
REMARK INTRA:                  -1.036
REMARK UNBOUND:                -0.972
REMARK  Name = 
REMARK  11 active torsions:
REMARK  status: ('A' for Active; 'I' for Inactive)
REMARK    1  A    between atoms: C_1  and  C_2
REMARK    2  A    between atoms: C_2  and  O_3
REMARK    3  A    between atoms: O_3  and  C_4
REMARK    4  A    between atoms: C_4  and  C_6
REMARK    5  A    between atoms: N_8  and  C_9
REMARK    6  A    between atoms: C_9  and  C_10
REMARK    7  A    between atoms: C_13  and  C_14
REMARK    8  A    between atoms: C_14  and  N_15
REMARK    9  A    between atoms: N_15  and  C_16
REMARK   10  A    between atoms: C_22  and  O_23
REMARK   11  A    between atoms: O_23  and  C_24
REMARK                            x       y       z     vdW  Elec       q    Type
REMARK                         _______ _______ _______ _____ _____    ______ ____
ROOT
ATOM      1  C   UNL     1      46.866   7.380  12.552  0.00  0.00    +0.000 A 
ATOM      2  C   UNL     1      45.873   7.204  11.602  0.00  0.00    +0.000 A 
ATOM      3  N   UNL     1      45.386   5.923  11.696  0.00  0.00    +0.000 N 
ATOM      4  C   UNL     1      46.048   5.251  12.704  0.00  0.00    +0.000 A 
ATOM      5  C   UNL     1      45.980   3.937  13.184  0.00  0.00    +0.000 A 
ATOM      6  C   UNL     1      46.800   3.629  14.270  0.00  0.00    +0.000 A 
ATOM      7  C   UNL     1      47.625   4.607  14.802  0.00  0.00    +0.000 A 
ATOM      8  N   UNL     1      47.733   5.855  14.327  0.00  0.00    +0.000 NA
ATOM      9  C   UNL     1      46.940   6.161  13.275  0.00  0.00    +0.000 A 
ENDROOT
BRANCH   1  10
ATOM     10  C   UNL     1      47.697   8.564  12.695  0.00  0.00    +0.000 C 
ATOM     11  O   UNL     1      47.790   9.192  13.744  0.00  0.00    +0.000 OA
BRANCH  10  12
ATOM     12  O   UNL     1      48.276   8.942  11.521  0.00  0.00    +0.000 OA
BRANCH  12  14
ATOM     13  C   UNL     1      50.013  10.572  11.289  0.00  0.00    +0.000 C 
ATOM     14  C   UNL     1      48.512  10.343  11.354  0.00  0.00    +0.000 C 
ENDBRANCH  12  14
ENDBRANCH  10  12
ENDBRANCH   1  10
BRANCH   7  15
ATOM     15  O   UNL     1      48.374   4.247  15.910  0.00  0.00    +0.000 OA
ATOM     16  C   UNL     1      48.779   5.373  16.688  0.00  0.00    +0.000 C 
ENDBRANCH   7  15
BRANCH   3  17
ATOM     17  C   UNL     1      44.297   5.402  10.869  0.00  0.00    +0.000 C 
BRANCH  17  18
ATOM     18  C   UNL     1      44.808   4.432   9.835  0.00  0.00    +0.000 A 
ATOM     19  C   UNL     1      44.540   3.062   9.948  0.00  0.00    +0.000 A 
ATOM     20  C   UNL     1      45.137   2.148   9.078  0.00  0.00    +0.000 A 
ATOM     21  C   UNL     1      46.014   2.583   8.075  0.00  0.00    +0.000 A 
ATOM     22  C   UNL     1      46.219   3.959   7.911  0.00  0.00    +0.000 A 
ATOM     23  C   UNL     1      45.621   4.874   8.781  0.00  0.00    +0.000 A 
BRANCH  21  24
ATOM     24  C   UNL     1      46.811   1.588   7.261  0.00  0.00    +0.000 C 
BRANCH  24  25
ATOM     25  N   UNL     1      47.101   0.363   8.007  0.00  0.00    +0.000 NA
ATOM     26  C   UNL     1      46.511  -0.787   7.333  0.00  0.00    +0.000 C 
ATOM     27  H   UNL     1      46.706   0.448   8.943  0.00  0.00    +0.000 HD
ENDBRANCH  24  25
ENDBRANCH  21  24
ENDBRANCH  17  18
ENDBRANCH   3  17
TORSDOF 8
ENDMDL
MODEL 5
REMARK VINA RESULT:    -5.946      3.245      6.265
REMARK INTER + INTRA:          -9.699
REMARK INTER:                  -8.913
REMARK INTRA:                  -0.785
REMARK UNBOUND:                -0.972
REMARK  Name = 
REMARK  11 active torsions:
REMARK  status: ('A' for Active; 'I' for Inactive)
REMARK    1  A    between atoms: C_1  and  C_2
REMARK    2  A    between atoms: C_2  and  O_3
REMARK    3  A    between atoms: O_3  and  C_4
REMARK    4  A    between atoms: C_4  and  C_6
REMARK    5  A    between atoms: N_8  and  C_9
REMARK    6  A    between atoms: C_9  and  C_10
REMARK    7  A    between atoms: C_13  and  C_14
REMARK    8  A    between atoms: C_14  and  N_15
REMARK    9  A    between atoms: N_15  and  C_16
REMARK   10  A    between atoms: C_22  and  O_23
REMARK   11  A    between atoms: O_23  and  C_24
REMARK                            x       y       z     vdW  Elec       q    Type
REMARK                         _______ _______ _______ _____ _____    ______ ____
ROOT
ATOM      1  C   UNL     1      45.090   4.368  11.626  0.00  0.00    +0.000 A 
ATOM      2  C   UNL     1      44.943   5.687  11.230  0.00  0.00    +0.000 A 
ATOM      3  N   UNL     1      45.654   6.493  12.087  0.00  0.00    +0.000 N 
ATOM      4  C   UNL     1      46.273   5.715  13.045  0.00  0.00    +0.000 A 
ATOM      5  C   UNL     1      47.065   6.017  14.159  0.00  0.00    +0.000 A 
ATOM      6  C   UNL     1      47.553   4.932  14.888  0.00  0.00    +0.000 A 
ATOM      7  C   UNL     1      47.234   3.643  14.491  0.00  0.00    +0.000 A 
ATOM      8  N   UNL     1      46.442   3.339  13.453  0.00  0.00    +0.000 NA
ATOM      9  C   UNL     1      45.967   4.386  12.741  0.00  0.00    +0.000 A 
ENDROOT
BRANCH   1  10
ATOM     10  C   UNL     1      44.402   3.229  11.038  0.00  0.00    +0.000 C 
ATOM     11  O   UNL     1      43.325   2.815  11.450  0.00  0.00    +0.000 OA
BRANCH  10  12
ATOM     12  O   UNL     1      45.129   2.630  10.054  0.00  0.00    +0.000 OA
BRANCH  12  14
ATOM     13  C   UNL     1      45.754   3.443   7.892  0.00  0.00    +0.000 C 
ATOM     14  C   UNL     1      44.649   2.805   8.718  0.00  0.00    +0.000 C 
ENDBRANCH  12  14
ENDBRANCH  10  12
ENDBRANCH   1  10
BRANCH   7  15
ATOM     15  O   UNL     1      47.793   2.613  15.229  0.00  0.00    +0.000 OA
ATOM     16  C   UNL     1      48.029   2.978  16.589  0.00  0.00    +0.000 C 
ENDBRANCH   7  15
BRANCH   3  17
ATOM     17  C   UNL     1      45.756   7.945  11.944  0.00  0.00    +0.000 C 
BRANCH  17  18
ATOM     18  C   UNL     1      47.183   8.412  12.081  0.00  0.00    +0.000 A 
ATOM     19  C   UNL     1      48.212   7.781  11.370  0.00  0.00    +0.000 A 
ATOM     20  C   UNL     1      49.547   8.111  11.611  0.00  0.00    +0.000 A 
ATOM     21  C   UNL     1      49.882   9.081  12.565  0.00  0.00    +0.000 A 
ATOM     22  C   UNL     1      48.851   9.768  13.218  0.00  0.00    +0.000 A 
ATOM     23  C   UNL     1      47.515   9.438  12.977  0.00  0.00    +0.000 A 
BRANCH  21  24
ATOM     24  C   UNL     1      51.324   9.301  12.967  0.00  0.00    +0.000 C 
BRANCH  24  25
ATOM     25  N   UNL     1      52.003   8.052  13.313  0.00  0.00    +0.000 NA
ATOM     26  C   UNL     1      53.425   8.153  13.011  0.00  0.00    +0.000 C 
ATOM     27  H   UNL     1      51.592   7.295  12.769  0.00  0.00    +0.000 HD
ENDBRANCH  24  25
ENDBRANCH  21  24
ENDBRANCH  17  18
ENDBRANCH   3  17
TORSDOF 8
ENDMDL
MODEL 6
REMARK VINA RESULT:    -5.934      3.636      7.133
REMARK INTER + INTRA:          -9.681
REMARK INTER:                  -8.596
REMARK INTRA:                  -1.085
REMARK UNBOUND:                -0.972
REMARK  Name = 
REMARK  11 active torsions:
REMARK  status: ('A' for Active; 'I' for Inactive)
REMARK    1  A    between atoms: C_1  and  C_2
REMARK    2  A    between atoms: C_2  and  O_3
REMARK    3  A    between atoms: O_3  and  C_4
REMARK    4  A    between atoms: C_4  and  C_6
REMARK    5  A    between atoms: N_8  and  C_9
REMARK    6  A    between atoms: C_9  and  C_10
REMARK    7  A    between atoms: C_13  and  C_14
REMARK    8  A    between atoms: C_14  and  N_15
REMARK    9  A    between atoms: N_15  and  C_16
REMARK   10  A    between atoms: C_22  and  O_23
REMARK   11  A    between atoms: O_23  and  C_24
REMARK                            x       y       z     vdW  Elec       q    Type
REMARK                         _______ _______ _______ _____ _____    ______ ____
ROOT
ATOM      1  C   UNL     1      46.836   4.844  13.965  0.00  0.00    +0.000 A 
ATOM      2  C   UNL     1      47.290   6.152  13.991  0.00  0.00    +0.000 A 
ATOM      3  N   UNL     1      46.896   6.785  12.837  0.00  0.00    +0.000 N 
ATOM      4  C   UNL     1      46.182   5.905  12.049  0.00  0.00    +0.000 A 
ATOM      5  C   UNL     1      45.601   6.011  10.780  0.00  0.00    +0.000 A 
ATOM      6  C   UNL     1      44.910   4.890  10.317  0.00  0.00    +0.000 A 
ATOM      7  C   UNL     1      44.840   3.756  11.109  0.00  0.00    +0.000 A 
ATOM      8  N   UNL     1      45.428   3.624  12.306  0.00  0.00    +0.000 NA
ATOM      9  C   UNL     1      46.098   4.706  12.762  0.00  0.00    +0.000 A 
ENDROOT
BRANCH   1  10
ATOM     10  C   UNL     1      47.142   3.825  14.956  0.00  0.00    +0.000 C 
ATOM     11  O   UNL     1      47.799   2.822  14.701  0.00  0.00    +0.000 OA
BRANCH  10  12
ATOM     12  O   UNL     1      46.546   4.065  16.157  0.00  0.00    +0.000 OA
BRANCH  12  14
ATOM     13  C   UNL     1      47.462   5.065  18.127  0.00  0.00    +0.000 C 
ATOM     14  C   UNL     1      47.329   3.784  17.320  0.00  0.00    +0.000 C 
ENDBRANCH  12  14
ENDBRANCH  10  12
ENDBRANCH   1  10
BRANCH   7  15
ATOM     15  O   UNL     1      44.097   2.699  10.609  0.00  0.00    +0.000 OA
ATOM     16  C   UNL     1      44.555   2.262   9.330  0.00  0.00    +0.000 C 
ENDBRANCH   7  15
BRANCH   3  17
ATOM     17  C   UNL     1      47.169   8.192  12.545  0.00  0.00    +0.000 C 
BRANCH  17  18
ATOM     18  C   UNL     1      48.646   8.440  12.368  0.00  0.00    +0.000 A 
ATOM     19  C   UNL     1      49.367   7.771  11.371  0.00  0.00    +0.000 A 
ATOM     20  C   UNL     1      50.757   7.883  11.304  0.00  0.00    +0.000 A 
ATOM     21  C   UNL     1      51.456   8.668  12.230  0.00  0.00    +0.000 A 
ATOM     22  C   UNL     1      50.729   9.401  13.177  0.00  0.00    +0.000 A 
ATOM     23  C   UNL     1      49.338   9.289  13.245  0.00  0.00    +0.000 A 
BRANCH  21  24
ATOM     24  C   UNL     1      52.968   8.638  12.283  0.00  0.00    +0.000 C 
BRANCH  24  25
ATOM     25  N   UNL     1      53.486   8.973  13.609  0.00  0.00    +0.000 NA
ATOM     26  C   UNL     1      53.900   7.762  14.308  0.00  0.00    +0.000 C 
ATOM     27  H   UNL     1      52.750   9.437  14.140  0.00  0.00    +0.000 HD
ENDBRANCH  24  25
ENDBRANCH  21  24
ENDBRANCH  17  18
ENDBRANCH   3  17
TORSDOF 8
ENDMDL
MODEL 7
REMARK VINA RESULT:    -5.791      4.221      7.869
REMARK INTER + INTRA:          -9.471
REMARK INTER:                  -8.530
REMARK INTRA:                  -0.941
REMARK UNBOUND:                -0.972
REMARK  Name = 
REMARK  11 active torsions:
REMARK  status: ('A' for Active; 'I' for Inactive)
REMARK    1  A    between atoms: C_1  and  C_2
REMARK    2  A    between atoms: C_2  and  O_3
REMARK    3  A    between atoms: O_3  and  C_4
REMARK    4  A    between atoms: C_4  and  C_6
REMARK    5  A    between atoms: N_8  and  C_9
REMARK    6  A    between atoms: C_9  and  C_10
REMARK    7  A    between atoms: C_13  and  C_14
REMARK    8  A    between atoms: C_14  and  N_15
REMARK    9  A    between atoms: N_15  and  C_16
REMARK   10  A    between atoms: C_22  and  O_23
REMARK   11  A    between atoms: O_23  and  C_24
REMARK                            x       y       z     vdW  Elec       q    Type
REMARK                         _______ _______ _______ _____ _____    ______ ____
ROOT
ATOM      1  C   UNL     1      46.672   4.809  14.204  0.00  0.00    +0.000 A 
ATOM      2  C   UNL     1      46.948   4.382  15.493  0.00  0.00    +0.000 A 
ATOM      3  N   UNL     1      47.997   5.117  15.993  0.00  0.00    +0.000 N 
ATOM      4  C   UNL     1      48.414   6.028  15.044  0.00  0.00    +0.000 A 
ATOM      5  C   UNL     1      49.449   6.971  15.012  0.00  0.00    +0.000 A 
ATOM      6  C   UNL     1      49.538   7.758  13.863  0.00  0.00    +0.000 A 
ATOM      7  C   UNL     1      48.628   7.570  12.835  0.00  0.00    +0.000 A 
ATOM      8  N   UNL     1      47.660   6.643  12.832  0.00  0.00    +0.000 NA
ATOM      9  C   UNL     1      47.568   5.878  13.943  0.00  0.00    +0.000 A 
ENDROOT
BRANCH   1  10
ATOM     10  C   UNL     1      45.704   4.203  13.305  0.00  0.00    +0.000 C 
ATOM     11  O   UNL     1      45.812   3.058  12.881  0.00  0.00    +0.000 OA
BRANCH  10  12
ATOM     12  O   UNL     1      44.730   5.074  12.920  0.00  0.00    +0.000 OA
BRANCH  12  14
ATOM     13  C   UNL     1      42.623   5.176  11.791  0.00  0.00    +0.000 C 
ATOM     14  C   UNL     1      43.388   4.580  12.961  0.00  0.00    +0.000 C 
ENDBRANCH  12  14
ENDBRANCH  10  12
ENDBRANCH   1  10
BRANCH   7  15
ATOM     15  O   UNL     1      48.743   8.419  11.746  0.00  0.00    +0.000 OA
ATOM     16  C   UNL     1      48.857   9.789  12.129  0.00  0.00    +0.000 C 
ENDBRANCH   7  15
BRANCH   3  17
ATOM     17  C   UNL     1      48.529   4.960  17.346  0.00  0.00    +0.000 C 
BRANCH  17  18
ATOM     18  C   UNL     1      49.751   4.077  17.358  0.00  0.00    +0.000 A 
ATOM     19  C   UNL     1      49.630   2.691  17.189  0.00  0.00    +0.000 A 
ATOM     20  C   UNL     1      50.739   1.858  17.351  0.00  0.00    +0.000 A 
ATOM     21  C   UNL     1      51.991   2.391  17.683  0.00  0.00    +0.000 A 
ATOM     22  C   UNL     1      52.129   3.782  17.773  0.00  0.00    +0.000 A 
ATOM     23  C   UNL     1      51.020   4.616  17.610  0.00  0.00    +0.000 A 
BRANCH  21  24
ATOM     24  C   UNL     1      53.144   1.483  18.050  0.00  0.00    +0.000 C 
BRANCH  24  25
ATOM     25  N   UNL     1      53.070   0.188  17.373  0.00  0.00    +0.000 NA
ATOM     26  C   UNL     1      54.307  -0.070  16.645  0.00  0.00    +0.000 C 
ATOM     27  H   UNL     1      52.289   0.204  16.720  0.00  0.00    +0.000 HD
ENDBRANCH  24  25
ENDBRANCH  21  24
ENDBRANCH  17  18
ENDBRANCH   3  17
TORSDOF 8
ENDMDL
MODEL 8
REMARK VINA RESULT:    -5.621      2.359      3.386
REMARK INTER + INTRA:          -9.222
REMARK INTER:                  -8.097
REMARK INTRA:                  -1.124
REMARK UNBOUND:                -0.972
REMARK  Name = 
REMARK  11 active torsions:
REMARK  status: ('A' for Active; 'I' for Inactive)
REMARK    1  A    between atoms: C_1  and  C_2
REMARK    2  A    between atoms: C_2  and  O_3
REMARK    3  A    between atoms: O_3  and  C_4
REMARK    4  A    between atoms: C_4  and  C_6
REMARK    5  A    between atoms: N_8  and  C_9
REMARK    6  A    between atoms: C_9  and  C_10
REMARK    7  A    between atoms: C_13  and  C_14
REMARK    8  A    between atoms: C_14  and  N_15
REMARK    9  A    between atoms: N_15  and  C_16
REMARK   10  A    between atoms: C_22  and  O_23
REMARK   11  A    between atoms: O_23  and  C_24
REMARK                            x       y       z     vdW  Elec       q    Type
REMARK                         _______ _______ _______ _____ _____    ______ ____
ROOT
ATOM      1  C   UNL     1      48.393   7.790  13.285  0.00  0.00    +0.000 A 
ATOM      2  C   UNL     1      47.354   8.171  12.452  0.00  0.00    +0.000 A 
ATOM      3  N   UNL     1      46.328   7.264  12.574  0.00  0.00    +0.000 N 
ATOM      4  C   UNL     1      46.681   6.289  13.484  0.00  0.00    +0.000 A 
ATOM      5  C   UNL     1      46.042   5.129  13.940  0.00  0.00    +0.000 A 
ATOM      6  C   UNL     1      46.713   4.394  14.919  0.00  0.00    +0.000 A 
ATOM      7  C   UNL     1      47.948   4.829  15.373  0.00  0.00    +0.000 A 
ATOM      8  N   UNL     1      48.591   5.912  14.915  0.00  0.00    +0.000 NA
ATOM      9  C   UNL     1      47.946   6.630  13.968  0.00  0.00    +0.000 A 
ENDROOT
BRANCH   1  10
ATOM     10  C   UNL     1      49.696   8.433  13.356  0.00  0.00    +0.000 C 
ATOM     11  O   UNL     1      50.543   8.323  12.477  0.00  0.00    +0.000 OA
BRANCH  10  12
ATOM     12  O   UNL     1      49.895   9.082  14.536  0.00  0.00    +0.000 OA
BRANCH  12  14
ATOM     13  C   UNL     1      50.475  11.386  14.253  0.00  0.00    +0.000 C 
ATOM     14  C   UNL     1      49.371  10.410  14.624  0.00  0.00    +0.000 C 
ENDBRANCH  12  14
ENDBRANCH  10  12
ENDBRANCH   1  10
BRANCH   7  15
ATOM     15  O   UNL     1      48.534   4.079  16.380  0.00  0.00    +0.000 OA
ATOM     16  C   UNL     1      48.109   2.717  16.368  0.00  0.00    +0.000 C 
ENDBRANCH   7  15
BRANCH   3  17
ATOM     17  C   UNL     1      45.053   7.378  11.867  0.00  0.00    +0.000 C 
BRANCH  17  18
ATOM     18  C   UNL     1      44.823   6.199  10.955  0.00  0.00    +0.000 A 
ATOM     19  C   UNL     1      43.711   5.365  11.135  0.00  0.00    +0.000 A 
ATOM     20  C   UNL     1      43.578   4.190  10.392  0.00  0.00    +0.000 A 
ATOM     21  C   UNL     1      44.552   3.824   9.453  0.00  0.00    +0.000 A 
ATOM     22  C   UNL     1      45.621   4.698   9.216  0.00  0.00    +0.000 A 
ATOM     23  C   UNL     1      45.754   5.873   9.959  0.00  0.00    +0.000 A 
BRANCH  21  24
ATOM     24  C   UNL     1      44.513   2.465   8.791  0.00  0.00    +0.000 C 
BRANCH  24  25
ATOM     25  N   UNL     1      45.697   1.662   9.097  0.00  0.00    +0.000 NA
ATOM     26  C   UNL     1      46.403   1.318   7.869  0.00  0.00    +0.000 C 
ATOM     27  H   UNL     1      45.402   0.809   9.570  0.00  0.00    +0.000 HD
ENDBRANCH  24  25
ENDBRANCH  21  24
ENDBRANCH  17  18
ENDBRANCH   3  17
TORSDOF 8
ENDMDL
MODEL 9
REMARK VINA RESULT:    -5.432      3.965      6.190
REMARK INTER + INTRA:          -8.945
REMARK INTER:                  -7.865
REMARK INTRA:                  -1.080
REMARK UNBOUND:                -0.972
REMARK  Name = 
REMARK  11 active torsions:
REMARK  status: ('A' for Active; 'I' for Inactive)
REMARK    1  A    between atoms: C_1  and  C_2
REMARK    2  A    between atoms: C_2  and  O_3
REMARK    3  A    between atoms: O_3  and  C_4
REMARK    4  A    between atoms: C_4  and  C_6
REMARK    5  A    between atoms: N_8  and  C_9
REMARK    6  A    between atoms: C_9  and  C_10
REMARK    7  A    between atoms: C_13  and  C_14
REMARK    8  A    between atoms: C_14  and  N_15
REMARK    9  A    between atoms: N_15  and  C_16
REMARK   10  A    between atoms: C_22  and  O_23
REMARK   11  A    between atoms: O_23  and  C_24
REMARK                            x       y       z     vdW  Elec       q    Type
REMARK                         _______ _______ _______ _____ _____    ______ ____
ROOT
ATOM      1  C   UNL     1      45.933   4.804  13.075  0.00  0.00    +0.000 A 
ATOM      2  C   UNL     1      46.179   6.054  12.530  0.00  0.00    +0.000 A 
ATOM      3  N   UNL     1      47.063   6.728  13.339  0.00  0.00    +0.000 N 
ATOM      4  C   UNL     1      47.404   5.932  14.413  0.00  0.00    +0.000 A 
ATOM      5  C   UNL     1      48.215   6.135  15.536  0.00  0.00    +0.000 A 
ATOM      6  C   UNL     1      48.352   5.054  16.408  0.00  0.00    +0.000 A 
ATOM      7  C   UNL     1      47.693   3.867  16.133  0.00  0.00    +0.000 A 
ATOM      8  N   UNL     1      46.880   3.671  15.085  0.00  0.00    +0.000 NA
ATOM      9  C   UNL     1      46.744   4.714  14.235  0.00  0.00    +0.000 A 
ENDROOT
BRANCH   1  10
ATOM     10  C   UNL     1      44.970   3.839  12.570  0.00  0.00    +0.000 C 
ATOM     11  O   UNL     1      43.946   3.539  13.175  0.00  0.00    +0.000 OA
BRANCH  10  12
ATOM     12  O   UNL     1      45.377   3.249  11.412  0.00  0.00    +0.000 OA
BRANCH  12  14
ATOM     13  C   UNL     1      44.667   4.281   9.374  0.00  0.00    +0.000 C 
ATOM     14  C   UNL     1      44.402   3.164  10.369  0.00  0.00    +0.000 C 
ENDBRANCH  12  14
ENDBRANCH  10  12
ENDBRANCH   1  10
BRANCH   7  15
ATOM     15  O   UNL     1      47.913   2.820  17.013  0.00  0.00    +0.000 OA
ATOM     16  C   UNL     1      49.211   2.865  17.605  0.00  0.00    +0.000 C 
ENDBRANCH   7  15
BRANCH   3  17
ATOM     17  C   UNL     1      47.576   8.066  13.046  0.00  0.00    +0.000 C 
BRANCH  17  18
ATOM     18  C   UNL     1      49.039   8.026  12.684  0.00  0.00    +0.000 A 
ATOM     19  C   UNL     1      50.006   8.528  13.564  0.00  0.00    +0.000 A 
ATOM     20  C   UNL     1      51.341   8.631  13.168  0.00  0.00    +0.000 A 
ATOM     21  C   UNL     1      51.739   8.233  11.885  0.00  0.00    +0.000 A 
ATOM     22  C   UNL     1      50.787   7.657  11.034  0.00  0.00    +0.000 A 
ATOM     23  C   UNL     1      49.452   7.553  11.429  0.00  0.00    +0.000 A 
BRANCH  21  24
ATOM     24  C   UNL     1      53.137   8.523  11.386  0.00  0.00    +0.000 C 
BRANCH  24  25
ATOM     25  N   UNL     1      53.518   7.661  10.266  0.00  0.00    +0.000 NA
ATOM     26  C   UNL     1      54.416   8.375   9.366  0.00  0.00    +0.000 C 
ATOM     27  H   UNL     1      52.677   7.389   9.761  0.00  0.00    +0.000 HD
ENDBRANCH  24  25
ENDBRANCH  21  24
ENDBRANCH  17  18
ENDBRANCH   3  17
TORSDOF 8
ENDMDL
