MODEL 1
REMARK VINA RESULT:    -8.078      0.000      0.000
REMARK INTER + INTRA:         -13.036
REMARK INTER:                 -11.856
REMARK INTRA:                  -1.180
REMARK UNBOUND:                -1.180
REMARK  Name = 
REMARK  9 active torsions:
REMARK  status: ('A' for Active; 'I' for Inactive)
REMARK    1  A    between atoms: C_1  and  C_2
REMARK    2  A    between atoms: C_2  and  N_3
REMARK    3  A    between atoms: N_3  and  C_4
REMARK    4  A    between atoms: N_3  and  C_25
REMARK    5  A    between atoms: C_4  and  C_5
REMARK    6  A    between atoms: C_8  and  C_9
REMARK    7  A    between atoms: C_9  and  N_10
REMARK    8  A    between atoms: C_11  and  C_13
REMARK    9  A    between atoms: C_25  and  C_26
REMARK                            x       y       z     vdW  Elec       q    Type
REMARK                         _______ _______ _______ _____ _____    ______ ____
ROOT
ATOM      1  C   UNL     1      46.139   4.278  12.931  0.00  0.00    +0.000 A 
ATOM      2  C   UNL     1      46.267   5.621  12.558  0.00  0.00    +0.000 A 
ATOM      3  C   UNL     1      47.041   6.487  13.327  0.00  0.00    +0.000 A 
ATOM      4  C   UNL     1      47.653   5.997  14.475  0.00  0.00    +0.000 A 
ATOM      5  N   UNL     1      47.491   4.718  14.897  0.00  0.00    +0.000 NA
ATOM      6  C   UNL     1      46.741   3.901  14.124  0.00  0.00    +0.000 A 
ENDROOT
BRANCH   1   7
ATOM      7  C   UNL     1      45.409   3.274  12.074  0.00  0.00    +0.000 C 
BRANCH   7   8
ATOM      8  N   UNL     1      44.383   3.804  11.145  0.00  0.00    +0.000 NA
BRANCH   8  10
ATOM      9  C   UNL     1      42.569   5.488  11.700  0.00  0.00    +0.000 C 
ATOM     10  C   UNL     1      43.063   4.045  11.743  0.00  0.00    +0.000 C 
ENDBRANCH   8  10
BRANCH   8  11
ATOM     11  C   UNL     1      44.281   2.985   9.917  0.00  0.00    +0.000 C 
BRANCH  11  12
ATOM     12  C   UNL     1      45.572   2.868   9.068  0.00  0.00    +0.000 C 
ATOM     13  C   UNL     1      45.572   3.956   7.977  0.00  0.00    +0.000 C 
ATOM     14  C   UNL     1      46.730   3.815   6.992  0.00  0.00    +0.000 C 
ATOM     15  C   UNL     1      46.801   2.411   6.406  0.00  0.00    +0.000 C 
ATOM     16  C   UNL     1      46.917   1.372   7.514  0.00  0.00    +0.000 C 
ATOM     17  C   UNL     1      45.734   1.459   8.474  0.00  0.00    +0.000 C 
ENDBRANCH  11  12
ENDBRANCH   8  11
ENDBRANCH   7   8
ENDBRANCH   1   7
BRANCH   4  18
ATOM     18  C   UNL     1      48.624   6.849  15.253  0.00  0.00    +0.000 C 
BRANCH  18  19
ATOM     19  N   UNL     1      49.711   6.052  15.784  0.00  0.00    +0.000 N 
ATOM     20  C   UNL     1      49.988   5.988  17.122  0.00  0.00    +0.000 C 
ATOM     21  O   UNL     1      49.319   6.594  17.956  0.00  0.00    +0.000 OA
ATOM     22  H   UNL     1      50.418   5.777  15.109  0.00  0.00    +0.000 HD
BRANCH  20  23
ATOM     23  C   UNL     1      51.083   5.093  17.523  0.00  0.00    +0.000 A 
ATOM     24  C   UNL     1      52.257   5.639  18.026  0.00  0.00    +0.000 A 
ATOM     25  S   UNL     1      53.404   4.471  18.504  0.00  0.00    +0.000 S 
ATOM     26  C   UNL     1      52.389   3.194  18.021  0.00  0.00    +0.000 A 
ATOM     27  N   UNL     1      52.785   1.901  18.147  0.00  0.00    +0.000 NA
ATOM     28  C   UNL     1      51.931   1.033  17.715  0.00  0.00    +0.000 A 
ATOM     29  N   UNL     1      50.715   1.346  17.161  0.00  0.00    +0.000 N 
ATOM     30  C   UNL     1      50.258   2.638  17.051  0.00  0.00    +0.000 A 
ATOM     31  O   UNL     1      49.139   2.879  16.611  0.00  0.00    +0.000 OA
ATOM     32  C   UNL     1      51.189   3.651  17.508  0.00  0.00    +0.000 A 
ATOM     33  H   UNL     1      50.081   0.621  16.858  0.00  0.00    +0.000 HD
ENDBRANCH  20  23
ENDBRANCH  18  19
ENDBRANCH   4  18
TORSDOF 8
ENDMDL
MODEL 2
REMARK VINA RESULT:    -7.890      2.395      3.146
REMARK INTER + INTRA:         -12.760
REMARK INTER:                 -11.715
REMARK INTRA:                  -1.045
REMARK UNBOUND:                -1.180
REMARK  Name = 
REMARK  9 active torsions:
REMARK  status: ('A' for Active; 'I' for Inactive)
REMARK    1  A    between atoms: C_1  and  C_2
REMARK    2  A    between atoms: C_2  and  N_3
REMARK    3  A    between atoms: N_3  and  C_4
REMARK    4  A    between atoms: N_3  and  C_25
REMARK    5  A    between atoms: C_4  and  C_5
REMARK    6  A    between atoms: C_8  and  C_9
REMARK    7  A    between atoms: C_9  and  N_10
REMARK    8  A    between atoms: C_11  and  C_13
REMARK    9  A    between atoms: C_25  and  C_26
REMARK                            x       y       z     vdW  Elec       q    Type
REMARK                         _______ _______ _______ _____ _____    ______ ____
ROOT
ATOM      1  C   UNL     1      44.603   5.753  10.733  0.00  0.00    +0.000 A 
ATOM      2  C   UNL     1      45.986   5.806  10.528  0.00  0.00    +0.000 A 
ATOM      3  C   UNL     1      46.778   6.628  11.327  0.00  0.00    +0.000 A 
ATOM      4  C   UNL     1      46.163   7.406  12.302  0.00  0.00    +0.000 A 
ATOM      5  N   UNL     1      44.818   7.425  12.477  0.00  0.00    +0.000 NA
ATOM      6  C   UNL     1      44.079   6.610  11.691  0.00  0.00    +0.000 A 
ENDROOT
BRANCH   1   7
ATOM      7  C   UNL     1      43.717   4.796   9.974  0.00  0.00    +0.000 C 
BRANCH   7   8
ATOM      8  N   UNL     1      43.905   3.351  10.241  0.00  0.00    +0.000 NA
BRANCH   8  10
ATOM      9  C   UNL     1      44.613   2.961  12.645  0.00  0.00    +0.000 C 
ATOM     10  C   UNL     1      43.516   2.907  11.586  0.00  0.00    +0.000 C 
ENDBRANCH   8  10
BRANCH   8  11
ATOM     11  C   UNL     1      45.271   2.903   9.896  0.00  0.00    +0.000 C 
BRANCH  11  12
ATOM     12  C   UNL     1      45.533   2.605   8.397  0.00  0.00    +0.000 C 
ATOM     13  C   UNL     1      46.346   1.303   8.265  0.00  0.00    +0.000 C 
ATOM     14  C   UNL     1      46.787   1.018   6.831  0.00  0.00    +0.000 C 
ATOM     15  C   UNL     1      47.505   2.211   6.216  0.00  0.00    +0.000 C 
ATOM     16  C   UNL     1      46.622   3.452   6.262  0.00  0.00    +0.000 C 
ATOM     17  C   UNL     1      46.222   3.788   7.696  0.00  0.00    +0.000 C 
ENDBRANCH  11  12
ENDBRANCH   8  11
ENDBRANCH   7   8
ENDBRANCH   1   7
BRANCH   4  18
ATOM     18  C   UNL     1      46.986   8.190  13.292  0.00  0.00    +0.000 C 
BRANCH  18  19
ATOM     19  N   UNL     1      47.397   7.358  14.405  0.00  0.00    +0.000 N 
ATOM     20  C   UNL     1      48.709   7.059  14.653  0.00  0.00    +0.000 C 
ATOM     21  O   UNL     1      49.620   7.493  13.952  0.00  0.00    +0.000 OA
ATOM     22  H   UNL     1      46.664   6.787  14.815  0.00  0.00    +0.000 HD
BRANCH  20  23
ATOM     23  C   UNL     1      48.983   6.253  15.851  0.00  0.00    +0.000 A 
ATOM     24  C   UNL     1      50.026   6.619  16.693  0.00  0.00    +0.000 A 
ATOM     25  S   UNL     1      50.177   5.624  18.069  0.00  0.00    +0.000 S 
ATOM     26  C   UNL     1      48.878   4.644  17.572  0.00  0.00    +0.000 A 
ATOM     27  N   UNL     1      48.485   3.574  18.312  0.00  0.00    +0.000 NA
ATOM     28  C   UNL     1      47.508   2.900  17.806  0.00  0.00    +0.000 A 
ATOM     29  N   UNL     1      46.888   3.197  16.617  0.00  0.00    +0.000 N 
ATOM     30  C   UNL     1      47.227   4.291  15.856  0.00  0.00    +0.000 A 
ATOM     31  O   UNL     1      46.610   4.566  14.833  0.00  0.00    +0.000 OA
ATOM     32  C   UNL     1      48.332   5.073  16.376  0.00  0.00    +0.000 A 
ATOM     33  H   UNL     1      46.115   2.642  16.282  0.00  0.00    +0.000 HD
ENDBRANCH  20  23
ENDBRANCH  18  19
ENDBRANCH   4  18
TORSDOF 8
ENDMDL
MODEL 3
REMARK VINA RESULT:    -7.635      2.128      2.362
REMARK INTER + INTRA:         -12.385
REMARK INTER:                 -11.233
REMARK INTRA:                  -1.152
REMARK UNBOUND:                -1.180
REMARK  Name = 
REMARK  9 active torsions:
REMARK  status: ('A' for Active; 'I' for Inactive)
REMARK    1  A    between atoms: C_1  and  C_2
REMARK    2  A    between atoms: C_2  and  N_3
REMARK    3  A    between atoms: N_3  and  C_4
REMARK    4  A    between atoms: N_3  and  C_25
REMARK    5  A    between atoms: C_4  and  C_5
REMARK    6  A    between atoms: C_8  and  C_9
REMARK    7  A    between atoms: C_9  and  N_10
REMARK    8  A    between atoms: C_11  and  C_13
REMARK    9  A    between atoms: C_25  and  C_26
REMARK                            x       y       z     vdW  Elec       q    Type
REMARK                         _______ _______ _______ _____ _____    ______ ____
ROOT
ATOM      1  C   UNL     1      46.063   4.841  12.593  0.00  0.00    +0.000 A 
ATOM      2  C   UNL     1      46.458   6.002  11.919  0.00  0.00    +0.000 A 
ATOM      3  C   UNL     1      47.437   6.827  12.468  0.00  0.00    +0.000 A 
ATOM      4  C   UNL     1      47.984   6.487  13.701  0.00  0.00    +0.000 A 
ATOM      5  N   UNL     1      47.572   5.404  14.406  0.00  0.00    +0.000 NA
ATOM      6  C   UNL     1      46.627   4.620  13.842  0.00  0.00    +0.000 A 
ENDROOT
BRANCH   1   7
ATOM      7  C   UNL     1      45.092   3.856  11.989  0.00  0.00    +0.000 C 
BRANCH   7   8
ATOM      8  N   UNL     1      44.390   4.275  10.754  0.00  0.00    +0.000 NA
BRANCH   8  10
ATOM      9  C   UNL     1      42.666   5.110  12.417  0.00  0.00    +0.000 C 
ATOM     10  C   UNL     1      43.082   4.910  10.963  0.00  0.00    +0.000 C 
ENDBRANCH   8  10
BRANCH   8  11
ATOM     11  C   UNL     1      44.306   3.174   9.770  0.00  0.00    +0.000 C 
BRANCH  11  12
ATOM     12  C   UNL     1      45.602   2.871   8.975  0.00  0.00    +0.000 C 
ATOM     13  C   UNL     1      45.759   3.897   7.836  0.00  0.00    +0.000 C 
ATOM     14  C   UNL     1      46.924   3.579   6.901  0.00  0.00    +0.000 C 
ATOM     15  C   UNL     1      46.855   2.149   6.384  0.00  0.00    +0.000 C 
ATOM     16  C   UNL     1      46.818   1.160   7.542  0.00  0.00    +0.000 C 
ATOM     17  C   UNL     1      45.623   1.425   8.453  0.00  0.00    +0.000 C 
ENDBRANCH  11  12
ENDBRANCH   8  11
ENDBRANCH   7   8
ENDBRANCH   1   7
BRANCH   4  18
ATOM     18  C   UNL     1      49.153   7.257  14.262  0.00  0.00    +0.000 C 
BRANCH  18  19
ATOM     19  N   UNL     1      49.218   7.131  15.704  0.00  0.00    +0.000 N 
ATOM     20  C   UNL     1      50.383   6.850  16.364  0.00  0.00    +0.000 C 
ATOM     21  O   UNL     1      51.449   6.701  15.771  0.00  0.00    +0.000 OA
ATOM     22  H   UNL     1      48.327   6.982  16.168  0.00  0.00    +0.000 HD
BRANCH  20  23
ATOM     23  C   UNL     1      50.312   6.810  17.832  0.00  0.00    +0.000 A 
ATOM     24  C   UNL     1      50.892   7.835  18.568  0.00  0.00    +0.000 A 
ATOM     25  S   UNL     1      50.673   7.678  20.251  0.00  0.00    +0.000 S 
ATOM     26  C   UNL     1      49.826   6.215  20.061  0.00  0.00    +0.000 A 
ATOM     27  N   UNL     1      49.359   5.532  21.139  0.00  0.00    +0.000 NA
ATOM     28  C   UNL     1      48.762   4.423  20.854  0.00  0.00    +0.000 A 
ATOM     29  N   UNL     1      48.594   3.931  19.584  0.00  0.00    +0.000 N 
ATOM     30  C   UNL     1      49.015   4.608  18.463  0.00  0.00    +0.000 A 
ATOM     31  O   UNL     1      48.792   4.173  17.339  0.00  0.00    +0.000 OA
ATOM     32  C   UNL     1      49.708   5.853  18.732  0.00  0.00    +0.000 A 
ATOM     33  H   UNL     1      48.101   3.065  19.424  0.00  0.00    +0.000 HD
ENDBRANCH  20  23
ENDBRANCH  18  19
ENDBRANCH   4  18
TORSDOF 8
ENDMDL
MODEL 4
REMARK VINA RESULT:    -7.626      3.448      4.133
REMARK INTER + INTRA:         -12.373
REMARK INTER:                 -11.167
REMARK INTRA:                  -1.206
REMARK UNBOUND:                -1.180
REMARK  Name = 
REMARK  9 active torsions:
REMARK  status: ('A' for Active; 'I' for Inactive)
REMARK    1  A    between atoms: C_1  and  C_2
REMARK    2  A    between atoms: C_2  and  N_3
REMARK    3  A    between atoms: N_3  and  C_4
REMARK    4  A    between atoms: N_3  and  C_25
REMARK    5  A    between atoms: C_4  and  C_5
REMARK    6  A    between atoms: C_8  and  C_9
REMARK    7  A    between atoms: C_9  and  N_10
REMARK    8  A    between atoms: C_11  and  C_13
REMARK    9  A    between atoms: C_25  and  C_26
REMARK                            x       y       z     vdW  Elec       q    Type
REMARK                         _______ _______ _______ _____ _____    ______ ____
ROOT
ATOM      1  C   UNL     1      46.115   5.048  12.378  0.00  0.00    +0.000 A 
ATOM      2  C   UNL     1      46.915   5.098  13.525  0.00  0.00    +0.000 A 
ATOM      3  C   UNL     1      47.470   6.308  13.935  0.00  0.00    +0.000 A 
ATOM      4  C   UNL     1      47.235   7.445  13.169  0.00  0.00    +0.000 A 
ATOM      5  N   UNL     1      46.519   7.412  12.018  0.00  0.00    +0.000 NA
ATOM      6  C   UNL     1      45.987   6.224  11.652  0.00  0.00    +0.000 A 
ENDROOT
BRANCH   1   7
ATOM      7  C   UNL     1      45.398   3.789  11.956  0.00  0.00    +0.000 C 
BRANCH   7   8
ATOM      8  N   UNL     1      44.255   3.946  11.026  0.00  0.00    +0.000 NA
BRANCH   8  10
ATOM      9  C   UNL     1      42.374   5.474  11.779  0.00  0.00    +0.000 C 
ATOM     10  C   UNL     1      42.938   4.061  11.667  0.00  0.00    +0.000 C 
ENDBRANCH   8  10
BRANCH   8  11
ATOM     11  C   UNL     1      44.257   2.908   9.973  0.00  0.00    +0.000 C 
BRANCH  11  12
ATOM     12  C   UNL     1      45.550   2.801   9.125  0.00  0.00    +0.000 C 
ATOM     13  C   UNL     1      45.576   3.934   8.081  0.00  0.00    +0.000 C 
ATOM     14  C   UNL     1      46.736   3.811   7.095  0.00  0.00    +0.000 C 
ATOM     15  C   UNL     1      46.784   2.432   6.452  0.00  0.00    +0.000 C 
ATOM     16  C   UNL     1      46.874   1.346   7.515  0.00  0.00    +0.000 C 
ATOM     17  C   UNL     1      45.688   1.415   8.473  0.00  0.00    +0.000 C 
ENDBRANCH  11  12
ENDBRANCH   8  11
ENDBRANCH   7   8
ENDBRANCH   1   7
BRANCH   4  18
ATOM     18  C   UNL     1      47.679   8.803  13.652  0.00  0.00    +0.000 C 
BRANCH  18  19
ATOM     19  N   UNL     1      47.466   8.947  15.078  0.00  0.00    +0.000 N 
ATOM     20  C   UNL     1      48.498   8.984  15.974  0.00  0.00    +0.000 C 
ATOM     21  O   UNL     1      49.673   8.914  15.620  0.00  0.00    +0.000 OA
ATOM     22  H   UNL     1      46.526   8.735  15.401  0.00  0.00    +0.000 HD
BRANCH  20  23
ATOM     23  C   UNL     1      48.137   9.193  17.383  0.00  0.00    +0.000 A 
ATOM     24  C   UNL     1      47.867  10.480  17.833  0.00  0.00    +0.000 A 
ATOM     25  S   UNL     1      47.404  10.550  19.472  0.00  0.00    +0.000 S 
ATOM     26  C   UNL     1      47.582   8.867  19.653  0.00  0.00    +0.000 A 
ATOM     27  N   UNL     1      47.348   8.263  20.847  0.00  0.00    +0.000 NA
ATOM     28  C   UNL     1      47.550   6.988  20.852  0.00  0.00    +0.000 A 
ATOM     29  N   UNL     1      47.972   6.261  19.768  0.00  0.00    +0.000 N 
ATOM     30  C   UNL     1      48.183   6.824  18.531  0.00  0.00    +0.000 A 
ATOM     31  O   UNL     1      48.496   6.136  17.566  0.00  0.00    +0.000 OA
ATOM     32  C   UNL     1      47.985   8.260  18.477  0.00  0.00    +0.000 A 
ATOM     33  H   UNL     1      48.094   5.261  19.829  0.00  0.00    +0.000 HD
ENDBRANCH  20  23
ENDBRANCH  18  19
ENDBRANCH   4  18
TORSDOF 8
ENDMDL
MODEL 5
REMARK VINA RESULT:    -7.378      3.762      8.797
REMARK INTER + INTRA:         -12.009
REMARK INTER:                 -10.438
REMARK INTRA:                  -1.572
REMARK UNBOUND:                -1.180
REMARK  Name = 
REMARK  9 active torsions:
REMARK  status: ('A' for Active; 'I' for Inactive)
REMARK    1  A    between atoms: C_1  and  C_2
REMARK    2  A    between atoms: C_2  and  N_3
REMARK    3  A    between atoms: N_3  and  C_4
REMARK    4  A    between atoms: N_3  and  C_25
REMARK    5  A    between atoms: C_4  and  C_5
REMARK    6  A    between atoms: C_8  and  C_9
REMARK    7  A    between atoms: C_9  and  N_10
REMARK    8  A    between atoms: C_11  and  C_13
REMARK    9  A    between atoms: C_25  and  C_26
REMARK                            x       y       z     vdW  Elec       q    Type
REMARK                         _______ _______ _______ _____ _____    ______ ____
ROOT
ATOM      1  C   UNL     1      49.044   8.005  16.037  0.00  0.00    +0.000 A 
ATOM      2  C   UNL     1      48.310   9.051  15.467  0.00  0.00    +0.000 A 
ATOM      3  C   UNL     1      47.962   9.004  14.119  0.00  0.00    +0.000 A 
ATOM      4  C   UNL     1      48.382   7.918  13.357  0.00  0.00    +0.000 A 
ATOM      5  N   UNL     1      49.151   6.925  13.868  0.00  0.00    +0.000 NA
ATOM      6  C   UNL     1      49.464   6.996  15.181  0.00  0.00    +0.000 A 
ENDROOT
BRANCH   1   7
ATOM      7  C   UNL     1      49.349   7.951  17.514  0.00  0.00    +0.000 C 
BRANCH   7   8
ATOM      8  N   UNL     1      48.554   7.003  18.329  0.00  0.00    +0.000 NA
BRANCH   8  10
ATOM      9  C   UNL     1      47.414   9.120  19.137  0.00  0.00    +0.000 C 
ATOM     10  C   UNL     1      47.653   7.623  19.310  0.00  0.00    +0.000 C 
ENDBRANCH   8  10
BRANCH   8  11
ATOM     11  C   UNL     1      49.407   5.969  18.955  0.00  0.00    +0.000 C 
BRANCH  11  12
ATOM     12  C   UNL     1      49.050   4.498  18.621  0.00  0.00    +0.000 C 
ATOM     13  C   UNL     1      50.200   3.860  17.817  0.00  0.00    +0.000 C 
ATOM     14  C   UNL     1      49.865   2.460  17.306  0.00  0.00    +0.000 C 
ATOM     15  C   UNL     1      48.547   2.440  16.543  0.00  0.00    +0.000 C 
ATOM     16  C   UNL     1      47.416   2.972  17.413  0.00  0.00    +0.000 C 
ATOM     17  C   UNL     1      47.705   4.395  17.882  0.00  0.00    +0.000 C 
ENDBRANCH  11  12
ENDBRANCH   8  11
ENDBRANCH   7   8
ENDBRANCH   1   7
BRANCH   4  18
ATOM     18  C   UNL     1      47.900   7.742  11.939  0.00  0.00    +0.000 C 
BRANCH  18  19
ATOM     19  N   UNL     1      47.129   6.524  11.795  0.00  0.00    +0.000 N 
ATOM     20  C   UNL     1      45.763   6.509  11.859  0.00  0.00    +0.000 C 
ATOM     21  O   UNL     1      45.106   7.534  12.026  0.00  0.00    +0.000 OA
ATOM     22  H   UNL     1      47.649   5.662  11.929  0.00  0.00    +0.000 HD
BRANCH  20  23
ATOM     23  C   UNL     1      45.110   5.211  11.637  0.00  0.00    +0.000 A 
ATOM     24  C   UNL     1      44.428   4.605  12.685  0.00  0.00    +0.000 A 
ATOM     25  S   UNL     1      43.675   3.138  12.254  0.00  0.00    +0.000 S 
ATOM     26  C   UNL     1      44.264   3.238  10.661  0.00  0.00    +0.000 A 
ATOM     27  N   UNL     1      43.989   2.267   9.751  0.00  0.00    +0.000 NA
ATOM     28  C   UNL     1      44.522   2.453   8.589  0.00  0.00    +0.000 A 
ATOM     29  N   UNL     1      45.312   3.524   8.257  0.00  0.00    +0.000 N 
ATOM     30  C   UNL     1      45.583   4.549   9.133  0.00  0.00    +0.000 A 
ATOM     31  O   UNL     1      46.239   5.524   8.784  0.00  0.00    +0.000 OA
ATOM     32  C   UNL     1      45.020   4.378  10.458  0.00  0.00    +0.000 A 
ATOM     33  H   UNL     1      45.686   3.624   7.324  0.00  0.00    +0.000 HD
ENDBRANCH  20  23
ENDBRANCH  18  19
ENDBRANCH   4  18
TORSDOF 8
ENDMDL
MODEL 6
REMARK VINA RESULT:    -7.214      3.957      8.706
REMARK INTER + INTRA:         -11.767
REMARK INTER:                  -9.788
REMARK INTRA:                  -1.979
REMARK UNBOUND:                -1.180
REMARK  Name = 
REMARK  9 active torsions:
REMARK  status: ('A' for Active; 'I' for Inactive)
REMARK    1  A    between atoms: C_1  and  C_2
REMARK    2  A    between atoms: C_2  and  N_3
REMARK    3  A    between atoms: N_3  and  C_4
REMARK    4  A    between atoms: N_3  and  C_25
REMARK    5  A    between atoms: C_4  and  C_5
REMARK    6  A    between atoms: C_8  and  C_9
REMARK    7  A    between atoms: C_9  and  N_10
REMARK    8  A    between atoms: C_11  and  C_13
REMARK    9  A    between atoms: C_25  and  C_26
REMARK                            x       y       z     vdW  Elec       q    Type
REMARK                         _______ _______ _______ _____ _____    ______ ____
ROOT
ATOM      1  C   UNL     1      49.110   7.705  16.415  0.00  0.00    +0.000 A 
ATOM      2  C   UNL     1      48.990   6.556  15.626  0.00  0.00    +0.000 A 
ATOM      3  C   UNL     1      48.646   6.667  14.280  0.00  0.00    +0.000 A 
ATOM      4  C   UNL     1      48.402   7.931  13.755  0.00  0.00    +0.000 A 
ATOM      5  N   UNL     1      48.445   9.055  14.513  0.00  0.00    +0.000 NA
ATOM      6  C   UNL     1      48.789   8.914  15.812  0.00  0.00    +0.000 A 
ENDROOT
BRANCH   1   7
ATOM      7  C   UNL     1      49.589   7.649  17.844  0.00  0.00    +0.000 C 
BRANCH   7   8
ATOM      8  N   UNL     1      48.673   7.040  18.837  0.00  0.00    +0.000 NA
BRANCH   8  10
ATOM      9  C   UNL     1      47.156   9.014  19.322  0.00  0.00    +0.000 C 
ATOM     10  C   UNL     1      48.134   7.966  19.842  0.00  0.00    +0.000 C 
ENDBRANCH   8  10
BRANCH   8  11
ATOM     11  C   UNL     1      49.266   5.841  19.468  0.00  0.00    +0.000 C 
BRANCH  11  12
ATOM     12  C   UNL     1      48.831   4.475  18.877  0.00  0.00    +0.000 C 
ATOM     13  C   UNL     1      49.968   3.905  18.006  0.00  0.00    +0.000 C 
ATOM     14  C   UNL     1      49.566   2.638  17.254  0.00  0.00    +0.000 C 
ATOM     15  C   UNL     1      48.280   2.837  16.465  0.00  0.00    +0.000 C 
ATOM     16  C   UNL     1      47.151   3.290  17.383  0.00  0.00    +0.000 C 
ATOM     17  C   UNL     1      47.511   4.589  18.096  0.00  0.00    +0.000 C 
ENDBRANCH  11  12
ENDBRANCH   8  11
ENDBRANCH   7   8
ENDBRANCH   1   7
BRANCH   4  18
ATOM     18  C   UNL     1      48.182   8.120  12.275  0.00  0.00    +0.000 C 
BRANCH  18  19
ATOM     19  N   UNL     1      47.489   6.985  11.700  0.00  0.00    +0.000 N 
ATOM     20  C   UNL     1      46.138   6.983  11.483  0.00  0.00    +0.000 C 
ATOM     21  O   UNL     1      45.434   7.954  11.748  0.00  0.00    +0.000 OA
ATOM     22  H   UNL     1      47.995   6.104  11.732  0.00  0.00    +0.000 HD
BRANCH  20  23
ATOM     23  C   UNL     1      45.579   5.786  10.839  0.00  0.00    +0.000 A 
ATOM     24  C   UNL     1      45.804   5.574   9.485  0.00  0.00    +0.000 A 
ATOM     25  S   UNL     1      45.144   4.114   8.901  0.00  0.00    +0.000 S 
ATOM     26  C   UNL     1      44.500   3.729  10.428  0.00  0.00    +0.000 A 
ATOM     27  N   UNL     1      43.787   2.589  10.620  0.00  0.00    +0.000 NA
ATOM     28  C   UNL     1      43.332   2.435  11.818  0.00  0.00    +0.000 A 
ATOM     29  N   UNL     1      43.521   3.325  12.845  0.00  0.00    +0.000 N 
ATOM     30  C   UNL     1      44.269   4.471  12.706  0.00  0.00    +0.000 A 
ATOM     31  O   UNL     1      44.474   5.213  13.661  0.00  0.00    +0.000 OA
ATOM     32  C   UNL     1      44.789   4.698  11.372  0.00  0.00    +0.000 A 
ATOM     33  H   UNL     1      43.155   3.139  13.767  0.00  0.00    +0.000 HD
ENDBRANCH  20  23
ENDBRANCH  18  19
ENDBRANCH   4  18
TORSDOF 8
ENDMDL
MODEL 7
REMARK VINA RESULT:    -6.897      1.826      2.500
REMARK INTER + INTRA:         -11.302
REMARK INTER:                 -10.226
REMARK INTRA:                  -1.076
REMARK UNBOUND:                -1.180
REMARK  Name = 
REMARK  9 active torsions:
REMARK  status: ('A' for Active; 'I' for Inactive)
REMARK    1  A    between atoms: C_1  and  C_2
REMARK    2  A    between atoms: C_2  and  N_3
REMARK    3  A    between atoms: N_3  and  C_4
REMARK    4  A    between atoms: N_3  and  C_25
REMARK    5  A    between atoms: C_4  and  C_5
REMARK    6  A    between atoms: C_8  and  C_9
REMARK    7  A    between atoms: C_9  and  N_10
REMARK    8  A    between atoms: C_11  and  C_13
REMARK    9  A    between atoms: C_25  and  C_26
REMARK                            x       y       z     vdW  Elec       q    Type
REMARK                         _______ _______ _______ _____ _____    ______ ____
ROOT
ATOM      1  C   UNL     1      45.976   4.582  12.814  0.00  0.00    +0.000 A 
ATOM      2  C   UNL     1      46.626   4.146  13.974  0.00  0.00    +0.000 A 
ATOM      3  C   UNL     1      47.525   4.987  14.627  0.00  0.00    +0.000 A 
ATOM      4  C   UNL     1      47.778   6.243  14.087  0.00  0.00    +0.000 A 
ATOM      5  N   UNL     1      47.214   6.664  12.928  0.00  0.00    +0.000 NA
ATOM      6  C   UNL     1      46.340   5.829  12.324  0.00  0.00    +0.000 A 
ENDROOT
BRANCH   1   7
ATOM      7  C   UNL     1      44.911   3.757  12.135  0.00  0.00    +0.000 C 
BRANCH   7   8
ATOM      8  N   UNL     1      44.537   4.148  10.755  0.00  0.00    +0.000 NA
BRANCH   8  10
ATOM      9  C   UNL     1      42.560   5.200  11.947  0.00  0.00    +0.000 C 
ATOM     10  C   UNL     1      43.308   4.945  10.642  0.00  0.00    +0.000 C 
ENDBRANCH   8  10
BRANCH   8  11
ATOM     11  C   UNL     1      44.514   2.984   9.842  0.00  0.00    +0.000 C 
BRANCH  11  12
ATOM     12  C   UNL     1      45.750   2.817   8.922  0.00  0.00    +0.000 C 
ATOM     13  C   UNL     1      45.668   3.827   7.761  0.00  0.00    +0.000 C 
ATOM     14  C   UNL     1      46.763   3.624   6.715  0.00  0.00    +0.000 C 
ATOM     15  C   UNL     1      46.813   2.184   6.225  0.00  0.00    +0.000 C 
ATOM     16  C   UNL     1      47.011   1.226   7.392  0.00  0.00    +0.000 C 
ATOM     17  C   UNL     1      45.890   1.371   8.418  0.00  0.00    +0.000 C 
ENDBRANCH  11  12
ENDBRANCH   8  11
ENDBRANCH   7   8
ENDBRANCH   1   7
BRANCH   4  18
ATOM     18  C   UNL     1      48.618   7.246  14.837  0.00  0.00    +0.000 C 
BRANCH  18  19
ATOM     19  N   UNL     1      49.767   6.612  15.451  0.00  0.00    +0.000 N 
ATOM     20  C   UNL     1      49.912   6.515  16.808  0.00  0.00    +0.000 C 
ATOM     21  O   UNL     1      49.067   6.949  17.588  0.00  0.00    +0.000 OA
ATOM     22  H   UNL     1      50.577   6.501  14.849  0.00  0.00    +0.000 HD
BRANCH  20  23
ATOM     23  C   UNL     1      51.099   5.794  17.291  0.00  0.00    +0.000 A 
ATOM     24  C   UNL     1      50.956   4.845  18.295  0.00  0.00    +0.000 A 
ATOM     25  S   UNL     1      52.410   4.054  18.701  0.00  0.00    +0.000 S 
ATOM     26  C   UNL     1      53.292   4.977  17.577  0.00  0.00    +0.000 A 
ATOM     27  N   UNL     1      54.632   4.804  17.427  0.00  0.00    +0.000 NA
ATOM     28  C   UNL     1      55.181   5.589  16.562  0.00  0.00    +0.000 A 
ATOM     29  N   UNL     1      54.510   6.539  15.834  0.00  0.00    +0.000 N 
ATOM     30  C   UNL     1      53.150   6.721  15.925  0.00  0.00    +0.000 A 
ATOM     31  O   UNL     1      52.570   7.534  15.212  0.00  0.00    +0.000 OA
ATOM     32  C   UNL     1      52.488   5.873  16.896  0.00  0.00    +0.000 A 
ATOM     33  H   UNL     1      54.993   7.112  15.157  0.00  0.00    +0.000 HD
ENDBRANCH  20  23
ENDBRANCH  18  19
ENDBRANCH   4  18
TORSDOF 8
ENDMDL
MODEL 8
REMARK VINA RESULT:    -6.672      3.738      9.485
REMARK INTER + INTRA:         -10.973
REMARK INTER:                  -9.088
REMARK INTRA:                  -1.884
REMARK UNBOUND:                -1.180
REMARK  Name = 
REMARK  9 active torsions:
REMARK  status: ('A' for Active; 'I' for Inactive)
REMARK    1  A    between atoms: C_1  and  C_2
REMARK    2  A    between atoms: C_2  and  N_3
REMARK    3  A    between atoms: N_3  and  C_4
REMARK    4  A    between atoms: N_3  and  C_25
REMARK    5  A    between atoms: C_4  and  C_5
REMARK    6  A    between atoms: C_8  and  C_9
REMARK    7  A    between atoms: C_9  and  N_10
REMARK    8  A    between atoms: C_11  and  C_13
REMARK    9  A    between atoms: C_25  and  C_26
REMARK                            x       y       z     vdW  Elec       q    Type
REMARK                         _______ _______ _______ _____ _____    ______ ____
ROOT
ATOM      1  C   UNL     1      50.989   4.309  18.330  0.00  0.00    +0.000 A 
ATOM      2  C   UNL     1      49.972   5.260  18.470  0.00  0.00    +0.000 A 
ATOM      3  C   UNL     1      48.718   5.026  17.910  0.00  0.00    +0.000 A 
ATOM      4  C   UNL     1      48.514   3.852  17.194  0.00  0.00    +0.000 A 
ATOM      5  N   UNL     1      49.501   2.945  16.985  0.00  0.00    +0.000 NA
ATOM      6  C   UNL     1      50.703   3.197  17.549  0.00  0.00    +0.000 A 
ENDROOT
BRANCH   1   7
ATOM      7  C   UNL     1      52.326   4.460  19.012  0.00  0.00    +0.000 C 
BRANCH   7   8
ATOM      8  N   UNL     1      53.481   4.818  18.155  0.00  0.00    +0.000 NA
BRANCH   8  10
ATOM      9  C   UNL     1      55.581   3.942  17.035  0.00  0.00    +0.000 C 
ATOM     10  C   UNL     1      54.618   3.889  18.216  0.00  0.00    +0.000 C 
ENDBRANCH   8  10
BRANCH   8  11
ATOM     11  C   UNL     1      53.912   6.216  18.372  0.00  0.00    +0.000 C 
BRANCH  11  12
ATOM     12  C   UNL     1      53.259   7.280  17.452  0.00  0.00    +0.000 C 
ATOM     13  C   UNL     1      52.170   8.039  18.236  0.00  0.00    +0.000 C 
ATOM     14  C   UNL     1      51.363   8.997  17.361  0.00  0.00    +0.000 C 
ATOM     15  C   UNL     1      50.806   8.299  16.129  0.00  0.00    +0.000 C 
ATOM     16  C   UNL     1      51.928   7.659  15.321  0.00  0.00    +0.000 C 
ATOM     17  C   UNL     1      52.706   6.652  16.162  0.00  0.00    +0.000 C 
ENDBRANCH  11  12
ENDBRANCH   8  11
ENDBRANCH   7   8
ENDBRANCH   1   7
BRANCH   4  18
ATOM     18  C   UNL     1      47.137   3.479  16.704  0.00  0.00    +0.000 C 
BRANCH  18  19
ATOM     19  N   UNL     1      46.656   4.430  15.723  0.00  0.00    +0.000 N 
ATOM     20  C   UNL     1      46.754   4.208  14.376  0.00  0.00    +0.000 C 
ATOM     21  O   UNL     1      47.245   3.178  13.919  0.00  0.00    +0.000 OA
ATOM     22  H   UNL     1      46.506   5.373  16.068  0.00  0.00    +0.000 HD
BRANCH  20  23
ATOM     23  C   UNL     1      46.171   5.232  13.498  0.00  0.00    +0.000 A 
ATOM     24  C   UNL     1      46.911   6.367  13.191  0.00  0.00    +0.000 A 
ATOM     25  S   UNL     1      46.123   7.428  12.115  0.00  0.00    +0.000 S 
ATOM     26  C   UNL     1      44.748   6.430  12.048  0.00  0.00    +0.000 A 
ATOM     27  N   UNL     1      43.669   6.774  11.297  0.00  0.00    +0.000 NA
ATOM     28  C   UNL     1      42.683   5.942  11.360  0.00  0.00    +0.000 A 
ATOM     29  N   UNL     1      42.678   4.795  12.113  0.00  0.00    +0.000 N 
ATOM     30  C   UNL     1      43.761   4.389  12.857  0.00  0.00    +0.000 A 
ATOM     31  O   UNL     1      43.747   3.325  13.467  0.00  0.00    +0.000 OA
ATOM     32  C   UNL     1      44.889   5.299  12.832  0.00  0.00    +0.000 A 
ATOM     33  H   UNL     1      41.882   4.174  12.107  0.00  0.00    +0.000 HD
ENDBRANCH  20  23
ENDBRANCH  18  19
ENDBRANCH   4  18
TORSDOF 8
ENDMDL
