MODEL 1
REMARK VINA RESULT:    -8.171      0.000      0.000
REMARK INTER + INTRA:         -11.878
REMARK INTER:                 -11.037
REMARK INTRA:                  -0.841
REMARK UNBOUND:                -0.841
REMARK  Name = 
REMARK  7 active torsions:
REMARK  status: ('A' for Active; 'I' for Inactive)
REMARK    1  A    between atoms: C_1  and  N_2
REMARK    2  A    between atoms: N_2  and  C_3
REMARK    3  A    between atoms: C_3  and  C_4
REMARK    4  A    between atoms: C_7  and  C_8
REMARK    5  A    between atoms: C_8  and  N_9
REMARK    6  A    between atoms: C_10  and  C_12
REMARK    7  A    between atoms: C_19  and  C_21
REMARK                            x       y       z     vdW  Elec       q    Type
REMARK                         _______ _______ _______ _____ _____    ______ ____
ROOT
ATOM      1  C   UNL     1      47.120   6.304  12.182  0.00  0.00    +0.000 C 
ENDROOT
BRANCH   1   2
ATOM      2  C   UNL     1      47.278   5.573  13.491  0.00  0.00    +0.000 A 
ATOM      3  C   UNL     1      46.816   4.256  13.639  0.00  0.00    +0.000 A 
ATOM      4  C   UNL     1      46.972   3.579  14.851  0.00  0.00    +0.000 A 
ATOM      5  C   UNL     1      47.581   4.214  15.942  0.00  0.00    +0.000 A 
ATOM      6  C   UNL     1      48.074   5.517  15.780  0.00  0.00    +0.000 A 
ATOM      7  C   UNL     1      47.914   6.195  14.570  0.00  0.00    +0.000 A 
BRANCH   5   8
ATOM      8  C   UNL     1      47.690   3.522  17.275  0.00  0.00    +0.000 C 
BRANCH   8   9
ATOM      9  N   UNL     1      49.057   3.286  17.659  0.00  0.00    +0.000 N 
ATOM     10  C   UNL     1      49.820   2.327  17.027  0.00  0.00    +0.000 C 
ATOM     11  O   UNL     1      49.373   1.644  16.110  0.00  0.00    +0.000 OA
ATOM     12  H   UNL     1      49.490   3.883  18.352  0.00  0.00    +0.000 HD
BRANCH  10  13
ATOM     13  C   UNL     1      51.179   2.179  17.510  0.00  0.00    +0.000 A 
ATOM     14  C   UNL     1      51.886   1.007  17.699  0.00  0.00    +0.000 A 
ATOM     15  N   UNL     1      53.170   1.150  18.197  0.00  0.00    +0.000 NA
ATOM     16  C   UNL     1      53.421   2.423  18.384  0.00  0.00    +0.000 A 
ATOM     17  S   UNL     1      52.164   3.512  17.968  0.00  0.00    +0.000 S 
ENDBRANCH  10  13
ENDBRANCH   8   9
ENDBRANCH   5   8
ENDBRANCH   1   2
BRANCH   1  19
ATOM     18  C   UNL     1      46.180   8.653  12.153  0.00  0.00    +0.000 C 
ATOM     19  N   UNL     1      45.979   7.214  12.032  0.00  0.00    +0.000 N 
ATOM     20  C   UNL     1      44.735   6.802  11.514  0.00  0.00    +0.000 C 
ATOM     21  O   UNL     1      43.876   7.616  11.188  0.00  0.00    +0.000 OA
BRANCH  20  22
ATOM     22  C   UNL     1      44.447   5.362  11.407  0.00  0.00    +0.000 A 
ATOM     23  C   UNL     1      43.669   4.653  12.306  0.00  0.00    +0.000 A 
ATOM     24  S   UNL     1      43.469   3.010  11.898  0.00  0.00    +0.000 S 
ATOM     25  C   UNL     1      44.295   3.224  10.428  0.00  0.00    +0.000 A 
ATOM     26  N   UNL     1      44.394   2.207   9.531  0.00  0.00    +0.000 NA
ATOM     27  C   UNL     1      44.993   2.528   8.433  0.00  0.00    +0.000 A 
ATOM     28  N   UNL     1      45.533   3.760   8.168  0.00  0.00    +0.000 N 
ATOM     29  C   UNL     1      45.567   4.782   9.095  0.00  0.00    +0.000 A 
ATOM     30  O   UNL     1      46.255   5.778   8.907  0.00  0.00    +0.000 OA
ATOM     31  C   UNL     1      44.800   4.505  10.297  0.00  0.00    +0.000 A 
ATOM     32  H   UNL     1      46.048   3.923   7.316  0.00  0.00    +0.000 HD
ENDBRANCH  20  22
ENDBRANCH   1  19
TORSDOF 6
ENDMDL
MODEL 2
REMARK VINA RESULT:    -7.608      3.365      8.397
REMARK INTER + INTRA:         -11.118
REMARK INTER:                  -9.938
REMARK INTRA:                  -1.181
REMARK UNBOUND:                -0.841
REMARK  Name = 
REMARK  7 active torsions:
REMARK  status: ('A' for Active; 'I' for Inactive)
REMARK    1  A    between atoms: C_1  and  N_2
REMARK    2  A    between atoms: N_2  and  C_3
REMARK    3  A    between atoms: C_3  and  C_4
REMARK    4  A    between atoms: C_7  and  C_8
REMARK    5  A    between atoms: C_8  and  N_9
REMARK    6  A    between atoms: C_10  and  C_12
REMARK    7  A    between atoms: C_19  and  C_21
REMARK                            x       y       z     vdW  Elec       q    Type
REMARK                         _______ _______ _______ _____ _____    ______ ____
ROOT
ATOM      1  C   UNL     1      47.460   7.754  13.805  0.00  0.00    +0.000 C 
ENDROOT
BRANCH   1   2
ATOM      2  C   UNL     1      46.652   6.644  13.183  0.00  0.00    +0.000 A 
ATOM      3  C   UNL     1      46.754   5.327  13.658  0.00  0.00    +0.000 A 
ATOM      4  C   UNL     1      45.996   4.304  13.083  0.00  0.00    +0.000 A 
ATOM      5  C   UNL     1      45.133   4.577  12.014  0.00  0.00    +0.000 A 
ATOM      6  C   UNL     1      45.007   5.900  11.566  0.00  0.00    +0.000 A 
ATOM      7  C   UNL     1      45.766   6.922  12.137  0.00  0.00    +0.000 A 
BRANCH   5   8
ATOM      8  C   UNL     1      44.367   3.471  11.339  0.00  0.00    +0.000 C 
BRANCH   8   9
ATOM      9  N   UNL     1      45.147   2.797  10.334  0.00  0.00    +0.000 N 
ATOM     10  C   UNL     1      45.087   3.179   9.010  0.00  0.00    +0.000 C 
ATOM     11  O   UNL     1      44.379   4.108   8.635  0.00  0.00    +0.000 OA
ATOM     12  H   UNL     1      45.807   2.082  10.613  0.00  0.00    +0.000 HD
BRANCH  10  13
ATOM     13  C   UNL     1      45.914   2.418   8.094  0.00  0.00    +0.000 A 
ATOM     14  C   UNL     1      46.187   1.064   8.129  0.00  0.00    +0.000 A 
ATOM     15  N   UNL     1      47.033   0.593   7.139  0.00  0.00    +0.000 NA
ATOM     16  C   UNL     1      47.394   1.591   6.369  0.00  0.00    +0.000 A 
ATOM     17  S   UNL     1      46.744   3.127   6.765  0.00  0.00    +0.000 S 
ENDBRANCH  10  13
ENDBRANCH   8   9
ENDBRANCH   5   8
ENDBRANCH   1   2
BRANCH   1  19
ATOM     18  C   UNL     1      49.596   7.362  12.507  0.00  0.00    +0.000 C 
ATOM     19  N   UNL     1      48.922   7.648  13.769  0.00  0.00    +0.000 N 
ATOM     20  C   UNL     1      49.747   8.067  14.832  0.00  0.00    +0.000 C 
ATOM     21  O   UNL     1      50.961   8.180  14.694  0.00  0.00    +0.000 OA
BRANCH  20  22
ATOM     22  C   UNL     1      49.138   8.330  16.147  0.00  0.00    +0.000 A 
ATOM     23  C   UNL     1      48.823   9.592  16.622  0.00  0.00    +0.000 A 
ATOM     24  S   UNL     1      48.081   9.584  18.157  0.00  0.00    +0.000 S 
ATOM     25  C   UNL     1      48.024   7.885  18.175  0.00  0.00    +0.000 A 
ATOM     26  N   UNL     1      47.406   7.221  19.187  0.00  0.00    +0.000 NA
ATOM     27  C   UNL     1      47.384   5.938  19.041  0.00  0.00    +0.000 A 
ATOM     28  N   UNL     1      47.956   5.260  17.994  0.00  0.00    +0.000 N 
ATOM     29  C   UNL     1      48.701   5.882  17.013  0.00  0.00    +0.000 A 
ATOM     30  O   UNL     1      49.383   5.228  16.233  0.00  0.00    +0.000 OA
ATOM     31  C   UNL     1      48.650   7.332  17.072  0.00  0.00    +0.000 A 
ATOM     32  H   UNL     1      47.962   4.252  17.976  0.00  0.00    +0.000 HD
ENDBRANCH  20  22
ENDBRANCH   1  19
TORSDOF 6
ENDMDL
MODEL 3
REMARK VINA RESULT:    -6.984      2.625      8.397
REMARK INTER + INTRA:         -10.275
REMARK INTER:                  -9.210
REMARK INTRA:                  -1.065
REMARK UNBOUND:                -0.841
REMARK  Name = 
REMARK  7 active torsions:
REMARK  status: ('A' for Active; 'I' for Inactive)
REMARK    1  A    between atoms: C_1  and  N_2
REMARK    2  A    between atoms: N_2  and  C_3
REMARK    3  A    between atoms: C_3  and  C_4
REMARK    4  A    between atoms: C_7  and  C_8
REMARK    5  A    between atoms: C_8  and  N_9
REMARK    6  A    between atoms: C_10  and  C_12
REMARK    7  A    between atoms: C_19  and  C_21
REMARK                            x       y       z     vdW  Elec       q    Type
REMARK                         _______ _______ _______ _____ _____    ______ ____
ROOT
ATOM      1  C   UNL     1      49.260   8.043  15.560  0.00  0.00    +0.000 C 
ENDROOT
BRANCH   1   2
ATOM      2  C   UNL     1      48.221   7.729  14.514  0.00  0.00    +0.000 A 
ATOM      3  C   UNL     1      47.441   8.749  13.946  0.00  0.00    +0.000 A 
ATOM      4  C   UNL     1      46.485   8.453  12.971  0.00  0.00    +0.000 A 
ATOM      5  C   UNL     1      46.284   7.130  12.556  0.00  0.00    +0.000 A 
ATOM      6  C   UNL     1      47.090   6.119  13.098  0.00  0.00    +0.000 A 
ATOM      7  C   UNL     1      48.042   6.413  14.075  0.00  0.00    +0.000 A 
BRANCH   5   8
ATOM      8  C   UNL     1      45.208   6.790  11.559  0.00  0.00    +0.000 C 
BRANCH   8   9
ATOM      9  N   UNL     1      45.564   5.668  10.730  0.00  0.00    +0.000 N 
ATOM     10  C   UNL     1      44.603   4.800  10.255  0.00  0.00    +0.000 C 
ATOM     11  O   UNL     1      43.412   4.950  10.508  0.00  0.00    +0.000 OA
ATOM     12  H   UNL     1      46.524   5.556  10.428  0.00  0.00    +0.000 HD
BRANCH  10  13
ATOM     13  C   UNL     1      45.088   3.705   9.437  0.00  0.00    +0.000 A 
ATOM     14  C   UNL     1      44.978   2.351   9.687  0.00  0.00    +0.000 A 
ATOM     15  N   UNL     1      45.554   1.514   8.745  0.00  0.00    +0.000 NA
ATOM     16  C   UNL     1      46.097   2.240   7.798  0.00  0.00    +0.000 A 
ATOM     17  S   UNL     1      45.942   3.939   7.962  0.00  0.00    +0.000 S 
ENDBRANCH  10  13
ENDBRANCH   8   9
ENDBRANCH   5   8
ENDBRANCH   1   2
BRANCH   1  19
ATOM     18  C   UNL     1      47.880   9.319  17.254  0.00  0.00    +0.000 C 
ATOM     19  N   UNL     1      48.811   8.240  16.943  0.00  0.00    +0.000 N 
ATOM     20  C   UNL     1      49.017   7.285  17.958  0.00  0.00    +0.000 C 
ATOM     21  O   UNL     1      48.443   7.366  19.039  0.00  0.00    +0.000 OA
BRANCH  20  22
ATOM     22  C   UNL     1      49.978   6.193  17.727  0.00  0.00    +0.000 A 
ATOM     23  C   UNL     1      51.344   6.302  17.927  0.00  0.00    +0.000 A 
ATOM     24  S   UNL     1      52.200   4.859  17.626  0.00  0.00    +0.000 S 
ATOM     25  C   UNL     1      50.758   4.000  17.358  0.00  0.00    +0.000 A 
ATOM     26  N   UNL     1      50.777   2.658  17.145  0.00  0.00    +0.000 NA
ATOM     27  C   UNL     1      49.606   2.127  17.019  0.00  0.00    +0.000 A 
ATOM     28  N   UNL     1      48.424   2.823  17.049  0.00  0.00    +0.000 N 
ATOM     29  C   UNL     1      48.363   4.199  17.136  0.00  0.00    +0.000 A 
ATOM     30  O   UNL     1      47.314   4.796  16.929  0.00  0.00    +0.000 OA
ATOM     31  C   UNL     1      49.647   4.824  17.401  0.00  0.00    +0.000 A 
ATOM     32  H   UNL     1      47.548   2.355  16.875  0.00  0.00    +0.000 HD
ENDBRANCH  20  22
ENDBRANCH   1  19
TORSDOF 6
ENDMDL
MODEL 4
REMARK VINA RESULT:    -6.832      2.514      8.325
REMARK INTER + INTRA:         -10.070
REMARK INTER:                  -8.688
REMARK INTRA:                  -1.382
REMARK UNBOUND:                -0.841
REMARK  Name = 
REMARK  7 active torsions:
REMARK  status: ('A' for Active; 'I' for Inactive)
REMARK    1  A    between atoms: C_1  and  N_2
REMARK    2  A    between atoms: N_2  and  C_3
REMARK    3  A    between atoms: C_3  and  C_4
REMARK    4  A    between atoms: C_7  and  C_8
REMARK    5  A    between atoms: C_8  and  N_9
REMARK    6  A    between atoms: C_10  and  C_12
REMARK    7  A    between atoms: C_19  and  C_21
REMARK                            x       y       z     vdW  Elec       q    Type
REMARK                         _______ _______ _______ _____ _____    ______ ____
ROOT
ATOM      1  C   UNL     1      49.317   8.180  17.326  0.00  0.00    +0.000 C 
ENDROOT
BRANCH   1   2
ATOM      2  C   UNL     1      48.800   8.035  15.918  0.00  0.00    +0.000 A 
ATOM      3  C   UNL     1      48.083   9.075  15.305  0.00  0.00    +0.000 A 
ATOM      4  C   UNL     1      47.613   8.938  13.996  0.00  0.00    +0.000 A 
ATOM      5  C   UNL     1      47.840   7.754  13.282  0.00  0.00    +0.000 A 
ATOM      6  C   UNL     1      48.588   6.733  13.885  0.00  0.00    +0.000 A 
ATOM      7  C   UNL     1      49.055   6.866  15.194  0.00  0.00    +0.000 A 
BRANCH   5   8
ATOM      8  C   UNL     1      47.277   7.567  11.899  0.00  0.00    +0.000 C 
BRANCH   8   9
ATOM      9  N   UNL     1      46.531   6.343  11.771  0.00  0.00    +0.000 N 
ATOM     10  C   UNL     1      45.160   6.356  11.620  0.00  0.00    +0.000 C 
ATOM     11  O   UNL     1      44.522   7.404  11.580  0.00  0.00    +0.000 OA
ATOM     12  H   UNL     1      47.026   5.462  11.715  0.00  0.00    +0.000 HD
BRANCH  10  13
ATOM     13  C   UNL     1      44.523   5.058  11.510  0.00  0.00    +0.000 A 
ATOM     14  C   UNL     1      44.466   4.237  10.401  0.00  0.00    +0.000 A 
ATOM     15  N   UNL     1      43.769   3.051  10.562  0.00  0.00    +0.000 NA
ATOM     16  C   UNL     1      43.305   2.987  11.787  0.00  0.00    +0.000 A 
ATOM     17  S   UNL     1      43.678   4.312  12.809  0.00  0.00    +0.000 S 
ENDBRANCH  10  13
ENDBRANCH   8   9
ENDBRANCH   5   8
ENDBRANCH   1   2
BRANCH   1  19
ATOM     18  C   UNL     1      47.369   8.692  18.858  0.00  0.00    +0.000 C 
ATOM     19  N   UNL     1      48.434   7.790  18.431  0.00  0.00    +0.000 N 
ATOM     20  C   UNL     1      48.378   6.478  18.940  0.00  0.00    +0.000 C 
ATOM     21  O   UNL     1      47.482   6.124  19.700  0.00  0.00    +0.000 OA
BRANCH  20  22
ATOM     22  C   UNL     1      49.446   5.528  18.584  0.00  0.00    +0.000 A 
ATOM     23  C   UNL     1      50.730   5.570  19.101  0.00  0.00    +0.000 A 
ATOM     24  S   UNL     1      51.737   4.311  18.544  0.00  0.00    +0.000 S 
ATOM     25  C   UNL     1      50.448   3.584  17.708  0.00  0.00    +0.000 A 
ATOM     26  N   UNL     1      50.611   2.387  17.085  0.00  0.00    +0.000 NA
ATOM     27  C   UNL     1      49.535   1.923  16.543  0.00  0.00    +0.000 A 
ATOM     28  N   UNL     1      48.322   2.564  16.539  0.00  0.00    +0.000 N 
ATOM     29  C   UNL     1      48.141   3.834  17.048  0.00  0.00    +0.000 A 
ATOM     30  O   UNL     1      47.113   4.461  16.822  0.00  0.00    +0.000 OA
ATOM     31  C   UNL     1      49.293   4.342  17.772  0.00  0.00    +0.000 A 
ATOM     32  H   UNL     1      47.537   2.176  16.038  0.00  0.00    +0.000 HD
ENDBRANCH  20  22
ENDBRANCH   1  19
TORSDOF 6
ENDMDL
MODEL 5
REMARK VINA RESULT:    -6.818      1.722      2.312
REMARK INTER + INTRA:         -10.051
REMARK INTER:                  -9.330
REMARK INTRA:                  -0.721
REMARK UNBOUND:                -0.841
REMARK  Name = 
REMARK  7 active torsions:
REMARK  status: ('A' for Active; 'I' for Inactive)
REMARK    1  A    between atoms: C_1  and  N_2
REMARK    2  A    between atoms: N_2  and  C_3
REMARK    3  A    between atoms: C_3  and  C_4
REMARK    4  A    between atoms: C_7  and  C_8
REMARK    5  A    between atoms: C_8  and  N_9
REMARK    6  A    between atoms: C_10  and  C_12
REMARK    7  A    between atoms: C_19  and  C_21
REMARK                            x       y       z     vdW  Elec       q    Type
REMARK                         _______ _______ _______ _____ _____    ______ ____
ROOT
ATOM      1  C   UNL     1      47.146   6.058  12.727  0.00  0.00    +0.000 C 
ENDROOT
BRANCH   1   2
ATOM      2  C   UNL     1      47.571   5.672  14.121  0.00  0.00    +0.000 A 
ATOM      3  C   UNL     1      47.074   4.507  14.727  0.00  0.00    +0.000 A 
ATOM      4  C   UNL     1      47.478   4.150  16.016  0.00  0.00    +0.000 A 
ATOM      5  C   UNL     1      48.375   4.958  16.726  0.00  0.00    +0.000 A 
ATOM      6  C   UNL     1      48.897   6.100  16.103  0.00  0.00    +0.000 A 
ATOM      7  C   UNL     1      48.491   6.461  14.818  0.00  0.00    +0.000 A 
BRANCH   5   8
ATOM      8  C   UNL     1      48.761   4.622  18.142  0.00  0.00    +0.000 C 
BRANCH   8   9
ATOM      9  N   UNL     1      49.758   3.585  18.207  0.00  0.00    +0.000 N 
ATOM     10  C   UNL     1      51.099   3.877  18.071  0.00  0.00    +0.000 C 
ATOM     11  O   UNL     1      51.499   5.024  17.899  0.00  0.00    +0.000 OA
ATOM     12  H   UNL     1      49.478   2.639  18.432  0.00  0.00    +0.000 HD
BRANCH  10  13
ATOM     13  C   UNL     1      52.003   2.745  18.148  0.00  0.00    +0.000 A 
ATOM     14  C   UNL     1      51.796   1.465  17.671  0.00  0.00    +0.000 A 
ATOM     15  N   UNL     1      52.822   0.562  17.899  0.00  0.00    +0.000 NA
ATOM     16  C   UNL     1      53.791   1.165  18.545  0.00  0.00    +0.000 A 
ATOM     17  S   UNL     1      53.546   2.823  18.904  0.00  0.00    +0.000 S 
ENDBRANCH  10  13
ENDBRANCH   8   9
ENDBRANCH   5   8
ENDBRANCH   1   2
BRANCH   1  19
ATOM     18  C   UNL     1      46.336   8.383  13.311  0.00  0.00    +0.000 C 
ATOM     19  N   UNL     1      46.160   7.134  12.578  0.00  0.00    +0.000 N 
ATOM     20  C   UNL     1      45.183   7.142  11.563  0.00  0.00    +0.000 C 
ATOM     21  O   UNL     1      44.522   8.147  11.319  0.00  0.00    +0.000 OA
BRANCH  20  22
ATOM     22  C   UNL     1      44.922   5.902  10.814  0.00  0.00    +0.000 A 
ATOM     23  C   UNL     1      45.396   5.647   9.538  0.00  0.00    +0.000 A 
ATOM     24  S   UNL     1      44.975   4.106   8.942  0.00  0.00    +0.000 S 
ATOM     25  C   UNL     1      44.270   3.671  10.426  0.00  0.00    +0.000 A 
ATOM     26  N   UNL     1      43.796   2.413  10.629  0.00  0.00    +0.000 NA
ATOM     27  C   UNL     1      43.344   2.204  11.820  0.00  0.00    +0.000 A 
ATOM     28  N   UNL     1      43.291   3.149  12.813  0.00  0.00    +0.000 N 
ATOM     29  C   UNL     1      43.643   4.469  12.615  0.00  0.00    +0.000 A 
ATOM     30  O   UNL     1      43.366   5.325  13.447  0.00  0.00    +0.000 OA
ATOM     31  C   UNL     1      44.268   4.720  11.328  0.00  0.00    +0.000 A 
ATOM     32  H   UNL     1      42.862   2.938  13.701  0.00  0.00    +0.000 HD
ENDBRANCH  20  22
ENDBRANCH   1  19
TORSDOF 6
ENDMDL
MODEL 6
REMARK VINA RESULT:    -6.783      2.776      8.369
REMARK INTER + INTRA:         -10.003
REMARK INTER:                  -9.006
REMARK INTRA:                  -0.997
REMARK UNBOUND:                -0.841
REMARK  Name = 
REMARK  7 active torsions:
REMARK  status: ('A' for Active; 'I' for Inactive)
REMARK    1  A    between atoms: C_1  and  N_2
REMARK    2  A    between atoms: N_2  and  C_3
REMARK    3  A    between atoms: C_3  and  C_4
REMARK    4  A    between atoms: C_7  and  C_8
REMARK    5  A    between atoms: C_8  and  N_9
REMARK    6  A    between atoms: C_10  and  C_12
REMARK    7  A    between atoms: C_19  and  C_21
REMARK                            x       y       z     vdW  Elec       q    Type
REMARK                         _______ _______ _______ _____ _____    ______ ____
ROOT
ATOM      1  C   UNL     1      49.245   7.192  15.524  0.00  0.00    +0.000 C 
ENDROOT
BRANCH   1   2
ATOM      2  C   UNL     1      48.206   7.024  14.444  0.00  0.00    +0.000 A 
ATOM      3  C   UNL     1      47.705   5.753  14.120  0.00  0.00    +0.000 A 
ATOM      4  C   UNL     1      46.736   5.605  13.124  0.00  0.00    +0.000 A 
ATOM      5  C   UNL     1      46.260   6.723  12.427  0.00  0.00    +0.000 A 
ATOM      6  C   UNL     1      46.736   7.994  12.779  0.00  0.00    +0.000 A 
ATOM      7  C   UNL     1      47.707   8.143  13.770  0.00  0.00    +0.000 A 
BRANCH   5   8
ATOM      8  C   UNL     1      45.270   6.567  11.303  0.00  0.00    +0.000 C 
BRANCH   8   9
ATOM      9  N   UNL     1      45.650   5.534  10.377  0.00  0.00    +0.000 N 
ATOM     10  C   UNL     1      44.791   4.499  10.071  0.00  0.00    +0.000 C 
ATOM     11  O   UNL     1      43.671   4.419  10.566  0.00  0.00    +0.000 OA
ATOM     12  H   UNL     1      46.531   5.606   9.883  0.00  0.00    +0.000 HD
BRANCH  10  13
ATOM     13  C   UNL     1      45.293   3.516   9.131  0.00  0.00    +0.000 A 
ATOM     14  C   UNL     1      45.204   2.141   9.217  0.00  0.00    +0.000 A 
ATOM     15  N   UNL     1      45.793   1.430   8.184  0.00  0.00    +0.000 NA
ATOM     16  C   UNL     1      46.324   2.272   7.330  0.00  0.00    +0.000 A 
ATOM     17  S   UNL     1      46.143   3.937   7.695  0.00  0.00    +0.000 S 
ENDBRANCH  10  13
ENDBRANCH   8   9
ENDBRANCH   5   8
ENDBRANCH   1   2
BRANCH   1  19
ATOM     18  C   UNL     1      48.704   9.153  17.028  0.00  0.00    +0.000 C 
ATOM     19  N   UNL     1      48.812   7.713  16.825  0.00  0.00    +0.000 N 
ATOM     20  C   UNL     1      48.236   6.900  17.822  0.00  0.00    +0.000 C 
ATOM     21  O   UNL     1      47.680   7.387  18.802  0.00  0.00    +0.000 OA
BRANCH  20  22
ATOM     22  C   UNL     1      48.348   5.437  17.703  0.00  0.00    +0.000 A 
ATOM     23  C   UNL     1      47.296   4.600  17.371  0.00  0.00    +0.000 A 
ATOM     24  S   UNL     1      47.735   2.956  17.258  0.00  0.00    +0.000 S 
ATOM     25  C   UNL     1      49.376   3.326  17.506  0.00  0.00    +0.000 A 
ATOM     26  N   UNL     1      50.326   2.357  17.427  0.00  0.00    +0.000 NA
ATOM     27  C   UNL     1      51.534   2.790  17.575  0.00  0.00    +0.000 A 
ATOM     28  N   UNL     1      51.872   4.095  17.831  0.00  0.00    +0.000 N 
ATOM     29  C   UNL     1      50.935   5.086  18.044  0.00  0.00    +0.000 A 
ATOM     30  O   UNL     1      51.266   6.176  18.494  0.00  0.00    +0.000 OA
ATOM     31  C   UNL     1      49.571   4.670  17.769  0.00  0.00    +0.000 A 
ATOM     32  H   UNL     1      52.831   4.353  18.004  0.00  0.00    +0.000 HD
ENDBRANCH  20  22
ENDBRANCH   1  19
TORSDOF 6
ENDMDL
MODEL 7
REMARK VINA RESULT:    -6.254      3.362      8.435
REMARK INTER + INTRA:          -9.289
REMARK INTER:                  -7.609
REMARK INTRA:                  -1.680
REMARK UNBOUND:                -0.841
REMARK  Name = 
REMARK  7 active torsions:
REMARK  status: ('A' for Active; 'I' for Inactive)
REMARK    1  A    between atoms: C_1  and  N_2
REMARK    2  A    between atoms: N_2  and  C_3
REMARK    3  A    between atoms: C_3  and  C_4
REMARK    4  A    between atoms: C_7  and  C_8
REMARK    5  A    between atoms: C_8  and  N_9
REMARK    6  A    between atoms: C_10  and  C_12
REMARK    7  A    between atoms: C_19  and  C_21
REMARK                            x       y       z     vdW  Elec       q    Type
REMARK                         _______ _______ _______ _____ _____    ______ ____
ROOT
ATOM      1  C   UNL     1      51.983   7.418  18.145  0.00  0.00    +0.000 C 
ENDROOT
BRANCH   1   2
ATOM      2  C   UNL     1      50.943   7.736  17.101  0.00  0.00    +0.000 A 
ATOM      3  C   UNL     1      50.871   6.996  15.910  0.00  0.00    +0.000 A 
ATOM      4  C   UNL     1      49.900   7.289  14.949  0.00  0.00    +0.000 A 
ATOM      5  C   UNL     1      48.992   8.337  15.157  0.00  0.00    +0.000 A 
ATOM      6  C   UNL     1      49.044   9.049  16.364  0.00  0.00    +0.000 A 
ATOM      7  C   UNL     1      50.016   8.759  17.322  0.00  0.00    +0.000 A 
BRANCH   5   8
ATOM      8  C   UNL     1      47.989   8.709  14.099  0.00  0.00    +0.000 C 
BRANCH   8   9
ATOM      9  N   UNL     1      46.948   7.724  13.960  0.00  0.00    +0.000 N 
ATOM     10  C   UNL     1      46.841   6.956  12.819  0.00  0.00    +0.000 C 
ATOM     11  O   UNL     1      47.627   7.072  11.883  0.00  0.00    +0.000 OA
ATOM     12  H   UNL     1      46.331   7.537  14.740  0.00  0.00    +0.000 HD
BRANCH  10  13
ATOM     13  C   UNL     1      45.747   6.005  12.797  0.00  0.00    +0.000 A 
ATOM     14  C   UNL     1      45.628   4.837  13.524  0.00  0.00    +0.000 A 
ATOM     15  N   UNL     1      44.481   4.096  13.295  0.00  0.00    +0.000 NA
ATOM     16  C   UNL     1      43.746   4.706  12.395  0.00  0.00    +0.000 A 
ATOM     17  S   UNL     1      44.364   6.186  11.790  0.00  0.00    +0.000 S 
ENDBRANCH  10  13
ENDBRANCH   8   9
ENDBRANCH   5   8
ENDBRANCH   1   2
BRANCH   1  19
ATOM     18  C   UNL     1      51.689   8.170  20.543  0.00  0.00    +0.000 C 
ATOM     19  N   UNL     1      51.529   7.149  19.514  0.00  0.00    +0.000 N 
ATOM     20  C   UNL     1      50.703   6.057  19.845  0.00  0.00    +0.000 C 
ATOM     21  O   UNL     1      50.155   5.978  20.941  0.00  0.00    +0.000 OA
BRANCH  20  22
ATOM     22  C   UNL     1      50.534   4.967  18.869  0.00  0.00    +0.000 A 
ATOM     23  C   UNL     1      51.472   3.975  18.638  0.00  0.00    +0.000 A 
ATOM     24  S   UNL     1      50.980   2.818  17.487  0.00  0.00    +0.000 S 
ATOM     25  C   UNL     1      49.438   3.522  17.366  0.00  0.00    +0.000 A 
ATOM     26  N   UNL     1      48.469   2.946  16.606  0.00  0.00    +0.000 NA
ATOM     27  C   UNL     1      47.330   3.553  16.655  0.00  0.00    +0.000 A 
ATOM     28  N   UNL     1      47.085   4.701  17.364  0.00  0.00    +0.000 N 
ATOM     29  C   UNL     1      48.068   5.388  18.046  0.00  0.00    +0.000 A 
ATOM     30  O   UNL     1      47.866   6.519  18.470  0.00  0.00    +0.000 OA
ATOM     31  C   UNL     1      49.334   4.678  18.117  0.00  0.00    +0.000 A 
ATOM     32  H   UNL     1      46.190   5.162  17.304  0.00  0.00    +0.000 HD
ENDBRANCH  20  22
ENDBRANCH   1  19
TORSDOF 6
ENDMDL
MODEL 8
REMARK VINA RESULT:    -5.838      3.564      4.457
REMARK INTER + INTRA:          -8.727
REMARK INTER:                  -7.618
REMARK INTRA:                  -1.109
REMARK UNBOUND:                -0.841
REMARK  Name = 
REMARK  7 active torsions:
REMARK  status: ('A' for Active; 'I' for Inactive)
REMARK    1  A    between atoms: C_1  and  N_2
REMARK    2  A    between atoms: N_2  and  C_3
REMARK    3  A    between atoms: C_3  and  C_4
REMARK    4  A    between atoms: C_7  and  C_8
REMARK    5  A    between atoms: C_8  and  N_9
REMARK    6  A    between atoms: C_10  and  C_12
REMARK    7  A    between atoms: C_19  and  C_21
REMARK                            x       y       z     vdW  Elec       q    Type
REMARK                         _______ _______ _______ _____ _____    ______ ____
ROOT
ATOM      1  C   UNL     1      45.517   3.948  12.604  0.00  0.00    +0.000 C 
ENDROOT
BRANCH   1   2
ATOM      2  C   UNL     1      46.524   4.841  13.284  0.00  0.00    +0.000 A 
ATOM      3  C   UNL     1      47.128   5.902  12.590  0.00  0.00    +0.000 A 
ATOM      4  C   UNL     1      48.054   6.732  13.227  0.00  0.00    +0.000 A 
ATOM      5  C   UNL     1      48.403   6.506  14.565  0.00  0.00    +0.000 A 
ATOM      6  C   UNL     1      47.771   5.468  15.265  0.00  0.00    +0.000 A 
ATOM      7  C   UNL     1      46.849   4.636  14.628  0.00  0.00    +0.000 A 
BRANCH   5   8
ATOM      8  C   UNL     1      49.453   7.347  15.241  0.00  0.00    +0.000 C 
BRANCH   8   9
ATOM      9  N   UNL     1      49.295   7.377  16.671  0.00  0.00    +0.000 N 
ATOM     10  C   UNL     1      48.656   8.427  17.296  0.00  0.00    +0.000 C 
ATOM     11  O   UNL     1      48.191   9.371  16.664  0.00  0.00    +0.000 OA
ATOM     12  H   UNL     1      49.589   6.580  17.222  0.00  0.00    +0.000 HD
BRANCH  10  13
ATOM     13  C   UNL     1      48.567   8.344  18.741  0.00  0.00    +0.000 A 
ATOM     14  C   UNL     1      47.459   8.573  19.533  0.00  0.00    +0.000 A 
ATOM     15  N   UNL     1      47.656   8.446  20.899  0.00  0.00    +0.000 NA
ATOM     16  C   UNL     1      48.908   8.127  21.126  0.00  0.00    +0.000 A 
ATOM     17  S   UNL     1      49.906   7.948  19.744  0.00  0.00    +0.000 S 
ENDBRANCH  10  13
ENDBRANCH   8   9
ENDBRANCH   5   8
ENDBRANCH   1   2
BRANCH   1  19
ATOM     18  C   UNL     1      43.592   5.567  12.881  0.00  0.00    +0.000 C 
ATOM     19  N   UNL     1      44.289   4.561  12.087  0.00  0.00    +0.000 N 
ATOM     20  C   UNL     1      43.874   4.431  10.746  0.00  0.00    +0.000 C 
ATOM     21  O   UNL     1      42.976   5.129  10.284  0.00  0.00    +0.000 OA
BRANCH  20  22
ATOM     22  C   UNL     1      44.505   3.404   9.900  0.00  0.00    +0.000 A 
ATOM     23  C   UNL     1      44.117   2.076   9.867  0.00  0.00    +0.000 A 
ATOM     24  S   UNL     1      44.995   1.130   8.754  0.00  0.00    +0.000 S 
ATOM     25  C   UNL     1      45.825   2.495   8.173  0.00  0.00    +0.000 A 
ATOM     26  N   UNL     1      46.677   2.395   7.118  0.00  0.00    +0.000 NA
ATOM     27  C   UNL     1      47.189   3.520   6.745  0.00  0.00    +0.000 A 
ATOM     28  N   UNL     1      46.955   4.727   7.354  0.00  0.00    +0.000 N 
ATOM     29  C   UNL     1      46.199   4.856   8.501  0.00  0.00    +0.000 A 
ATOM     30  O   UNL     1      46.203   5.900   9.141  0.00  0.00    +0.000 OA
ATOM     31  C   UNL     1      45.508   3.637   8.885  0.00  0.00    +0.000 A 
ATOM     32  H   UNL     1      47.441   5.557   7.053  0.00  0.00    +0.000 HD
ENDBRANCH  20  22
ENDBRANCH   1  19
TORSDOF 6
ENDMDL
MODEL 9
REMARK VINA RESULT:    -5.800      2.405      3.005
REMARK INTER + INTRA:          -8.676
REMARK INTER:                  -7.684
REMARK INTRA:                  -0.992
REMARK UNBOUND:                -0.841
REMARK  Name = 
REMARK  7 active torsions:
REMARK  status: ('A' for Active; 'I' for Inactive)
REMARK    1  A    between atoms: C_1  and  N_2
REMARK    2  A    between atoms: N_2  and  C_3
REMARK    3  A    between atoms: C_3  and  C_4
REMARK    4  A    between atoms: C_7  and  C_8
REMARK    5  A    between atoms: C_8  and  N_9
REMARK    6  A    between atoms: C_10  and  C_12
REMARK    7  A    between atoms: C_19  and  C_21
REMARK                            x       y       z     vdW  Elec       q    Type
REMARK                         _______ _______ _______ _____ _____    ______ ____
ROOT
ATOM      1  C   UNL     1      45.500   3.899  12.615  0.00  0.00    +0.000 C 
ENDROOT
BRANCH   1   2
ATOM      2  C   UNL     1      46.482   4.757  13.370  0.00  0.00    +0.000 A 
ATOM      3  C   UNL     1      47.052   5.893  12.773  0.00  0.00    +0.000 A 
ATOM      4  C   UNL     1      47.956   6.690  13.481  0.00  0.00    +0.000 A 
ATOM      5  C   UNL     1      48.316   6.357  14.793  0.00  0.00    +0.000 A 
ATOM      6  C   UNL     1      47.717   5.243  15.398  0.00  0.00    +0.000 A 
ATOM      7  C   UNL     1      46.817   4.444  14.691  0.00  0.00    +0.000 A 
BRANCH   5   8
ATOM      8  C   UNL     1      49.342   7.166  15.540  0.00  0.00    +0.000 C 
BRANCH   8   9
ATOM      9  N   UNL     1      50.358   6.342  16.142  0.00  0.00    +0.000 N 
ATOM     10  C   UNL     1      50.484   6.253  17.512  0.00  0.00    +0.000 C 
ATOM     11  O   UNL     1      49.738   6.862  18.273  0.00  0.00    +0.000 OA
ATOM     12  H   UNL     1      50.940   5.759  15.553  0.00  0.00    +0.000 HD
BRANCH  10  13
ATOM     13  C   UNL     1      51.550   5.397  17.995  0.00  0.00    +0.000 A 
ATOM     14  C   UNL     1      51.496   4.480  19.027  0.00  0.00    +0.000 A 
ATOM     15  N   UNL     1      52.674   3.804  19.298  0.00  0.00    +0.000 NA
ATOM     16  C   UNL     1      53.607   4.217  18.474  0.00  0.00    +0.000 A 
ATOM     17  S   UNL     1      53.138   5.408  17.334  0.00  0.00    +0.000 S 
ENDBRANCH  10  13
ENDBRANCH   8   9
ENDBRANCH   5   8
ENDBRANCH   1   2
BRANCH   1  19
ATOM     18  C   UNL     1      43.598   5.545  12.887  0.00  0.00    +0.000 C 
ATOM     19  N   UNL     1      44.287   4.535  12.091  0.00  0.00    +0.000 N 
ATOM     20  C   UNL     1      43.884   4.423  10.745  0.00  0.00    +0.000 C 
ATOM     21  O   UNL     1      43.002   5.138  10.280  0.00  0.00    +0.000 OA
BRANCH  20  22
ATOM     22  C   UNL     1      44.506   3.393   9.897  0.00  0.00    +0.000 A 
ATOM     23  C   UNL     1      44.101   2.069   9.854  0.00  0.00    +0.000 A 
ATOM     24  S   UNL     1      44.974   1.118   8.740  0.00  0.00    +0.000 S 
ATOM     25  C   UNL     1      45.825   2.476   8.173  0.00  0.00    +0.000 A 
ATOM     26  N   UNL     1      46.683   2.371   7.123  0.00  0.00    +0.000 NA
ATOM     27  C   UNL     1      47.212   3.492   6.760  0.00  0.00    +0.000 A 
ATOM     28  N   UNL     1      46.990   4.698   7.374  0.00  0.00    +0.000 N 
ATOM     29  C   UNL     1      46.228   4.830   8.518  0.00  0.00    +0.000 A 
ATOM     30  O   UNL     1      46.241   5.870   9.164  0.00  0.00    +0.000 OA
ATOM     31  C   UNL     1      45.518   3.619   8.890  0.00  0.00    +0.000 A 
ATOM     32  H   UNL     1      47.489   5.523   7.082  0.00  0.00    +0.000 HD
ENDBRANCH  20  22
ENDBRANCH   1  19
TORSDOF 6
ENDMDL
