MODEL 1
REMARK VINA RESULT:    -8.065      0.000      0.000
REMARK INTER + INTRA:         -11.648
REMARK INTER:                 -10.422
REMARK INTRA:                  -1.226
REMARK UNBOUND:                -1.226
REMARK  Name = 
REMARK  7 active torsions:
REMARK  status: ('A' for Active; 'I' for Inactive)
REMARK    1  A    between atoms: C_1  and  C_2
REMARK    2  A    between atoms: C_5  and  C_6
REMARK    3  A    between atoms: C_6  and  C_7
REMARK    4  A    between atoms: C_10  and  C_11
REMARK    5  A    between atoms: C_11  and  N_12
REMARK    6  A    between atoms: C_13  and  C_15
REMARK    7  A    between atoms: N_21  and  C_22
REMARK                            x       y       z     vdW  Elec       q    Type
REMARK                         _______ _______ _______ _____ _____    ______ ____
ROOT
ATOM      1  C   UNL     1      47.339   8.484  13.394  0.00  0.00    +0.000 C 
ENDROOT
BRANCH   1   5
ATOM      2  C   UNL     1      44.834   5.601  11.344  0.00  0.00    +0.000 A 
ATOM      3  C   UNL     1      44.480   6.957  11.379  0.00  0.00    +0.000 A 
ATOM      4  C   UNL     1      45.274   7.883  12.062  0.00  0.00    +0.000 A 
ATOM      5  C   UNL     1      46.448   7.476  12.710  0.00  0.00    +0.000 A 
ATOM      6  C   UNL     1      46.766   6.114  12.731  0.00  0.00    +0.000 A 
ATOM      7  C   UNL     1      45.972   5.186  12.048  0.00  0.00    +0.000 A 
BRANCH   2   8
ATOM      8  C   UNL     1      44.032   4.616  10.523  0.00  0.00    +0.000 C 
BRANCH   8  13
ATOM      9  C   UNL     1      47.130   1.398   6.871  0.00  0.00    +0.000 C 
ATOM     10  C   UNL     1      46.343   2.278   7.796  0.00  0.00    +0.000 A 
ATOM     11  C   UNL     1      46.315   3.657   7.622  0.00  0.00    +0.000 A 
ATOM     12  C   UNL     1      45.568   4.433   8.508  0.00  0.00    +0.000 A 
ATOM     13  C   UNL     1      44.866   3.823   9.550  0.00  0.00    +0.000 A 
ATOM     14  C   UNL     1      44.951   2.437   9.637  0.00  0.00    +0.000 A 
ATOM     15  N   UNL     1      45.673   1.661   8.793  0.00  0.00    +0.000 NA
ENDBRANCH   8  13
ENDBRANCH   2   8
ENDBRANCH   1   5
BRANCH   1  16
ATOM     16  N   UNL     1      47.689   8.042  14.716  0.00  0.00    +0.000 N 
ATOM     17  C   UNL     1      48.993   7.818  15.086  0.00  0.00    +0.000 C 
ATOM     18  O   UNL     1      49.919   7.830  14.278  0.00  0.00    +0.000 OA
ATOM     19  H   UNL     1      47.013   8.257  15.438  0.00  0.00    +0.000 HD
BRANCH  17  20
ATOM     20  C   UNL     1      49.205   7.496  16.504  0.00  0.00    +0.000 A 
ATOM     21  C   UNL     1      49.773   8.434  17.357  0.00  0.00    +0.000 A 
ATOM     22  S   UNL     1      50.010   7.854  18.944  0.00  0.00    +0.000 S 
ATOM     23  C   UNL     1      49.312   6.349  18.561  0.00  0.00    +0.000 A 
ATOM     24  N   UNL     1      49.197   5.370  19.495  0.00  0.00    +0.000 NA
ATOM     25  C   UNL     1      48.627   4.289  19.074  0.00  0.00    +0.000 A 
ATOM     26  N   UNL     1      48.147   4.083  17.796  0.00  0.00    +0.000 N 
ATOM     27  C   UNL     1      47.520   2.832  17.425  0.00  0.00    +0.000 C 
ATOM     28  C   UNL     1      48.249   5.065  16.817  0.00  0.00    +0.000 A 
ATOM     29  O   UNL     1      47.826   4.900  15.673  0.00  0.00    +0.000 OA
ATOM     30  C   UNL     1      48.904   6.289  17.244  0.00  0.00    +0.000 A 
ENDBRANCH  17  20
ENDBRANCH   1  16
TORSDOF 5
ENDMDL
MODEL 2
REMARK VINA RESULT:    -7.751      1.675      2.364
REMARK INTER + INTRA:         -11.243
REMARK INTER:                 -10.086
REMARK INTRA:                  -1.156
REMARK UNBOUND:                -1.226
REMARK  Name = 
REMARK  7 active torsions:
REMARK  status: ('A' for Active; 'I' for Inactive)
REMARK    1  A    between atoms: C_1  and  C_2
REMARK    2  A    between atoms: C_5  and  C_6
REMARK    3  A    between atoms: C_6  and  C_7
REMARK    4  A    between atoms: C_10  and  C_11
REMARK    5  A    between atoms: C_11  and  N_12
REMARK    6  A    between atoms: C_13  and  C_15
REMARK    7  A    between atoms: N_21  and  C_22
REMARK                            x       y       z     vdW  Elec       q    Type
REMARK                         _______ _______ _______ _____ _____    ______ ____
ROOT
ATOM      1  C   UNL     1      47.690   7.850  13.777  0.00  0.00    +0.000 C 
ENDROOT
BRANCH   1   5
ATOM      2  C   UNL     1      44.982   5.537  11.307  0.00  0.00    +0.000 A 
ATOM      3  C   UNL     1      44.987   6.936  11.243  0.00  0.00    +0.000 A 
ATOM      4  C   UNL     1      45.842   7.684  12.057  0.00  0.00    +0.000 A 
ATOM      5  C   UNL     1      46.723   7.047  12.942  0.00  0.00    +0.000 A 
ATOM      6  C   UNL     1      46.671   5.653  13.054  0.00  0.00    +0.000 A 
ATOM      7  C   UNL     1      45.816   4.904  12.239  0.00  0.00    +0.000 A 
BRANCH   2   8
ATOM      8  C   UNL     1      44.131   4.724  10.356  0.00  0.00    +0.000 C 
BRANCH   8  13
ATOM      9  C   UNL     1      47.097   1.318   6.767  0.00  0.00    +0.000 C 
ATOM     10  C   UNL     1      46.348   2.245   7.676  0.00  0.00    +0.000 A 
ATOM     11  C   UNL     1      46.414   3.623   7.506  0.00  0.00    +0.000 A 
ATOM     12  C   UNL     1      45.699   4.445   8.377  0.00  0.00    +0.000 A 
ATOM     13  C   UNL     1      44.934   3.880   9.400  0.00  0.00    +0.000 A 
ATOM     14  C   UNL     1      44.926   2.491   9.484  0.00  0.00    +0.000 A 
ATOM     15  N   UNL     1      45.616   1.672   8.655  0.00  0.00    +0.000 NA
ENDBRANCH   8  13
ENDBRANCH   2   8
ENDBRANCH   1   5
BRANCH   1  16
ATOM     16  N   UNL     1      47.852   7.261  15.079  0.00  0.00    +0.000 N 
ATOM     17  C   UNL     1      49.085   6.900  15.566  0.00  0.00    +0.000 C 
ATOM     18  O   UNL     1      50.098   6.912  14.870  0.00  0.00    +0.000 OA
ATOM     19  H   UNL     1      47.112   7.462  15.740  0.00  0.00    +0.000 HD
BRANCH  17  20
ATOM     20  C   UNL     1      49.106   6.433  16.959  0.00  0.00    +0.000 A 
ATOM     21  C   UNL     1      49.696   5.217  17.279  0.00  0.00    +0.000 A 
ATOM     22  S   UNL     1      49.557   4.809  18.930  0.00  0.00    +0.000 S 
ATOM     23  C   UNL     1      48.752   6.267  19.283  0.00  0.00    +0.000 A 
ATOM     24  N   UNL     1      48.348   6.559  20.546  0.00  0.00    +0.000 NA
ATOM     25  C   UNL     1      47.772   7.709  20.675  0.00  0.00    +0.000 A 
ATOM     26  N   UNL     1      47.558   8.615  19.657  0.00  0.00    +0.000 N 
ATOM     27  C   UNL     1      46.903   9.882  19.907  0.00  0.00    +0.000 C 
ATOM     28  C   UNL     1      47.959   8.348  18.352  0.00  0.00    +0.000 A 
ATOM     29  O   UNL     1      47.778   9.143  17.431  0.00  0.00    +0.000 OA
ATOM     30  C   UNL     1      48.593   7.054  18.161  0.00  0.00    +0.000 A 
ENDBRANCH  17  20
ENDBRANCH   1  16
TORSDOF 5
ENDMDL
MODEL 3
REMARK VINA RESULT:    -7.359      1.982      3.851
REMARK INTER + INTRA:         -10.736
REMARK INTER:                  -9.680
REMARK INTRA:                  -1.056
REMARK UNBOUND:                -1.226
REMARK  Name = 
REMARK  7 active torsions:
REMARK  status: ('A' for Active; 'I' for Inactive)
REMARK    1  A    between atoms: C_1  and  C_2
REMARK    2  A    between atoms: C_5  and  C_6
REMARK    3  A    between atoms: C_6  and  C_7
REMARK    4  A    between atoms: C_10  and  C_11
REMARK    5  A    between atoms: C_11  and  N_12
REMARK    6  A    between atoms: C_13  and  C_15
REMARK    7  A    between atoms: N_21  and  C_22
REMARK                            x       y       z     vdW  Elec       q    Type
REMARK                         _______ _______ _______ _____ _____    ______ ____
ROOT
ATOM      1  C   UNL     1      47.118   4.486  15.179  0.00  0.00    +0.000 C 
ENDROOT
BRANCH   1   5
ATOM      2  C   UNL     1      44.983   4.449  11.408  0.00  0.00    +0.000 A 
ATOM      3  C   UNL     1      45.267   5.659  12.054  0.00  0.00    +0.000 A 
ATOM      4  C   UNL     1      45.933   5.670  13.283  0.00  0.00    +0.000 A 
ATOM      5  C   UNL     1      46.344   4.473  13.884  0.00  0.00    +0.000 A 
ATOM      6  C   UNL     1      46.002   3.262  13.270  0.00  0.00    +0.000 A 
ATOM      7  C   UNL     1      45.336   3.250  12.040  0.00  0.00    +0.000 A 
BRANCH   2   8
ATOM      8  C   UNL     1      44.354   4.439  10.032  0.00  0.00    +0.000 C 
BRANCH   8  13
ATOM      9  C   UNL     1      47.790   2.250   5.948  0.00  0.00    +0.000 C 
ATOM     10  C   UNL     1      46.882   2.770   7.021  0.00  0.00    +0.000 A 
ATOM     11  C   UNL     1      46.182   1.901   7.850  0.00  0.00    +0.000 A 
ATOM     12  C   UNL     1      45.350   2.432   8.836  0.00  0.00    +0.000 A 
ATOM     13  C   UNL     1      45.227   3.817   8.974  0.00  0.00    +0.000 A 
ATOM     14  C   UNL     1      45.972   4.603   8.101  0.00  0.00    +0.000 A 
ATOM     15  N   UNL     1      46.783   4.112   7.133  0.00  0.00    +0.000 NA
ENDBRANCH   8  13
ENDBRANCH   2   8
ENDBRANCH   1   5
BRANCH   1  16
ATOM     16  N   UNL     1      47.752   5.760  15.382  0.00  0.00    +0.000 N 
ATOM     17  C   UNL     1      48.904   5.890  16.120  0.00  0.00    +0.000 C 
ATOM     18  O   UNL     1      49.374   4.964  16.777  0.00  0.00    +0.000 OA
ATOM     19  H   UNL     1      47.545   6.462  14.683  0.00  0.00    +0.000 HD
BRANCH  17  20
ATOM     20  C   UNL     1      49.505   7.230  16.129  0.00  0.00    +0.000 A 
ATOM     21  C   UNL     1      49.793   7.859  17.334  0.00  0.00    +0.000 A 
ATOM     22  S   UNL     1      50.416   9.437  17.145  0.00  0.00    +0.000 S 
ATOM     23  C   UNL     1      50.372   9.314  15.448  0.00  0.00    +0.000 A 
ATOM     24  N   UNL     1      50.783  10.340  14.658  0.00  0.00    +0.000 NA
ATOM     25  C   UNL     1      50.718  10.101  13.389  0.00  0.00    +0.000 A 
ATOM     26  N   UNL     1      50.282   8.924  12.817  0.00  0.00    +0.000 N 
ATOM     27  C   UNL     1      50.250   8.756  11.379  0.00  0.00    +0.000 C 
ATOM     28  C   UNL     1      49.854   7.854  13.597  0.00  0.00    +0.000 A 
ATOM     29  O   UNL     1      49.463   6.796  13.106  0.00  0.00    +0.000 OA
ATOM     30  C   UNL     1      49.892   8.090  15.030  0.00  0.00    +0.000 A 
ENDBRANCH  17  20
ENDBRANCH   1  16
TORSDOF 5
ENDMDL
MODEL 4
REMARK VINA RESULT:    -7.086      4.860      8.016
REMARK INTER + INTRA:         -10.384
REMARK INTER:                  -9.334
REMARK INTRA:                  -1.049
REMARK UNBOUND:                -1.226
REMARK  Name = 
REMARK  7 active torsions:
REMARK  status: ('A' for Active; 'I' for Inactive)
REMARK    1  A    between atoms: C_1  and  C_2
REMARK    2  A    between atoms: C_5  and  C_6
REMARK    3  A    between atoms: C_6  and  C_7
REMARK    4  A    between atoms: C_10  and  C_11
REMARK    5  A    between atoms: C_11  and  N_12
REMARK    6  A    between atoms: C_13  and  C_15
REMARK    7  A    between atoms: N_21  and  C_22
REMARK                            x       y       z     vdW  Elec       q    Type
REMARK                         _______ _______ _______ _____ _____    ______ ____
ROOT
ATOM      1  C   UNL     1      46.066   8.086  12.654  0.00  0.00    +0.000 C 
ENDROOT
BRANCH   1   5
ATOM      2  C   UNL     1      50.284   8.500  11.748  0.00  0.00    +0.000 A 
ATOM      3  C   UNL     1      49.403   9.570  11.547  0.00  0.00    +0.000 A 
ATOM      4  C   UNL     1      48.038   9.430  11.815  0.00  0.00    +0.000 A 
ATOM      5  C   UNL     1      47.528   8.220  12.305  0.00  0.00    +0.000 A 
ATOM      6  C   UNL     1      48.397   7.132  12.444  0.00  0.00    +0.000 A 
ATOM      7  C   UNL     1      49.762   7.272  12.176  0.00  0.00    +0.000 A 
BRANCH   2   8
ATOM      8  C   UNL     1      51.774   8.680  11.556  0.00  0.00    +0.000 C 
BRANCH   8  13
ATOM      9  C   UNL     1      53.665   7.570   6.220  0.00  0.00    +0.000 C 
ATOM     10  C   UNL     1      53.163   7.807   7.613  0.00  0.00    +0.000 A 
ATOM     11  C   UNL     1      52.790   6.746   8.430  0.00  0.00    +0.000 A 
ATOM     12  C   UNL     1      52.331   7.017   9.719  0.00  0.00    +0.000 A 
ATOM     13  C   UNL     1      52.248   8.337  10.167  0.00  0.00    +0.000 A 
ATOM     14  C   UNL     1      52.651   9.329   9.279  0.00  0.00    +0.000 A 
ATOM     15  N   UNL     1      53.096   9.092   8.021  0.00  0.00    +0.000 NA
ENDBRANCH   8  13
ENDBRANCH   2   8
ENDBRANCH   1   5
BRANCH   1  16
ATOM     16  N   UNL     1      45.598   6.752  12.390  0.00  0.00    +0.000 N 
ATOM     17  C   UNL     1      44.584   6.501  11.499  0.00  0.00    +0.000 C 
ATOM     18  O   UNL     1      43.913   7.397  10.993  0.00  0.00    +0.000 OA
ATOM     19  H   UNL     1      46.263   6.014  12.586  0.00  0.00    +0.000 HD
BRANCH  17  20
ATOM     20  C   UNL     1      44.305   5.082  11.237  0.00  0.00    +0.000 A 
ATOM     21  C   UNL     1      43.474   4.364  12.087  0.00  0.00    +0.000 A 
ATOM     22  S   UNL     1      43.330   2.717  11.666  0.00  0.00    +0.000 S 
ATOM     23  C   UNL     1      44.330   2.917  10.304  0.00  0.00    +0.000 A 
ATOM     24  N   UNL     1      44.618   1.874   9.484  0.00  0.00    +0.000 NA
ATOM     25  C   UNL     1      45.369   2.173   8.475  0.00  0.00    +0.000 A 
ATOM     26  N   UNL     1      45.867   3.429   8.193  0.00  0.00    +0.000 N 
ATOM     27  C   UNL     1      46.699   3.660   7.031  0.00  0.00    +0.000 C 
ATOM     28  C   UNL     1      45.591   4.519   9.011  0.00  0.00    +0.000 A 
ATOM     29  O   UNL     1      46.025   5.646   8.776  0.00  0.00    +0.000 OA
ATOM     30  C   UNL     1      44.766   4.219  10.170  0.00  0.00    +0.000 A 
ENDBRANCH  17  20
ENDBRANCH   1  16
TORSDOF 5
ENDMDL
MODEL 5
REMARK VINA RESULT:    -7.021      2.989      4.994
REMARK INTER + INTRA:         -10.300
REMARK INTER:                  -9.334
REMARK INTRA:                  -0.966
REMARK UNBOUND:                -1.226
REMARK  Name = 
REMARK  7 active torsions:
REMARK  status: ('A' for Active; 'I' for Inactive)
REMARK    1  A    between atoms: C_1  and  C_2
REMARK    2  A    between atoms: C_5  and  C_6
REMARK    3  A    between atoms: C_6  and  C_7
REMARK    4  A    between atoms: C_10  and  C_11
REMARK    5  A    between atoms: C_11  and  N_12
REMARK    6  A    between atoms: C_13  and  C_15
REMARK    7  A    between atoms: N_21  and  C_22
REMARK                            x       y       z     vdW  Elec       q    Type
REMARK                         _______ _______ _______ _____ _____    ______ ____
ROOT
ATOM      1  C   UNL     1      47.176   5.770  14.363  0.00  0.00    +0.000 C 
ENDROOT
BRANCH   1   5
ATOM      2  C   UNL     1      44.884   4.085  11.093  0.00  0.00    +0.000 A 
ATOM      3  C   UNL     1      45.137   5.462  11.152  0.00  0.00    +0.000 A 
ATOM      4  C   UNL     1      45.854   6.009  12.219  0.00  0.00    +0.000 A 
ATOM      5  C   UNL     1      46.348   5.189  13.243  0.00  0.00    +0.000 A 
ATOM      6  C   UNL     1      46.039   3.825  13.218  0.00  0.00    +0.000 A 
ATOM      7  C   UNL     1      45.322   3.276  12.150  0.00  0.00    +0.000 A 
BRANCH   2   8
ATOM      8  C   UNL     1      44.197   3.478   9.890  0.00  0.00    +0.000 C 
BRANCH   8  13
ATOM      9  C   UNL     1      47.849   2.250   5.597  0.00  0.00    +0.000 C 
ATOM     10  C   UNL     1      46.902   2.518   6.727  0.00  0.00    +0.000 A 
ATOM     11  C   UNL     1      46.564   1.518   7.632  0.00  0.00    +0.000 A 
ATOM     12  C   UNL     1      45.679   1.816   8.668  0.00  0.00    +0.000 A 
ATOM     13  C   UNL     1      45.145   3.102   8.780  0.00  0.00    +0.000 A 
ATOM     14  C   UNL     1      45.547   4.035   7.830  0.00  0.00    +0.000 A 
ATOM     15  N   UNL     1      46.401   3.769   6.813  0.00  0.00    +0.000 NA
ENDBRANCH   8  13
ENDBRANCH   2   8
ENDBRANCH   1   5
BRANCH   1  16
ATOM     16  N   UNL     1      47.606   7.103  14.043  0.00  0.00    +0.000 N 
ATOM     17  C   UNL     1      48.910   7.505  14.202  0.00  0.00    +0.000 C 
ATOM     18  O   UNL     1      49.750   6.809  14.768  0.00  0.00    +0.000 OA
ATOM     19  H   UNL     1      47.028   7.595  13.373  0.00  0.00    +0.000 HD
BRANCH  17  20
ATOM     20  C   UNL     1      49.224   8.854  13.710  0.00  0.00    +0.000 A 
ATOM     21  C   UNL     1      48.705   9.971  14.353  0.00  0.00    +0.000 A 
ATOM     22  S   UNL     1      49.116  11.443  13.595  0.00  0.00    +0.000 S 
ATOM     23  C   UNL     1      50.044  10.643  12.414  0.00  0.00    +0.000 A 
ATOM     24  N   UNL     1      50.690  11.336  11.440  0.00  0.00    +0.000 NA
ATOM     25  C   UNL     1      51.377  10.604  10.624  0.00  0.00    +0.000 A 
ATOM     26  N   UNL     1      51.491   9.230  10.685  0.00  0.00    +0.000 N 
ATOM     27  C   UNL     1      52.291   8.503   9.722  0.00  0.00    +0.000 C 
ATOM     28  C   UNL     1      50.844   8.492  11.669  0.00  0.00    +0.000 A 
ATOM     29  O   UNL     1      50.935   7.266  11.740  0.00  0.00    +0.000 OA
ATOM     30  C   UNL     1      50.043   9.275  12.594  0.00  0.00    +0.000 A 
ENDBRANCH  17  20
ENDBRANCH   1  16
TORSDOF 5
ENDMDL
MODEL 6
REMARK VINA RESULT:    -6.810      1.958      3.684
REMARK INTER + INTRA:         -10.027
REMARK INTER:                  -8.963
REMARK INTRA:                  -1.064
REMARK UNBOUND:                -1.226
REMARK  Name = 
REMARK  7 active torsions:
REMARK  status: ('A' for Active; 'I' for Inactive)
REMARK    1  A    between atoms: C_1  and  C_2
REMARK    2  A    between atoms: C_5  and  C_6
REMARK    3  A    between atoms: C_6  and  C_7
REMARK    4  A    between atoms: C_10  and  C_11
REMARK    5  A    between atoms: C_11  and  N_12
REMARK    6  A    between atoms: C_13  and  C_15
REMARK    7  A    between atoms: N_21  and  C_22
REMARK                            x       y       z     vdW  Elec       q    Type
REMARK                         _______ _______ _______ _____ _____    ______ ____
ROOT
ATOM      1  C   UNL     1      47.564   4.189  15.642  0.00  0.00    +0.000 C 
ENDROOT
BRANCH   1   5
ATOM      2  C   UNL     1      45.363   4.760  11.953  0.00  0.00    +0.000 A 
ATOM      3  C   UNL     1      45.722   3.474  12.378  0.00  0.00    +0.000 A 
ATOM      4  C   UNL     1      46.454   3.291  13.554  0.00  0.00    +0.000 A 
ATOM      5  C   UNL     1      46.828   4.389  14.340  0.00  0.00    +0.000 A 
ATOM      6  C   UNL     1      46.527   5.676  13.882  0.00  0.00    +0.000 A 
ATOM      7  C   UNL     1      45.794   5.861  12.705  0.00  0.00    +0.000 A 
BRANCH   2   8
ATOM      8  C   UNL     1      44.485   4.954  10.736  0.00  0.00    +0.000 C 
BRANCH   8  13
ATOM      9  C   UNL     1      46.860   2.883   5.903  0.00  0.00    +0.000 C 
ATOM     10  C   UNL     1      46.214   3.378   7.162  0.00  0.00    +0.000 A 
ATOM     11  C   UNL     1      45.317   2.583   7.867  0.00  0.00    +0.000 A 
ATOM     12  C   UNL     1      44.742   3.086   9.034  0.00  0.00    +0.000 A 
ATOM     13  C   UNL     1      45.067   4.371   9.474  0.00  0.00    +0.000 A 
ATOM     14  C   UNL     1      45.979   5.086   8.704  0.00  0.00    +0.000 A 
ATOM     15  N   UNL     1      46.548   4.622   7.566  0.00  0.00    +0.000 NA
ENDBRANCH   8  13
ENDBRANCH   2   8
ENDBRANCH   1   5
BRANCH   1  16
ATOM     16  N   UNL     1      47.529   5.386  16.438  0.00  0.00    +0.000 N 
ATOM     17  C   UNL     1      48.257   5.511  17.596  0.00  0.00    +0.000 C 
ATOM     18  O   UNL     1      48.854   4.565  18.105  0.00  0.00    +0.000 OA
ATOM     19  H   UNL     1      47.264   6.228  15.941  0.00  0.00    +0.000 HD
BRANCH  17  20
ATOM     20  C   UNL     1      48.222   6.837  18.229  0.00  0.00    +0.000 A 
ATOM     21  C   UNL     1      47.943   6.957  19.584  0.00  0.00    +0.000 A 
ATOM     22  S   UNL     1      47.871   8.576  20.122  0.00  0.00    +0.000 S 
ATOM     23  C   UNL     1      48.263   9.168  18.575  0.00  0.00    +0.000 A 
ATOM     24  N   UNL     1      48.371  10.501  18.340  0.00  0.00    +0.000 NA
ATOM     25  C   UNL     1      48.696  10.810  17.128  0.00  0.00    +0.000 A 
ATOM     26  N   UNL     1      48.934   9.909  16.109  0.00  0.00    +0.000 N 
ATOM     27  C   UNL     1      49.298  10.359  14.782  0.00  0.00    +0.000 C 
ATOM     28  C   UNL     1      48.832   8.538  16.316  0.00  0.00    +0.000 A 
ATOM     29  O   UNL     1      49.041   7.719  15.421  0.00  0.00    +0.000 OA
ATOM     30  C   UNL     1      48.447   8.150  17.663  0.00  0.00    +0.000 A 
ENDBRANCH  17  20
ENDBRANCH   1  16
TORSDOF 5
ENDMDL
MODEL 7
REMARK VINA RESULT:    -6.594      3.275      8.669
REMARK INTER + INTRA:          -9.747
REMARK INTER:                  -8.917
REMARK INTRA:                  -0.831
REMARK UNBOUND:                -1.226
REMARK  Name = 
REMARK  7 active torsions:
REMARK  status: ('A' for Active; 'I' for Inactive)
REMARK    1  A    between atoms: C_1  and  C_2
REMARK    2  A    between atoms: C_5  and  C_6
REMARK    3  A    between atoms: C_6  and  C_7
REMARK    4  A    between atoms: C_10  and  C_11
REMARK    5  A    between atoms: C_11  and  N_12
REMARK    6  A    between atoms: C_13  and  C_15
REMARK    7  A    between atoms: N_21  and  C_22
REMARK                            x       y       z     vdW  Elec       q    Type
REMARK                         _______ _______ _______ _____ _____    ______ ____
ROOT
ATOM      1  C   UNL     1      46.955   7.983  12.341  0.00  0.00    +0.000 C 
ENDROOT
BRANCH   1   5
ATOM      2  C   UNL     1      49.607   7.838  15.766  0.00  0.00    +0.000 A 
ATOM      3  C   UNL     1      48.530   8.734  15.735  0.00  0.00    +0.000 A 
ATOM      4  C   UNL     1      47.690   8.799  14.620  0.00  0.00    +0.000 A 
ATOM      5  C   UNL     1      47.898   7.958  13.519  0.00  0.00    +0.000 A 
ATOM      6  C   UNL     1      49.012   7.110  13.523  0.00  0.00    +0.000 A 
ATOM      7  C   UNL     1      49.853   7.044  14.638  0.00  0.00    +0.000 A 
BRANCH   2   8
ATOM      8  C   UNL     1      50.455   7.694  17.011  0.00  0.00    +0.000 C 
BRANCH   8  13
ATOM      9  C   UNL     1      52.416   2.361  18.004  0.00  0.00    +0.000 C 
ATOM     10  C   UNL     1      51.858   3.729  17.752  0.00  0.00    +0.000 A 
ATOM     11  C   UNL     1      50.496   3.980  17.875  0.00  0.00    +0.000 A 
ATOM     12  C   UNL     1      50.023   5.270  17.632  0.00  0.00    +0.000 A 
ATOM     13  C   UNL     1      50.914   6.282  17.268  0.00  0.00    +0.000 A 
ATOM     14  C   UNL     1      52.258   5.934  17.178  0.00  0.00    +0.000 A 
ATOM     15  N   UNL     1      52.741   4.689  17.404  0.00  0.00    +0.000 NA
ENDBRANCH   8  13
ENDBRANCH   2   8
ENDBRANCH   1   5
BRANCH   1  16
ATOM     16  N   UNL     1      46.310   6.709  12.176  0.00  0.00    +0.000 N 
ATOM     17  C   UNL     1      45.079   6.589  11.579  0.00  0.00    +0.000 C 
ATOM     18  O   UNL     1      44.387   7.564  11.292  0.00  0.00    +0.000 OA
ATOM     19  H   UNL     1      46.929   5.908  12.170  0.00  0.00    +0.000 HD
BRANCH  17  20
ATOM     20  C   UNL     1      44.607   5.214  11.364  0.00  0.00    +0.000 A 
ATOM     21  C   UNL     1      43.773   4.608  12.295  0.00  0.00    +0.000 A 
ATOM     22  S   UNL     1      43.393   2.989  11.913  0.00  0.00    +0.000 S 
ATOM     23  C   UNL     1      44.286   3.059  10.466  0.00  0.00    +0.000 A 
ATOM     24  N   UNL     1      44.370   1.984   9.640  0.00  0.00    +0.000 NA
ATOM     25  C   UNL     1      45.060   2.185   8.565  0.00  0.00    +0.000 A 
ATOM     26  N   UNL     1      45.680   3.369   8.221  0.00  0.00    +0.000 N 
ATOM     27  C   UNL     1      46.429   3.491   6.988  0.00  0.00    +0.000 C 
ATOM     28  C   UNL     1      45.613   4.488   9.044  0.00  0.00    +0.000 A 
ATOM     29  O   UNL     1      46.158   5.552   8.755  0.00  0.00    +0.000 OA
ATOM     30  C   UNL     1      44.864   4.297  10.275  0.00  0.00    +0.000 A 
ENDBRANCH  17  20
ENDBRANCH   1  16
TORSDOF 5
ENDMDL
MODEL 8
REMARK VINA RESULT:    -6.460      3.770      9.377
REMARK INTER + INTRA:          -9.574
REMARK INTER:                  -8.497
REMARK INTRA:                  -1.077
REMARK UNBOUND:                -1.226
REMARK  Name = 
REMARK  7 active torsions:
REMARK  status: ('A' for Active; 'I' for Inactive)
REMARK    1  A    between atoms: C_1  and  C_2
REMARK    2  A    between atoms: C_5  and  C_6
REMARK    3  A    between atoms: C_6  and  C_7
REMARK    4  A    between atoms: C_10  and  C_11
REMARK    5  A    between atoms: C_11  and  N_12
REMARK    6  A    between atoms: C_13  and  C_15
REMARK    7  A    between atoms: N_21  and  C_22
REMARK                            x       y       z     vdW  Elec       q    Type
REMARK                         _______ _______ _______ _____ _____    ______ ____
ROOT
ATOM      1  C   UNL     1      47.265   3.743  16.852  0.00  0.00    +0.000 C 
ENDROOT
BRANCH   1   5
ATOM      2  C   UNL     1      51.392   2.707  17.678  0.00  0.00    +0.000 A 
ATOM      3  C   UNL     1      50.917   4.001  17.931  0.00  0.00    +0.000 A 
ATOM      4  C   UNL     1      49.593   4.343  17.641  0.00  0.00    +0.000 A 
ATOM      5  C   UNL     1      48.711   3.394  17.107  0.00  0.00    +0.000 A 
ATOM      6  C   UNL     1      49.203   2.122  16.794  0.00  0.00    +0.000 A 
ATOM      7  C   UNL     1      50.528   1.779  17.083  0.00  0.00    +0.000 A 
BRANCH   2   8
ATOM      8  C   UNL     1      52.794   2.307  18.084  0.00  0.00    +0.000 C 
BRANCH   8  13
ATOM      9  C   UNL     1      55.738   6.580  20.605  0.00  0.00    +0.000 C 
ATOM     10  C   UNL     1      54.957   5.454  19.997  0.00  0.00    +0.000 A 
ATOM     11  C   UNL     1      54.152   4.635  20.782  0.00  0.00    +0.000 A 
ATOM     12  C   UNL     1      53.442   3.601  20.171  0.00  0.00    +0.000 A 
ATOM     13  C   UNL     1      53.551   3.400  18.793  0.00  0.00    +0.000 A 
ATOM     14  C   UNL     1      54.376   4.275  18.094  0.00  0.00    +0.000 A 
ATOM     15  N   UNL     1      55.079   5.283  18.664  0.00  0.00    +0.000 NA
ENDBRANCH   8  13
ENDBRANCH   2   8
ENDBRANCH   1   5
BRANCH   1  16
ATOM     16  N   UNL     1      47.155   4.744  15.826  0.00  0.00    +0.000 N 
ATOM     17  C   UNL     1      47.063   4.415  14.496  0.00  0.00    +0.000 C 
ATOM     18  O   UNL     1      47.224   3.267  14.088  0.00  0.00    +0.000 OA
ATOM     19  H   UNL     1      46.784   5.635  16.130  0.00  0.00    +0.000 HD
BRANCH  17  20
ATOM     20  C   UNL     1      46.824   5.537  13.578  0.00  0.00    +0.000 A 
ATOM     21  C   UNL     1      45.656   5.592  12.830  0.00  0.00    +0.000 A 
ATOM     22  S   UNL     1      45.591   6.927  11.768  0.00  0.00    +0.000 S 
ATOM     23  C   UNL     1      47.097   7.505  12.309  0.00  0.00    +0.000 A 
ATOM     24  N   UNL     1      47.638   8.642  11.800  0.00  0.00    +0.000 NA
ATOM     25  C   UNL     1      48.773   8.978  12.319  0.00  0.00    +0.000 A 
ATOM     26  N   UNL     1      49.434   8.286  13.314  0.00  0.00    +0.000 N 
ATOM     27  C   UNL     1      50.705   8.750  13.830  0.00  0.00    +0.000 C 
ATOM     28  C   UNL     1      48.908   7.119  13.857  0.00  0.00    +0.000 A 
ATOM     29  O   UNL     1      49.482   6.490  14.745  0.00  0.00    +0.000 OA
ATOM     30  C   UNL     1      47.641   6.696  13.286  0.00  0.00    +0.000 A 
ENDBRANCH  17  20
ENDBRANCH   1  16
TORSDOF 5
ENDMDL
MODEL 9
REMARK VINA RESULT:    -6.110      3.279      4.584
REMARK INTER + INTRA:          -9.122
REMARK INTER:                  -8.343
REMARK INTRA:                  -0.779
REMARK UNBOUND:                -1.226
REMARK  Name = 
REMARK  7 active torsions:
REMARK  status: ('A' for Active; 'I' for Inactive)
REMARK    1  A    between atoms: C_1  and  C_2
REMARK    2  A    between atoms: C_5  and  C_6
REMARK    3  A    between atoms: C_6  and  C_7
REMARK    4  A    between atoms: C_10  and  C_11
REMARK    5  A    between atoms: C_11  and  N_12
REMARK    6  A    between atoms: C_13  and  C_15
REMARK    7  A    between atoms: N_21  and  C_22
REMARK                            x       y       z     vdW  Elec       q    Type
REMARK                         _______ _______ _______ _____ _____    ______ ____
ROOT
ATOM      1  C   UNL     1      46.448   6.975  13.815  0.00  0.00    +0.000 C 
ENDROOT
BRANCH   1   5
ATOM      2  C   UNL     1      45.008   4.175  10.836  0.00  0.00    +0.000 A 
ATOM      3  C   UNL     1      45.234   3.760  12.155  0.00  0.00    +0.000 A 
ATOM      4  C   UNL     1      45.722   4.656  13.110  0.00  0.00    +0.000 A 
ATOM      5  C   UNL     1      45.980   5.991  12.771  0.00  0.00    +0.000 A 
ATOM      6  C   UNL     1      45.817   6.388  11.439  0.00  0.00    +0.000 A 
ATOM      7  C   UNL     1      45.328   5.493  10.483  0.00  0.00    +0.000 A 
BRANCH   2   8
ATOM      8  C   UNL     1      44.385   3.235   9.828  0.00  0.00    +0.000 C 
BRANCH   8  13
ATOM      9  C   UNL     1      47.823   1.808   5.421  0.00  0.00    +0.000 C 
ATOM     10  C   UNL     1      46.927   2.228   6.547  0.00  0.00    +0.000 A 
ATOM     11  C   UNL     1      46.384   3.506   6.591  0.00  0.00    +0.000 A 
ATOM     12  C   UNL     1      45.555   3.851   7.659  0.00  0.00    +0.000 A 
ATOM     13  C   UNL     1      45.286   2.917   8.663  0.00  0.00    +0.000 A 
ATOM     14  C   UNL     1      45.871   1.663   8.526  0.00  0.00    +0.000 A 
ATOM     15  N   UNL     1      46.683   1.305   7.503  0.00  0.00    +0.000 NA
ENDBRANCH   8  13
ENDBRANCH   2   8
ENDBRANCH   1   5
BRANCH   1  16
ATOM     16  N   UNL     1      47.626   7.669  13.371  0.00  0.00    +0.000 N 
ATOM     17  C   UNL     1      48.889   7.192  13.626  0.00  0.00    +0.000 C 
ATOM     18  O   UNL     1      49.096   6.239  14.373  0.00  0.00    +0.000 OA
ATOM     19  H   UNL     1      47.494   8.285  12.579  0.00  0.00    +0.000 HD
BRANCH  17  20
ATOM     20  C   UNL     1      49.989   7.939  12.998  0.00  0.00    +0.000 A 
ATOM     21  C   UNL     1      50.229   7.815  11.636  0.00  0.00    +0.000 A 
ATOM     22  S   UNL     1      51.590   8.696  11.103  0.00  0.00    +0.000 S 
ATOM     23  C   UNL     1      51.874   9.314  12.664  0.00  0.00    +0.000 A 
ATOM     24  N   UNL     1      52.909  10.158  12.908  0.00  0.00    +0.000 NA
ATOM     25  C   UNL     1      52.992  10.569  14.131  0.00  0.00    +0.000 A 
ATOM     26  N   UNL     1      52.130  10.222  15.152  0.00  0.00    +0.000 N 
ATOM     27  C   UNL     1      52.309  10.741  16.492  0.00  0.00    +0.000 C 
ATOM     28  C   UNL     1      51.061   9.360  14.936  0.00  0.00    +0.000 A 
ATOM     29  O   UNL     1      50.282   9.039  15.833  0.00  0.00    +0.000 OA
ATOM     30  C   UNL     1      50.945   8.858  13.577  0.00  0.00    +0.000 A 
ENDBRANCH  17  20
ENDBRANCH   1  16
TORSDOF 5
ENDMDL
