MODEL 1
REMARK VINA RESULT:    -8.782      0.000      0.000
REMARK INTER + INTRA:         -13.057
REMARK INTER:                 -12.375
REMARK INTRA:                  -0.682
REMARK UNBOUND:                -0.682
REMARK  Name = 
REMARK  8 active torsions:
REMARK  status: ('A' for Active; 'I' for Inactive)
REMARK    1  A    between atoms: C_1  and  C_2
REMARK    2  A    between atoms: C_2  and  N_3
REMARK    3  A    between atoms: C_2  and  C_27
REMARK    4  A    between atoms: N_3  and  C_4
REMARK    5  A    between atoms: C_4  and  C_5
REMARK    6  A    between atoms: C_9  and  C_10
REMARK    7  A    between atoms: C_10  and  N_11
REMARK    8  A    between atoms: C_12  and  C_14
REMARK                            x       y       z     vdW  Elec       q    Type
REMARK                         _______ _______ _______ _____ _____    ______ ____
ROOT
ATOM      1  C   UNL     1      45.400   4.330  12.182  0.00  0.00    +0.000 A 
ATOM      2  C   UNL     1      45.733   5.570  11.618  0.00  0.00    +0.000 A 
ATOM      3  C   UNL     1      46.732   6.358  12.186  0.00  0.00    +0.000 A 
ATOM      4  F   UNL     1      47.020   7.537  11.617  0.00  0.00    +0.000 F 
ATOM      5  C   UNL     1      47.427   5.943  13.321  0.00  0.00    +0.000 A 
ATOM      6  C   UNL     1      47.072   4.721  13.890  0.00  0.00    +0.000 A 
ATOM      7  F   UNL     1      47.693   4.295  14.998  0.00  0.00    +0.000 F 
ATOM      8  C   UNL     1      46.076   3.917  13.334  0.00  0.00    +0.000 A 
ENDROOT
BRANCH   1   9
ATOM      9  C   UNL     1      44.310   3.481  11.572  0.00  0.00    +0.000 C 
BRANCH   9  10
ATOM     10  N   UNL     1      44.864   2.567  10.580  0.00  0.00    +0.000 NA
ATOM     11  H   UNL     1      44.517   1.625  10.777  0.00  0.00    +0.000 HD
BRANCH  10  13
ATOM     12  C   UNL     1      44.168   4.382   8.994  0.00  0.00    +0.000 C 
ATOM     13  C   UNL     1      44.468   2.889   9.196  0.00  0.00    +0.000 C 
BRANCH  13  14
ATOM     14  C   UNL     1      45.542   2.422   8.215  0.00  0.00    +0.000 A 
ATOM     15  C   UNL     1      46.034   3.278   7.226  0.00  0.00    +0.000 A 
ATOM     16  C   UNL     1      47.045   2.829   6.381  0.00  0.00    +0.000 A 
ATOM     17  C   UNL     1      47.541   1.543   6.539  0.00  0.00    +0.000 A 
ATOM     18  C   UNL     1      47.003   0.755   7.543  0.00  0.00    +0.000 A 
ATOM     19  N   UNL     1      46.022   1.162   8.379  0.00  0.00    +0.000 NA
ENDBRANCH  13  14
ENDBRANCH  10  13
ENDBRANCH   9  10
ENDBRANCH   1   9
BRANCH   5  20
ATOM     20  C   UNL     1      48.498   6.798  13.922  0.00  0.00    +0.000 C 
BRANCH  20  21
ATOM     21  N   UNL     1      48.280   7.000  15.333  0.00  0.00    +0.000 N 
ATOM     22  C   UNL     1      49.239   6.683  16.262  0.00  0.00    +0.000 C 
ATOM     23  O   UNL     1      50.354   6.279  15.944  0.00  0.00    +0.000 OA
ATOM     24  H   UNL     1      47.314   7.073  15.637  0.00  0.00    +0.000 HD
BRANCH  22  25
ATOM     25  C   UNL     1      48.884   6.911  17.668  0.00  0.00    +0.000 A 
ATOM     26  C   UNL     1      48.665   8.205  18.119  0.00  0.00    +0.000 A 
ATOM     27  S   UNL     1      48.218   8.288  19.763  0.00  0.00    +0.000 S 
ATOM     28  C   UNL     1      48.347   6.601  19.940  0.00  0.00    +0.000 A 
ATOM     29  N   UNL     1      48.108   6.004  21.138  0.00  0.00    +0.000 NA
ATOM     30  C   UNL     1      48.279   4.723  21.139  0.00  0.00    +0.000 A 
ATOM     31  N   UNL     1      48.663   3.986  20.049  0.00  0.00    +0.000 N 
ATOM     32  C   UNL     1      48.874   4.541  18.809  0.00  0.00    +0.000 A 
ATOM     33  O   UNL     1      49.151   3.846  17.837  0.00  0.00    +0.000 OA
ATOM     34  C   UNL     1      48.713   5.981  18.758  0.00  0.00    +0.000 A 
ATOM     35  H   UNL     1      48.769   2.985  20.113  0.00  0.00    +0.000 HD
ENDBRANCH  22  25
ENDBRANCH  20  21
ENDBRANCH   5  20
TORSDOF 7
ENDMDL
MODEL 2
REMARK VINA RESULT:    -8.595      1.727      2.059
REMARK INTER + INTRA:         -12.795
REMARK INTER:                 -11.726
REMARK INTRA:                  -1.069
REMARK UNBOUND:                -0.682
REMARK  Name = 
REMARK  8 active torsions:
REMARK  status: ('A' for Active; 'I' for Inactive)
REMARK    1  A    between atoms: C_1  and  C_2
REMARK    2  A    between atoms: C_2  and  N_3
REMARK    3  A    between atoms: C_2  and  C_27
REMARK    4  A    between atoms: N_3  and  C_4
REMARK    5  A    between atoms: C_4  and  C_5
REMARK    6  A    between atoms: C_9  and  C_10
REMARK    7  A    between atoms: C_10  and  N_11
REMARK    8  A    between atoms: C_12  and  C_14
REMARK                            x       y       z     vdW  Elec       q    Type
REMARK                         _______ _______ _______ _____ _____    ______ ____
ROOT
ATOM      1  C   UNL     1      44.772   5.945  11.272  0.00  0.00    +0.000 A 
ATOM      2  C   UNL     1      44.411   7.213  11.752  0.00  0.00    +0.000 A 
ATOM      3  C   UNL     1      45.320   7.975  12.483  0.00  0.00    +0.000 A 
ATOM      4  F   UNL     1      44.935   9.182  12.924  0.00  0.00    +0.000 F 
ATOM      5  C   UNL     1      46.604   7.509  12.759  0.00  0.00    +0.000 A 
ATOM      6  C   UNL     1      46.945   6.237  12.302  0.00  0.00    +0.000 A 
ATOM      7  F   UNL     1      48.159   5.736  12.568  0.00  0.00    +0.000 F 
ATOM      8  C   UNL     1      46.050   5.459  11.565  0.00  0.00    +0.000 A 
ENDROOT
BRANCH   1   9
ATOM      9  C   UNL     1      43.784   5.115  10.488  0.00  0.00    +0.000 C 
BRANCH   9  10
ATOM     10  N   UNL     1      44.423   4.524   9.318  0.00  0.00    +0.000 NA
ATOM     11  H   UNL     1      45.164   5.153   9.001  0.00  0.00    +0.000 HD
BRANCH  10  13
ATOM     12  C   UNL     1      44.048   2.154  10.051  0.00  0.00    +0.000 C 
ATOM     13  C   UNL     1      45.054   3.218   9.587  0.00  0.00    +0.000 C 
BRANCH  13  14
ATOM     14  C   UNL     1      45.815   2.733   8.354  0.00  0.00    +0.000 A 
ATOM     15  C   UNL     1      46.072   3.595   7.284  0.00  0.00    +0.000 A 
ATOM     16  C   UNL     1      46.807   3.128   6.198  0.00  0.00    +0.000 A 
ATOM     17  C   UNL     1      47.268   1.819   6.202  0.00  0.00    +0.000 A 
ATOM     18  C   UNL     1      46.972   1.028   7.299  0.00  0.00    +0.000 A 
ATOM     19  N   UNL     1      46.262   1.451   8.368  0.00  0.00    +0.000 NA
ENDBRANCH  13  14
ENDBRANCH  10  13
ENDBRANCH   9  10
ENDBRANCH   1   9
BRANCH   5  20
ATOM     20  C   UNL     1      47.571   8.337  13.546  0.00  0.00    +0.000 C 
BRANCH  20  21
ATOM     21  N   UNL     1      47.861   7.734  14.824  0.00  0.00    +0.000 N 
ATOM     22  C   UNL     1      49.120   7.290  15.140  0.00  0.00    +0.000 C 
ATOM     23  O   UNL     1      50.079   7.443  14.388  0.00  0.00    +0.000 OA
ATOM     24  H   UNL     1      47.069   7.363  15.340  0.00  0.00    +0.000 HD
BRANCH  22  25
ATOM     25  C   UNL     1      49.279   6.673  16.461  0.00  0.00    +0.000 A 
ATOM     26  C   UNL     1      50.040   7.312  17.431  0.00  0.00    +0.000 A 
ATOM     27  S   UNL     1      50.084   6.484  18.920  0.00  0.00    +0.000 S 
ATOM     28  C   UNL     1      49.126   5.218  18.307  0.00  0.00    +0.000 A 
ATOM     29  N   UNL     1      48.798   4.151  19.083  0.00  0.00    +0.000 NA
ATOM     30  C   UNL     1      48.099   3.247  18.480  0.00  0.00    +0.000 A 
ATOM     31  N   UNL     1      47.694   3.318  17.172  0.00  0.00    +0.000 N 
ATOM     32  C   UNL     1      47.967   4.396  16.363  0.00  0.00    +0.000 A 
ATOM     33  O   UNL     1      47.533   4.460  15.217  0.00  0.00    +0.000 OA
ATOM     34  C   UNL     1      48.766   5.431  16.989  0.00  0.00    +0.000 A 
ATOM     35  H   UNL     1      47.140   2.581  16.762  0.00  0.00    +0.000 HD
ENDBRANCH  22  25
ENDBRANCH  20  21
ENDBRANCH   5  20
TORSDOF 7
ENDMDL
MODEL 3
REMARK VINA RESULT:    -8.544      1.719      2.667
REMARK INTER + INTRA:         -12.723
REMARK INTER:                 -11.472
REMARK INTRA:                  -1.251
REMARK UNBOUND:                -0.682
REMARK  Name = 
REMARK  8 active torsions:
REMARK  status: ('A' for Active; 'I' for Inactive)
REMARK    1  A    between atoms: C_1  and  C_2
REMARK    2  A    between atoms: C_2  and  N_3
REMARK    3  A    between atoms: C_2  and  C_27
REMARK    4  A    between atoms: N_3  and  C_4
REMARK    5  A    between atoms: C_4  and  C_5
REMARK    6  A    between atoms: C_9  and  C_10
REMARK    7  A    between atoms: C_10  and  N_11
REMARK    8  A    between atoms: C_12  and  C_14
REMARK                            x       y       z     vdW  Elec       q    Type
REMARK                         _______ _______ _______ _____ _____    ______ ____
ROOT
ATOM      1  C   UNL     1      45.101   5.371  11.437  0.00  0.00    +0.000 A 
ATOM      2  C   UNL     1      46.023   6.333  11.003  0.00  0.00    +0.000 A 
ATOM      3  C   UNL     1      47.140   6.641  11.778  0.00  0.00    +0.000 A 
ATOM      4  F   UNL     1      47.998   7.568  11.328  0.00  0.00    +0.000 F 
ATOM      5  C   UNL     1      47.374   6.008  12.998  0.00  0.00    +0.000 A 
ATOM      6  C   UNL     1      46.438   5.071  13.434  0.00  0.00    +0.000 A 
ATOM      7  F   UNL     1      46.607   4.458  14.614  0.00  0.00    +0.000 F 
ATOM      8  C   UNL     1      45.315   4.747  12.670  0.00  0.00    +0.000 A 
ENDROOT
BRANCH   1   9
ATOM      9  C   UNL     1      43.886   5.044  10.601  0.00  0.00    +0.000 C 
BRANCH   9  10
ATOM     10  N   UNL     1      44.274   4.355   9.375  0.00  0.00    +0.000 NA
ATOM     11  H   UNL     1      44.910   4.960   8.850  0.00  0.00    +0.000 HD
BRANCH  10  13
ATOM     12  C   UNL     1      44.053   1.955  10.071  0.00  0.00    +0.000 C 
ATOM     13  C   UNL     1      44.987   3.085   9.615  0.00  0.00    +0.000 C 
BRANCH  13  14
ATOM     14  C   UNL     1      45.760   2.669   8.364  0.00  0.00    +0.000 A 
ATOM     15  C   UNL     1      45.944   3.560   7.304  0.00  0.00    +0.000 A 
ATOM     16  C   UNL     1      46.692   3.158   6.201  0.00  0.00    +0.000 A 
ATOM     17  C   UNL     1      47.239   1.883   6.180  0.00  0.00    +0.000 A 
ATOM     18  C   UNL     1      47.013   1.059   7.269  0.00  0.00    +0.000 A 
ATOM     19  N   UNL     1      46.292   1.420   8.354  0.00  0.00    +0.000 NA
ENDBRANCH  13  14
ENDBRANCH  10  13
ENDBRANCH   9  10
ENDBRANCH   1   9
BRANCH   5  20
ATOM     20  C   UNL     1      48.576   6.346  13.823  0.00  0.00    +0.000 C 
BRANCH  20  21
ATOM     21  N   UNL     1      48.198   6.861  15.116  0.00  0.00    +0.000 N 
ATOM     22  C   UNL     1      48.941   6.599  16.239  0.00  0.00    +0.000 C 
ATOM     23  O   UNL     1      49.999   5.976  16.197  0.00  0.00    +0.000 OA
ATOM     24  H   UNL     1      47.228   7.140  15.228  0.00  0.00    +0.000 HD
BRANCH  22  25
ATOM     25  C   UNL     1      48.437   7.159  17.498  0.00  0.00    +0.000 A 
ATOM     26  C   UNL     1      48.228   6.323  18.586  0.00  0.00    +0.000 A 
ATOM     27  S   UNL     1      47.686   7.140  19.981  0.00  0.00    +0.000 S 
ATOM     28  C   UNL     1      47.668   8.634  19.166  0.00  0.00    +0.000 A 
ATOM     29  N   UNL     1      47.274   9.771  19.798  0.00  0.00    +0.000 NA
ATOM     30  C   UNL     1      47.273  10.824  19.050  0.00  0.00    +0.000 A 
ATOM     31  N   UNL     1      47.635  10.843  17.728  0.00  0.00    +0.000 N 
ATOM     32  C   UNL     1      48.080   9.727  17.060  0.00  0.00    +0.000 A 
ATOM     33  O   UNL     1      48.461   9.790  15.896  0.00  0.00    +0.000 OA
ATOM     34  C   UNL     1      48.082   8.512  17.851  0.00  0.00    +0.000 A 
ATOM     35  H   UNL     1      47.622  11.704  17.202  0.00  0.00    +0.000 HD
ENDBRANCH  22  25
ENDBRANCH  20  21
ENDBRANCH   5  20
TORSDOF 7
ENDMDL
MODEL 4
REMARK VINA RESULT:    -8.291      1.237      2.051
REMARK INTER + INTRA:         -12.366
REMARK INTER:                 -11.185
REMARK INTRA:                  -1.180
REMARK UNBOUND:                -0.682
REMARK  Name = 
REMARK  8 active torsions:
REMARK  status: ('A' for Active; 'I' for Inactive)
REMARK    1  A    between atoms: C_1  and  C_2
REMARK    2  A    between atoms: C_2  and  N_3
REMARK    3  A    between atoms: C_2  and  C_27
REMARK    4  A    between atoms: N_3  and  C_4
REMARK    5  A    between atoms: C_4  and  C_5
REMARK    6  A    between atoms: C_9  and  C_10
REMARK    7  A    between atoms: C_10  and  N_11
REMARK    8  A    between atoms: C_12  and  C_14
REMARK                            x       y       z     vdW  Elec       q    Type
REMARK                         _______ _______ _______ _____ _____    ______ ____
ROOT
ATOM      1  C   UNL     1      45.077   5.399  11.420  0.00  0.00    +0.000 A 
ATOM      2  C   UNL     1      45.392   4.677  12.580  0.00  0.00    +0.000 A 
ATOM      3  C   UNL     1      46.519   5.007  13.332  0.00  0.00    +0.000 A 
ATOM      4  F   UNL     1      46.786   4.292  14.434  0.00  0.00    +0.000 F 
ATOM      5  C   UNL     1      47.360   6.054  12.959  0.00  0.00    +0.000 A 
ATOM      6  C   UNL     1      47.052   6.750  11.791  0.00  0.00    +0.000 A 
ATOM      7  F   UNL     1      47.848   7.746  11.379  0.00  0.00    +0.000 F 
ATOM      8  C   UNL     1      45.928   6.436  11.026  0.00  0.00    +0.000 A 
ENDROOT
BRANCH   1   9
ATOM      9  C   UNL     1      43.862   5.035  10.600  0.00  0.00    +0.000 C 
BRANCH   9  10
ATOM     10  N   UNL     1      44.258   4.424   9.337  0.00  0.00    +0.000 NA
ATOM     11  H   UNL     1      44.861   5.079   8.834  0.00  0.00    +0.000 HD
BRANCH  10  13
ATOM     12  C   UNL     1      44.133   1.968   9.837  0.00  0.00    +0.000 C 
ATOM     13  C   UNL     1      45.023   3.173   9.502  0.00  0.00    +0.000 C 
BRANCH  13  14
ATOM     14  C   UNL     1      45.855   2.893   8.250  0.00  0.00    +0.000 A 
ATOM     15  C   UNL     1      46.395   1.626   8.015  0.00  0.00    +0.000 A 
ATOM     16  C   UNL     1      47.109   1.400   6.842  0.00  0.00    +0.000 A 
ATOM     17  C   UNL     1      47.267   2.435   5.932  0.00  0.00    +0.000 A 
ATOM     18  C   UNL     1      46.701   3.662   6.236  0.00  0.00    +0.000 A 
ATOM     19  N   UNL     1      46.003   3.914   7.366  0.00  0.00    +0.000 NA
ENDBRANCH  13  14
ENDBRANCH  10  13
ENDBRANCH   9  10
ENDBRANCH   1   9
BRANCH   5  20
ATOM     20  C   UNL     1      48.566   6.399  13.775  0.00  0.00    +0.000 C 
BRANCH  20  21
ATOM     21  N   UNL     1      48.197   6.838  15.098  0.00  0.00    +0.000 N 
ATOM     22  C   UNL     1      49.089   7.488  15.915  0.00  0.00    +0.000 C 
ATOM     23  O   UNL     1      50.219   7.793  15.543  0.00  0.00    +0.000 OA
ATOM     24  H   UNL     1      47.394   6.383  15.520  0.00  0.00    +0.000 HD
BRANCH  22  25
ATOM     25  C   UNL     1      48.599   7.860  17.247  0.00  0.00    +0.000 A 
ATOM     26  C   UNL     1      48.460   9.200  17.578  0.00  0.00    +0.000 A 
ATOM     27  S   UNL     1      47.837   9.456  19.144  0.00  0.00    +0.000 S 
ATOM     28  C   UNL     1      47.775   7.784  19.452  0.00  0.00    +0.000 A 
ATOM     29  N   UNL     1      47.340   7.309  20.650  0.00  0.00    +0.000 NA
ATOM     30  C   UNL     1      47.380   6.023  20.760  0.00  0.00    +0.000 A 
ATOM     31  N   UNL     1      47.811   5.168  19.779  0.00  0.00    +0.000 N 
ATOM     32  C   UNL     1      48.219   5.600  18.539  0.00  0.00    +0.000 A 
ATOM     33  O   UNL     1      48.536   4.807  17.659  0.00  0.00    +0.000 OA
ATOM     34  C   UNL     1      48.210   7.041  18.370  0.00  0.00    +0.000 A 
ATOM     35  H   UNL     1      47.808   4.170  19.925  0.00  0.00    +0.000 HD
ENDBRANCH  22  25
ENDBRANCH  20  21
ENDBRANCH   5  20
TORSDOF 7
ENDMDL
MODEL 5
REMARK VINA RESULT:    -7.920      4.464      5.801
REMARK INTER + INTRA:         -11.843
REMARK INTER:                 -10.899
REMARK INTRA:                  -0.943
REMARK UNBOUND:                -0.682
REMARK  Name = 
REMARK  8 active torsions:
REMARK  status: ('A' for Active; 'I' for Inactive)
REMARK    1  A    between atoms: C_1  and  C_2
REMARK    2  A    between atoms: C_2  and  N_3
REMARK    3  A    between atoms: C_2  and  C_27
REMARK    4  A    between atoms: N_3  and  C_4
REMARK    5  A    between atoms: C_4  and  C_5
REMARK    6  A    between atoms: C_9  and  C_10
REMARK    7  A    between atoms: C_10  and  N_11
REMARK    8  A    between atoms: C_12  and  C_14
REMARK                            x       y       z     vdW  Elec       q    Type
REMARK                         _______ _______ _______ _____ _____    ______ ____
ROOT
ATOM      1  C   UNL     1      44.789   4.873  12.057  0.00  0.00    +0.000 A 
ATOM      2  C   UNL     1      45.926   4.918  12.876  0.00  0.00    +0.000 A 
ATOM      3  C   UNL     1      46.489   6.142  13.234  0.00  0.00    +0.000 A 
ATOM      4  F   UNL     1      47.577   6.141  14.019  0.00  0.00    +0.000 F 
ATOM      5  C   UNL     1      45.947   7.348  12.795  0.00  0.00    +0.000 A 
ATOM      6  C   UNL     1      44.832   7.293  11.961  0.00  0.00    +0.000 A 
ATOM      7  F   UNL     1      44.293   8.427  11.492  0.00  0.00    +0.000 F 
ATOM      8  C   UNL     1      44.251   6.078  11.593  0.00  0.00    +0.000 A 
ENDROOT
BRANCH   1   9
ATOM      9  C   UNL     1      44.184   3.548  11.661  0.00  0.00    +0.000 C 
BRANCH   9  10
ATOM     10  N   UNL     1      45.055   2.844  10.725  0.00  0.00    +0.000 NA
ATOM     11  H   UNL     1      45.118   1.865  11.015  0.00  0.00    +0.000 HD
BRANCH  10  13
ATOM     12  C   UNL     1      44.022   4.223   8.901  0.00  0.00    +0.000 C 
ATOM     13  C   UNL     1      44.554   2.850   9.337  0.00  0.00    +0.000 C 
BRANCH  13  14
ATOM     14  C   UNL     1      45.644   2.369   8.380  0.00  0.00    +0.000 A 
ATOM     15  C   UNL     1      46.302   3.264   7.533  0.00  0.00    +0.000 A 
ATOM     16  C   UNL     1      47.320   2.794   6.707  0.00  0.00    +0.000 A 
ATOM     17  C   UNL     1      47.658   1.449   6.745  0.00  0.00    +0.000 A 
ATOM     18  C   UNL     1      46.960   0.626   7.612  0.00  0.00    +0.000 A 
ATOM     19  N   UNL     1      45.968   1.051   8.426  0.00  0.00    +0.000 NA
ENDBRANCH  13  14
ENDBRANCH  10  13
ENDBRANCH   9  10
ENDBRANCH   1   9
BRANCH   5  20
ATOM     20  C   UNL     1      46.560   8.656  13.187  0.00  0.00    +0.000 C 
BRANCH  20  21
ATOM     21  N   UNL     1      47.751   8.927  12.420  0.00  0.00    +0.000 N 
ATOM     22  C   UNL     1      48.597   9.957  12.746  0.00  0.00    +0.000 C 
ATOM     23  O   UNL     1      48.429  10.656  13.742  0.00  0.00    +0.000 OA
ATOM     24  H   UNL     1      47.776   8.558  11.475  0.00  0.00    +0.000 HD
BRANCH  22  25
ATOM     25  C   UNL     1      49.761  10.145  11.872  0.00  0.00    +0.000 A 
ATOM     26  C   UNL     1      50.126  11.426  11.481  0.00  0.00    +0.000 A 
ATOM     27  S   UNL     1      51.524  11.470  10.507  0.00  0.00    +0.000 S 
ATOM     28  C   UNL     1      51.664   9.775  10.535  0.00  0.00    +0.000 A 
ATOM     29  N   UNL     1      52.666   9.144   9.866  0.00  0.00    +0.000 NA
ATOM     30  C   UNL     1      52.630   7.855   9.942  0.00  0.00    +0.000 A 
ATOM     31  N   UNL     1      51.685   7.140  10.633  0.00  0.00    +0.000 N 
ATOM     32  C   UNL     1      50.680   7.736  11.358  0.00  0.00    +0.000 A 
ATOM     33  O   UNL     1      49.891   7.071  12.020  0.00  0.00    +0.000 OA
ATOM     34  C   UNL     1      50.666   9.184  11.289  0.00  0.00    +0.000 A 
ATOM     35  H   UNL     1      51.720   6.132  10.662  0.00  0.00    +0.000 HD
ENDBRANCH  22  25
ENDBRANCH  20  21
ENDBRANCH   5  20
TORSDOF 7
ENDMDL
MODEL 6
REMARK VINA RESULT:    -7.350      2.085      2.898
REMARK INTER + INTRA:         -11.040
REMARK INTER:                  -9.925
REMARK INTRA:                  -1.115
REMARK UNBOUND:                -0.682
REMARK  Name = 
REMARK  8 active torsions:
REMARK  status: ('A' for Active; 'I' for Inactive)
REMARK    1  A    between atoms: C_1  and  C_2
REMARK    2  A    between atoms: C_2  and  N_3
REMARK    3  A    between atoms: C_2  and  C_27
REMARK    4  A    between atoms: N_3  and  C_4
REMARK    5  A    between atoms: C_4  and  C_5
REMARK    6  A    between atoms: C_9  and  C_10
REMARK    7  A    between atoms: C_10  and  N_11
REMARK    8  A    between atoms: C_12  and  C_14
REMARK                            x       y       z     vdW  Elec       q    Type
REMARK                         _______ _______ _______ _____ _____    ______ ____
ROOT
ATOM      1  C   UNL     1      45.011   6.992  11.784  0.00  0.00    +0.000 A 
ATOM      2  C   UNL     1      46.219   6.315  12.001  0.00  0.00    +0.000 A 
ATOM      3  C   UNL     1      47.384   7.023  12.290  0.00  0.00    +0.000 A 
ATOM      4  F   UNL     1      48.518   6.338  12.491  0.00  0.00    +0.000 F 
ATOM      5  C   UNL     1      47.386   8.415  12.372  0.00  0.00    +0.000 A 
ATOM      6  C   UNL     1      46.186   9.082  12.129  0.00  0.00    +0.000 A 
ATOM      7  F   UNL     1      46.147  10.421  12.170  0.00  0.00    +0.000 F 
ATOM      8  C   UNL     1      45.009   8.390  11.842  0.00  0.00    +0.000 A 
ENDROOT
BRANCH   1   9
ATOM      9  C   UNL     1      43.751   6.225  11.461  0.00  0.00    +0.000 C 
BRANCH   9  10
ATOM     10  N   UNL     1      43.950   5.378  10.290  0.00  0.00    +0.000 NA
ATOM     11  H   UNL     1      44.621   5.836   9.669  0.00  0.00    +0.000 HD
BRANCH  10  13
ATOM     12  C   UNL     1      43.439   3.082  11.161  0.00  0.00    +0.000 C 
ATOM     13  C   UNL     1      44.499   4.047  10.611  0.00  0.00    +0.000 C 
BRANCH  13  14
ATOM     14  C   UNL     1      45.184   3.448   9.384  0.00  0.00    +0.000 A 
ATOM     15  C   UNL     1      45.660   4.265   8.356  0.00  0.00    +0.000 A 
ATOM     16  C   UNL     1      46.318   3.684   7.275  0.00  0.00    +0.000 A 
ATOM     17  C   UNL     1      46.488   2.307   7.245  0.00  0.00    +0.000 A 
ATOM     18  C   UNL     1      45.990   1.565   8.303  0.00  0.00    +0.000 A 
ATOM     19  N   UNL     1      45.347   2.099   9.365  0.00  0.00    +0.000 NA
ENDBRANCH  13  14
ENDBRANCH  10  13
ENDBRANCH   9  10
ENDBRANCH   1   9
BRANCH   5  20
ATOM     20  C   UNL     1      48.643   9.165  12.684  0.00  0.00    +0.000 C 
BRANCH  20  21
ATOM     21  N   UNL     1      49.007   9.026  14.072  0.00  0.00    +0.000 N 
ATOM     22  C   UNL     1      50.175   8.415  14.452  0.00  0.00    +0.000 C 
ATOM     23  O   UNL     1      51.004   8.018  13.637  0.00  0.00    +0.000 OA
ATOM     24  H   UNL     1      48.253   9.097  14.748  0.00  0.00    +0.000 HD
BRANCH  22  25
ATOM     25  C   UNL     1      50.418   8.314  15.895  0.00  0.00    +0.000 A 
ATOM     26  C   UNL     1      51.177   9.285  16.534  0.00  0.00    +0.000 A 
ATOM     27  S   UNL     1      51.323   9.043  18.215  0.00  0.00    +0.000 S 
ATOM     28  C   UNL     1      50.415   7.606  18.142  0.00  0.00    +0.000 A 
ATOM     29  N   UNL     1      50.176   6.871  19.261  0.00  0.00    +0.000 NA
ATOM     30  C   UNL     1      49.506   5.786  19.054  0.00  0.00    +0.000 A 
ATOM     31  N   UNL     1      49.050   5.372  17.830  0.00  0.00    +0.000 N 
ATOM     32  C   UNL     1      49.231   6.102  16.679  0.00  0.00    +0.000 A 
ATOM     33  O   UNL     1      48.753   5.737  15.610  0.00  0.00    +0.000 OA
ATOM     34  C   UNL     1      49.995   7.322  16.854  0.00  0.00    +0.000 A 
ATOM     35  H   UNL     1      48.522   4.517  17.737  0.00  0.00    +0.000 HD
ENDBRANCH  22  25
ENDBRANCH  20  21
ENDBRANCH   5  20
TORSDOF 7
ENDMDL
MODEL 7
REMARK VINA RESULT:    -7.206      2.815      3.580
REMARK INTER + INTRA:         -10.836
REMARK INTER:                  -9.315
REMARK INTRA:                  -1.522
REMARK UNBOUND:                -0.682
REMARK  Name = 
REMARK  8 active torsions:
REMARK  status: ('A' for Active; 'I' for Inactive)
REMARK    1  A    between atoms: C_1  and  C_2
REMARK    2  A    between atoms: C_2  and  N_3
REMARK    3  A    between atoms: C_2  and  C_27
REMARK    4  A    between atoms: N_3  and  C_4
REMARK    5  A    between atoms: C_4  and  C_5
REMARK    6  A    between atoms: C_9  and  C_10
REMARK    7  A    between atoms: C_10  and  N_11
REMARK    8  A    between atoms: C_12  and  C_14
REMARK                            x       y       z     vdW  Elec       q    Type
REMARK                         _______ _______ _______ _____ _____    ______ ____
ROOT
ATOM      1  C   UNL     1      46.429   7.816  12.296  0.00  0.00    +0.000 A 
ATOM      2  C   UNL     1      47.486   7.445  11.452  0.00  0.00    +0.000 A 
ATOM      3  C   UNL     1      48.805   7.709  11.817  0.00  0.00    +0.000 A 
ATOM      4  F   UNL     1      49.787   7.339  10.982  0.00  0.00    +0.000 F 
ATOM      5  C   UNL     1      49.114   8.344  13.019  0.00  0.00    +0.000 A 
ATOM      6  C   UNL     1      48.056   8.732  13.838  0.00  0.00    +0.000 A 
ATOM      7  F   UNL     1      48.304   9.371  14.990  0.00  0.00    +0.000 F 
ATOM      8  C   UNL     1      46.728   8.474  13.493  0.00  0.00    +0.000 A 
ENDROOT
BRANCH   1   9
ATOM      9  C   UNL     1      44.999   7.538  11.897  0.00  0.00    +0.000 C 
BRANCH   9  10
ATOM     10  N   UNL     1      44.950   6.647  10.743  0.00  0.00    +0.000 NA
ATOM     11  H   UNL     1      45.892   6.570  10.352  0.00  0.00    +0.000 HD
BRANCH  10  13
ATOM     12  C   UNL     1      43.000   5.186  11.341  0.00  0.00    +0.000 C 
ATOM     13  C   UNL     1      44.510   5.278  11.075  0.00  0.00    +0.000 C 
BRANCH  13  14
ATOM     14  C   UNL     1      44.920   4.308   9.968  0.00  0.00    +0.000 A 
ATOM     15  C   UNL     1      45.651   4.748   8.862  0.00  0.00    +0.000 A 
ATOM     16  C   UNL     1      46.043   3.824   7.897  0.00  0.00    +0.000 A 
ATOM     17  C   UNL     1      45.701   2.489   8.055  0.00  0.00    +0.000 A 
ATOM     18  C   UNL     1      44.976   2.131   9.180  0.00  0.00    +0.000 A 
ATOM     19  N   UNL     1      44.580   3.003  10.134  0.00  0.00    +0.000 NA
ENDBRANCH  13  14
ENDBRANCH  10  13
ENDBRANCH   9  10
ENDBRANCH   1   9
BRANCH   5  20
ATOM     20  C   UNL     1      50.535   8.622  13.399  0.00  0.00    +0.000 C 
BRANCH  20  21
ATOM     21  N   UNL     1      51.040   7.623  14.308  0.00  0.00    +0.000 N 
ATOM     22  C   UNL     1      51.534   7.959  15.543  0.00  0.00    +0.000 C 
ATOM     23  O   UNL     1      51.510   9.110  15.970  0.00  0.00    +0.000 OA
ATOM     24  H   UNL     1      51.314   6.735  13.899  0.00  0.00    +0.000 HD
BRANCH  22  25
ATOM     25  C   UNL     1      52.042   6.854  16.363  0.00  0.00    +0.000 A 
ATOM     26  C   UNL     1      53.384   6.818  16.713  0.00  0.00    +0.000 A 
ATOM     27  S   UNL     1      53.797   5.495  17.705  0.00  0.00    +0.000 S 
ATOM     28  C   UNL     1      52.205   4.896  17.664  0.00  0.00    +0.000 A 
ATOM     29  N   UNL     1      51.872   3.749  18.312  0.00  0.00    +0.000 NA
ATOM     30  C   UNL     1      50.639   3.392  18.166  0.00  0.00    +0.000 A 
ATOM     31  N   UNL     1      49.708   4.082  17.433  0.00  0.00    +0.000 N 
ATOM     32  C   UNL     1      49.989   5.267  16.796  0.00  0.00    +0.000 A 
ATOM     33  O   UNL     1      49.118   5.896  16.204  0.00  0.00    +0.000 OA
ATOM     34  C   UNL     1      51.367   5.703  16.915  0.00  0.00    +0.000 A 
ATOM     35  H   UNL     1      48.757   3.754  17.367  0.00  0.00    +0.000 HD
ENDBRANCH  22  25
ENDBRANCH  20  21
ENDBRANCH   5  20
TORSDOF 7
ENDMDL
MODEL 8
REMARK VINA RESULT:    -6.758      1.771      2.677
REMARK INTER + INTRA:         -10.206
REMARK INTER:                  -9.714
REMARK INTRA:                  -0.492
REMARK UNBOUND:                -0.682
REMARK  Name = 
REMARK  8 active torsions:
REMARK  status: ('A' for Active; 'I' for Inactive)
REMARK    1  A    between atoms: C_1  and  C_2
REMARK    2  A    between atoms: C_2  and  N_3
REMARK    3  A    between atoms: C_2  and  C_27
REMARK    4  A    between atoms: N_3  and  C_4
REMARK    5  A    between atoms: C_4  and  C_5
REMARK    6  A    between atoms: C_9  and  C_10
REMARK    7  A    between atoms: C_10  and  N_11
REMARK    8  A    between atoms: C_12  and  C_14
REMARK                            x       y       z     vdW  Elec       q    Type
REMARK                         _______ _______ _______ _____ _____    ______ ____
ROOT
ATOM      1  C   UNL     1      44.962   5.799  11.545  0.00  0.00    +0.000 A 
ATOM      2  C   UNL     1      46.199   5.255  11.920  0.00  0.00    +0.000 A 
ATOM      3  C   UNL     1      47.107   6.011  12.659  0.00  0.00    +0.000 A 
ATOM      4  F   UNL     1      48.280   5.454  12.997  0.00  0.00    +0.000 F 
ATOM      5  C   UNL     1      46.820   7.319  13.046  0.00  0.00    +0.000 A 
ATOM      6  C   UNL     1      45.599   7.860  12.647  0.00  0.00    +0.000 A 
ATOM      7  F   UNL     1      45.291   9.124  12.972  0.00  0.00    +0.000 F 
ATOM      8  C   UNL     1      44.675   7.119  11.909  0.00  0.00    +0.000 A 
ENDROOT
BRANCH   1   9
ATOM      9  C   UNL     1      43.982   4.984  10.737  0.00  0.00    +0.000 C 
BRANCH   9  10
ATOM     10  N   UNL     1      44.657   3.869  10.081  0.00  0.00    +0.000 NA
ATOM     11  H   UNL     1      43.991   3.098   9.985  0.00  0.00    +0.000 HD
BRANCH  10  13
ATOM     12  C   UNL     1      46.010   5.456   8.687  0.00  0.00    +0.000 C 
ATOM     13  C   UNL     1      45.142   4.190   8.726  0.00  0.00    +0.000 C 
BRANCH  13  14
ATOM     14  C   UNL     1      45.904   3.000   8.142  0.00  0.00    +0.000 A 
ATOM     15  C   UNL     1      45.651   1.699   8.583  0.00  0.00    +0.000 A 
ATOM     16  C   UNL     1      46.335   0.638   7.995  0.00  0.00    +0.000 A 
ATOM     17  C   UNL     1      47.250   0.896   6.985  0.00  0.00    +0.000 A 
ATOM     18  C   UNL     1      47.445   2.213   6.603  0.00  0.00    +0.000 A 
ATOM     19  N   UNL     1      46.798   3.264   7.154  0.00  0.00    +0.000 NA
ENDBRANCH  13  14
ENDBRANCH  10  13
ENDBRANCH   9  10
ENDBRANCH   1   9
BRANCH   5  20
ATOM     20  C   UNL     1      47.803   8.121  13.839  0.00  0.00    +0.000 C 
BRANCH  20  21
ATOM     21  N   UNL     1      47.873   7.663  15.205  0.00  0.00    +0.000 N 
ATOM     22  C   UNL     1      48.990   7.035  15.696  0.00  0.00    +0.000 C 
ATOM     23  O   UNL     1      50.011   6.891  15.029  0.00  0.00    +0.000 OA
ATOM     24  H   UNL     1      46.988   7.528  15.684  0.00  0.00    +0.000 HD
BRANCH  22  25
ATOM     25  C   UNL     1      48.927   6.595  17.095  0.00  0.00    +0.000 A 
ATOM     26  C   UNL     1      48.354   5.369  17.403  0.00  0.00    +0.000 A 
ATOM     27  S   UNL     1      48.403   4.991  19.065  0.00  0.00    +0.000 S 
ATOM     28  C   UNL     1      49.151   6.473  19.436  0.00  0.00    +0.000 A 
ATOM     29  N   UNL     1      49.460   6.799  20.720  0.00  0.00    +0.000 NA
ATOM     30  C   UNL     1      49.989   7.968  20.861  0.00  0.00    +0.000 A 
ATOM     31  N   UNL     1      50.242   8.840  19.834  0.00  0.00    +0.000 N 
ATOM     32  C   UNL     1      49.984   8.538  18.517  0.00  0.00    +0.000 A 
ATOM     33  O   UNL     1      50.284   9.312  17.614  0.00  0.00    +0.000 OA
ATOM     34  C   UNL     1      49.372   7.240  18.306  0.00  0.00    +0.000 A 
ATOM     35  H   UNL     1      50.668   9.737  20.010  0.00  0.00    +0.000 HD
ENDBRANCH  22  25
ENDBRANCH  20  21
ENDBRANCH   5  20
TORSDOF 7
ENDMDL
MODEL 9
REMARK VINA RESULT:    -6.724      4.221      5.498
REMARK INTER + INTRA:         -10.157
REMARK INTER:                  -9.786
REMARK INTRA:                  -0.371
REMARK UNBOUND:                -0.682
REMARK  Name = 
REMARK  8 active torsions:
REMARK  status: ('A' for Active; 'I' for Inactive)
REMARK    1  A    between atoms: C_1  and  C_2
REMARK    2  A    between atoms: C_2  and  N_3
REMARK    3  A    between atoms: C_2  and  C_27
REMARK    4  A    between atoms: N_3  and  C_4
REMARK    5  A    between atoms: C_4  and  C_5
REMARK    6  A    between atoms: C_9  and  C_10
REMARK    7  A    between atoms: C_10  and  N_11
REMARK    8  A    between atoms: C_12  and  C_14
REMARK                            x       y       z     vdW  Elec       q    Type
REMARK                         _______ _______ _______ _____ _____    ______ ____
ROOT
ATOM      1  C   UNL     1      44.568   4.347  11.761  0.00  0.00    +0.000 A 
ATOM      2  C   UNL     1      45.673   4.285  12.621  0.00  0.00    +0.000 A 
ATOM      3  C   UNL     1      46.262   5.454  13.099  0.00  0.00    +0.000 A 
ATOM      4  F   UNL     1      47.318   5.350  13.920  0.00  0.00    +0.000 F 
ATOM      5  C   UNL     1      45.778   6.711  12.740  0.00  0.00    +0.000 A 
ATOM      6  C   UNL     1      44.695   6.764  11.864  0.00  0.00    +0.000 A 
ATOM      7  F   UNL     1      44.214   7.950  11.470  0.00  0.00    +0.000 F 
ATOM      8  C   UNL     1      44.090   5.604  11.377  0.00  0.00    +0.000 A 
ENDROOT
BRANCH   1   9
ATOM      9  C   UNL     1      43.935   3.081  11.235  0.00  0.00    +0.000 C 
BRANCH   9  10
ATOM     10  N   UNL     1      44.811   2.431  10.266  0.00  0.00    +0.000 NA
ATOM     11  H   UNL     1      44.717   1.418  10.372  0.00  0.00    +0.000 HD
BRANCH  10  13
ATOM     12  C   UNL     1      43.999   4.198   8.681  0.00  0.00    +0.000 C 
ATOM     13  C   UNL     1      44.478   2.750   8.865  0.00  0.00    +0.000 C 
BRANCH  13  14
ATOM     14  C   UNL     1      45.674   2.463   7.959  0.00  0.00    +0.000 A 
ATOM     15  C   UNL     1      46.435   1.302   8.120  0.00  0.00    +0.000 A 
ATOM     16  C   UNL     1      47.490   1.054   7.246  0.00  0.00    +0.000 A 
ATOM     17  C   UNL     1      47.761   1.964   6.234  0.00  0.00    +0.000 A 
ATOM     18  C   UNL     1      46.961   3.091   6.139  0.00  0.00    +0.000 A 
ATOM     19  N   UNL     1      45.931   3.359   6.971  0.00  0.00    +0.000 NA
ENDBRANCH  13  14
ENDBRANCH  10  13
ENDBRANCH   9  10
ENDBRANCH   1   9
BRANCH   5  20
ATOM     20  C   UNL     1      46.419   7.959  13.260  0.00  0.00    +0.000 C 
BRANCH  20  21
ATOM     21  N   UNL     1      47.683   8.209  12.611  0.00  0.00    +0.000 N 
ATOM     22  C   UNL     1      48.859   8.248  13.317  0.00  0.00    +0.000 C 
ATOM     23  O   UNL     1      48.912   8.005  14.520  0.00  0.00    +0.000 OA
ATOM     24  H   UNL     1      47.645   8.663  11.703  0.00  0.00    +0.000 HD
BRANCH  22  25
ATOM     25  C   UNL     1      50.073   8.536  12.545  0.00  0.00    +0.000 A 
ATOM     26  C   UNL     1      50.385   7.758  11.440  0.00  0.00    +0.000 A 
ATOM     27  S   UNL     1      51.800   8.256  10.631  0.00  0.00    +0.000 S 
ATOM     28  C   UNL     1      52.072   9.501  11.758  0.00  0.00    +0.000 A 
ATOM     29  N   UNL     1      53.155  10.316  11.653  0.00  0.00    +0.000 NA
ATOM     30  C   UNL     1      53.258  11.193  12.596  0.00  0.00    +0.000 A 
ATOM     31  N   UNL     1      52.371  11.332  13.632  0.00  0.00    +0.000 N 
ATOM     32  C   UNL     1      51.240  10.559  13.755  0.00  0.00    +0.000 A 
ATOM     33  O   UNL     1      50.431  10.752  14.656  0.00  0.00    +0.000 OA
ATOM     34  C   UNL     1      51.088   9.545  12.730  0.00  0.00    +0.000 A 
ATOM     35  H   UNL     1      52.502  12.045  14.332  0.00  0.00    +0.000 HD
ENDBRANCH  22  25
ENDBRANCH  20  21
ENDBRANCH   5  20
TORSDOF 7
ENDMDL
