MODEL 1
REMARK VINA RESULT:    -7.988      0.000      0.000
REMARK INTER + INTRA:         -11.837
REMARK INTER:                 -11.024
REMARK INTRA:                  -0.813
REMARK UNBOUND:                -0.813
REMARK  Name = 
REMARK  8 active torsions:
REMARK  status: ('A' for Active; 'I' for Inactive)
REMARK    1  A    between atoms: C_1  and  C_2
REMARK    2  A    between atoms: C_2  and  C_3
REMARK    3  A    between atoms: C_2  and  C_5
REMARK    4  A    between atoms: C_3  and  N_4
REMARK    5  A    between atoms: C_8  and  C_9
REMARK    6  A    between atoms: C_9  and  S_10
REMARK    7  A    between atoms: S_10  and  C_11
REMARK    8  A    between atoms: C_16  and  C_17
REMARK                            x       y       z     vdW  Elec       q    Type
REMARK                         _______ _______ _______ _____ _____    ______ ____
ROOT
ATOM      1  C   UNL     1      43.331   4.210  11.194  0.00  0.00    +0.000 C 
ENDROOT
BRANCH   1   5
ATOM      2  C   UNL     1      45.628   2.688   7.973  0.00  0.00    +0.000 A 
ATOM      3  N   UNL     1      45.394   4.014   8.005  0.00  0.00    +0.000 NA
ATOM      4  C   UNL     1      44.668   4.480   9.047  0.00  0.00    +0.000 A 
ATOM      5  C   UNL     1      44.161   3.685  10.058  0.00  0.00    +0.000 A 
ATOM      6  C   UNL     1      44.478   2.349   9.936  0.00  0.00    +0.000 A 
ATOM      7  N   UNL     1      45.190   1.831   8.915  0.00  0.00    +0.000 NA
BRANCH   2   9
ATOM      8  C   UNL     1      46.960   3.254   5.910  0.00  0.00    +0.000 C 
ATOM      9  C   UNL     1      46.381   2.130   6.779  0.00  0.00    +0.000 C 
BRANCH   9  10
ATOM     10  C   UNL     1      47.476   1.161   7.268  0.00  0.00    +0.000 C 
BRANCH  10  11
ATOM     11  N   UNL     1      46.946  -0.141   7.696  0.00  0.00    +0.000 NA
ATOM     12  H   UNL     1      46.076  -0.336   7.202  0.00  0.00    +0.000 HD
ATOM     13  H   UNL     1      46.707  -0.096   8.687  0.00  0.00    +0.000 HD
ENDBRANCH  10  11
ENDBRANCH   9  10
ENDBRANCH   2   9
ENDBRANCH   1   5
BRANCH   1  14
ATOM     14  S   UNL     1      43.666   5.970  11.500  0.00  0.00    +0.000 S 
BRANCH  14  15
ATOM     15  C   UNL     1      45.282   5.927  12.232  0.00  0.00    +0.000 A 
ATOM     16  N   UNL     1      46.172   6.755  11.673  0.00  0.00    +0.000 NA
ATOM     17  C   UNL     1      47.411   6.743  12.185  0.00  0.00    +0.000 A 
ATOM     18 CL   UNL     1      48.506   7.817  11.417  0.00  0.00    +0.000 Cl
ATOM     19  C   UNL     1      47.815   5.955  13.220  0.00  0.00    +0.000 A 
ATOM     20  C   UNL     1      46.826   5.147  13.721  0.00  0.00    +0.000 A 
ATOM     21  N   UNL     1      45.547   5.106  13.255  0.00  0.00    +0.000 NA
BRANCH  20  22
ATOM     22  C   UNL     1      47.169   4.234  14.856  0.00  0.00    +0.000 C 
ATOM     23  N   UNL     1      47.101   4.784  16.105  0.00  0.00    +0.000 N 
ATOM     24  O   UNL     1      47.487   3.064  14.680  0.00  0.00    +0.000 OA
ATOM     25  H   UNL     1      46.830   5.750  16.237  0.00  0.00    +0.000 HD
ATOM     26  H   UNL     1      47.316   4.203  16.905  0.00  0.00    +0.000 HD
ENDBRANCH  20  22
ENDBRANCH  14  15
ENDBRANCH   1  14
TORSDOF 7
ENDMDL
MODEL 2
REMARK VINA RESULT:    -7.564      2.298      2.958
REMARK INTER + INTRA:         -11.251
REMARK INTER:                 -10.640
REMARK INTRA:                  -0.611
REMARK UNBOUND:                -0.813
REMARK  Name = 
REMARK  8 active torsions:
REMARK  status: ('A' for Active; 'I' for Inactive)
REMARK    1  A    between atoms: C_1  and  C_2
REMARK    2  A    between atoms: C_2  and  C_3
REMARK    3  A    between atoms: C_2  and  C_5
REMARK    4  A    between atoms: C_3  and  N_4
REMARK    5  A    between atoms: C_8  and  C_9
REMARK    6  A    between atoms: C_9  and  S_10
REMARK    7  A    between atoms: S_10  and  C_11
REMARK    8  A    between atoms: C_16  and  C_17
REMARK                            x       y       z     vdW  Elec       q    Type
REMARK                         _______ _______ _______ _____ _____    ______ ____
ROOT
ATOM      1  C   UNL     1      43.420   4.898  10.616  0.00  0.00    +0.000 C 
ENDROOT
BRANCH   1   5
ATOM      2  C   UNL     1      46.076   2.621   8.224  0.00  0.00    +0.000 A 
ATOM      3  N   UNL     1      45.316   1.961   9.118  0.00  0.00    +0.000 NA
ATOM      4  C   UNL     1      44.467   2.706   9.863  0.00  0.00    +0.000 A 
ATOM      5  C   UNL     1      44.344   4.079   9.762  0.00  0.00    +0.000 A 
ATOM      6  C   UNL     1      45.154   4.647   8.802  0.00  0.00    +0.000 A 
ATOM      7  N   UNL     1      46.022   3.954   8.038  0.00  0.00    +0.000 NA
BRANCH   2   9
ATOM      8  C   UNL     1      46.787   0.316   7.496  0.00  0.00    +0.000 C 
ATOM      9  C   UNL     1      47.086   1.818   7.422  0.00  0.00    +0.000 C 
BRANCH   9  10
ATOM     10  C   UNL     1      47.111   2.328   5.968  0.00  0.00    +0.000 C 
BRANCH  10  11
ATOM     11  N   UNL     1      48.397   2.095   5.296  0.00  0.00    +0.000 NA
ATOM     12  H   UNL     1      48.916   2.970   5.237  0.00  0.00    +0.000 HD
ATOM     13  H   UNL     1      48.225   1.801   4.335  0.00  0.00    +0.000 HD
ENDBRANCH  10  11
ENDBRANCH   9  10
ENDBRANCH   2   9
ENDBRANCH   1   5
BRANCH   1  14
ATOM     14  S   UNL     1      43.383   4.284  12.328  0.00  0.00    +0.000 S 
BRANCH  14  15
ATOM     15  C   UNL     1      44.889   4.941  12.998  0.00  0.00    +0.000 A 
ATOM     16  N   UNL     1      45.598   4.077  13.734  0.00  0.00    +0.000 NA
ATOM     17  C   UNL     1      46.735   4.536  14.274  0.00  0.00    +0.000 A 
ATOM     18 CL   UNL     1      47.590   3.385  15.214  0.00  0.00    +0.000 Cl
ATOM     19  C   UNL     1      47.208   5.805  14.123  0.00  0.00    +0.000 A 
ATOM     20  C   UNL     1      46.409   6.607  13.349  0.00  0.00    +0.000 A 
ATOM     21  N   UNL     1      45.243   6.211  12.768  0.00  0.00    +0.000 NA
BRANCH  20  22
ATOM     22  C   UNL     1      46.834   8.024  13.129  0.00  0.00    +0.000 C 
ATOM     23  N   UNL     1      47.118   8.743  14.257  0.00  0.00    +0.000 N 
ATOM     24  O   UNL     1      46.928   8.513  12.009  0.00  0.00    +0.000 OA
ATOM     25  H   UNL     1      47.044   8.325  15.176  0.00  0.00    +0.000 HD
ATOM     26  H   UNL     1      47.419   9.704  14.159  0.00  0.00    +0.000 HD
ENDBRANCH  20  22
ENDBRANCH  14  15
ENDBRANCH   1  14
TORSDOF 7
ENDMDL
MODEL 3
REMARK VINA RESULT:    -7.176      1.866      2.490
REMARK INTER + INTRA:         -10.716
REMARK INTER:                 -10.117
REMARK INTRA:                  -0.599
REMARK UNBOUND:                -0.813
REMARK  Name = 
REMARK  8 active torsions:
REMARK  status: ('A' for Active; 'I' for Inactive)
REMARK    1  A    between atoms: C_1  and  C_2
REMARK    2  A    between atoms: C_2  and  C_3
REMARK    3  A    between atoms: C_2  and  C_5
REMARK    4  A    between atoms: C_3  and  N_4
REMARK    5  A    between atoms: C_8  and  C_9
REMARK    6  A    between atoms: C_9  and  S_10
REMARK    7  A    between atoms: S_10  and  C_11
REMARK    8  A    between atoms: C_16  and  C_17
REMARK                            x       y       z     vdW  Elec       q    Type
REMARK                         _______ _______ _______ _____ _____    ______ ____
ROOT
ATOM      1  C   UNL     1      43.464   4.740  10.745  0.00  0.00    +0.000 C 
ENDROOT
BRANCH   1   5
ATOM      2  C   UNL     1      46.120   2.706   8.143  0.00  0.00    +0.000 A 
ATOM      3  N   UNL     1      45.413   1.968   9.020  0.00  0.00    +0.000 NA
ATOM      4  C   UNL     1      44.563   2.636   9.833  0.00  0.00    +0.000 A 
ATOM      5  C   UNL     1      44.388   4.007   9.816  0.00  0.00    +0.000 A 
ATOM      6  C   UNL     1      45.147   4.660   8.868  0.00  0.00    +0.000 A 
ATOM      7  N   UNL     1      46.013   4.045   8.039  0.00  0.00    +0.000 NA
BRANCH   2   9
ATOM      8  C   UNL     1      46.966   0.467   7.355  0.00  0.00    +0.000 C 
ATOM      9  C   UNL     1      47.131   1.989   7.265  0.00  0.00    +0.000 C 
BRANCH   9  10
ATOM     10  C   UNL     1      47.005   2.495   5.815  0.00  0.00    +0.000 C 
BRANCH  10  11
ATOM     11  N   UNL     1      48.276   2.461   5.078  0.00  0.00    +0.000 NA
ATOM     12  H   UNL     1      49.004   2.913   5.630  0.00  0.00    +0.000 HD
ATOM     13  H   UNL     1      48.183   3.009   4.224  0.00  0.00    +0.000 HD
ENDBRANCH  10  11
ENDBRANCH   9  10
ENDBRANCH   2   9
ENDBRANCH   1   5
BRANCH   1  14
ATOM     14  S   UNL     1      44.036   4.634  12.468  0.00  0.00    +0.000 S 
BRANCH  14  15
ATOM     15  C   UNL     1      45.208   5.963  12.561  0.00  0.00    +0.000 A 
ATOM     16  N   UNL     1      44.747   7.148  12.146  0.00  0.00    +0.000 NA
ATOM     17  C   UNL     1      45.605   8.176  12.184  0.00  0.00    +0.000 A 
ATOM     18 CL   UNL     1      44.955   9.663  11.628  0.00  0.00    +0.000 Cl
ATOM     19  C   UNL     1      46.895   8.094  12.611  0.00  0.00    +0.000 A 
ATOM     20  C   UNL     1      47.267   6.838  13.018  0.00  0.00    +0.000 A 
ATOM     21  N   UNL     1      46.452   5.747  13.009  0.00  0.00    +0.000 NA
BRANCH  20  22
ATOM     22  C   UNL     1      48.670   6.638  13.497  0.00  0.00    +0.000 C 
ATOM     23  N   UNL     1      49.656   6.957  12.606  0.00  0.00    +0.000 N 
ATOM     24  O   UNL     1      48.923   6.217  14.620  0.00  0.00    +0.000 OA
ATOM     25  H   UNL     1      49.432   7.310  11.683  0.00  0.00    +0.000 HD
ATOM     26  H   UNL     1      50.621   6.847  12.887  0.00  0.00    +0.000 HD
ENDBRANCH  20  22
ENDBRANCH  14  15
ENDBRANCH   1  14
TORSDOF 7
ENDMDL
MODEL 4
REMARK VINA RESULT:    -7.134      2.090      2.617
REMARK INTER + INTRA:         -10.657
REMARK INTER:                  -9.834
REMARK INTRA:                  -0.823
REMARK UNBOUND:                -0.813
REMARK  Name = 
REMARK  8 active torsions:
REMARK  status: ('A' for Active; 'I' for Inactive)
REMARK    1  A    between atoms: C_1  and  C_2
REMARK    2  A    between atoms: C_2  and  C_3
REMARK    3  A    between atoms: C_2  and  C_5
REMARK    4  A    between atoms: C_3  and  N_4
REMARK    5  A    between atoms: C_8  and  C_9
REMARK    6  A    between atoms: C_9  and  S_10
REMARK    7  A    between atoms: S_10  and  C_11
REMARK    8  A    between atoms: C_16  and  C_17
REMARK                            x       y       z     vdW  Elec       q    Type
REMARK                         _______ _______ _______ _____ _____    ______ ____
ROOT
ATOM      1  C   UNL     1      43.612   4.467  11.279  0.00  0.00    +0.000 C 
ENDROOT
BRANCH   1   5
ATOM      2  C   UNL     1      45.698   2.762   8.007  0.00  0.00    +0.000 A 
ATOM      3  N   UNL     1      45.588   4.103   8.050  0.00  0.00    +0.000 NA
ATOM      4  C   UNL     1      44.928   4.627   9.109  0.00  0.00    +0.000 A 
ATOM      5  C   UNL     1      44.368   3.875  10.125  0.00  0.00    +0.000 A 
ATOM      6  C   UNL     1      44.558   2.516   9.990  0.00  0.00    +0.000 A 
ATOM      7  N   UNL     1      45.199   1.942   8.953  0.00  0.00    +0.000 NA
BRANCH   2   9
ATOM      8  C   UNL     1      46.950   3.222   5.870  0.00  0.00    +0.000 C 
ATOM      9  C   UNL     1      46.373   2.144   6.795  0.00  0.00    +0.000 C 
BRANCH   9  10
ATOM     10  C   UNL     1      47.454   1.149   7.260  0.00  0.00    +0.000 C 
BRANCH  10  11
ATOM     11  N   UNL     1      46.904  -0.152   7.669  0.00  0.00    +0.000 NA
ATOM     12  H   UNL     1      45.888  -0.095   7.715  0.00  0.00    +0.000 HD
ATOM     13  H   UNL     1      47.221  -0.368   8.614  0.00  0.00    +0.000 HD
ENDBRANCH  10  11
ENDBRANCH   9  10
ENDBRANCH   2   9
ENDBRANCH   1   5
BRANCH   1  14
ATOM     14  S   UNL     1      44.005   6.229  11.495  0.00  0.00    +0.000 S 
BRANCH  14  15
ATOM     15  C   UNL     1      45.614   6.171  12.241  0.00  0.00    +0.000 A 
ATOM     16  N   UNL     1      45.733   5.298  13.248  0.00  0.00    +0.000 NA
ATOM     17  C   UNL     1      46.927   5.232  13.851  0.00  0.00    +0.000 A 
ATOM     18 CL   UNL     1      47.011   4.104  15.140  0.00  0.00    +0.000 Cl
ATOM     19  C   UNL     1      48.011   5.984  13.510  0.00  0.00    +0.000 A 
ATOM     20  C   UNL     1      47.784   6.843  12.464  0.00  0.00    +0.000 A 
ATOM     21  N   UNL     1      46.600   6.964  11.803  0.00  0.00    +0.000 NA
BRANCH  20  22
ATOM     22  C   UNL     1      48.908   7.722  12.017  0.00  0.00    +0.000 C 
ATOM     23  N   UNL     1      50.164   7.307  12.363  0.00  0.00    +0.000 N 
ATOM     24  O   UNL     1      48.720   8.750  11.378  0.00  0.00    +0.000 OA
ATOM     25  H   UNL     1      50.306   6.451  12.885  0.00  0.00    +0.000 HD
ATOM     26  H   UNL     1      50.958   7.864  12.075  0.00  0.00    +0.000 HD
ENDBRANCH  20  22
ENDBRANCH  14  15
ENDBRANCH   1  14
TORSDOF 7
ENDMDL
MODEL 5
REMARK VINA RESULT:    -6.678      2.908      7.279
REMARK INTER + INTRA:         -10.029
REMARK INTER:                  -9.787
REMARK INTRA:                  -0.242
REMARK UNBOUND:                -0.813
REMARK  Name = 
REMARK  8 active torsions:
REMARK  status: ('A' for Active; 'I' for Inactive)
REMARK    1  A    between atoms: C_1  and  C_2
REMARK    2  A    between atoms: C_2  and  C_3
REMARK    3  A    between atoms: C_2  and  C_5
REMARK    4  A    between atoms: C_3  and  N_4
REMARK    5  A    between atoms: C_8  and  C_9
REMARK    6  A    between atoms: C_9  and  S_10
REMARK    7  A    between atoms: S_10  and  C_11
REMARK    8  A    between atoms: C_16  and  C_17
REMARK                            x       y       z     vdW  Elec       q    Type
REMARK                         _______ _______ _______ _____ _____    ______ ____
ROOT
ATOM      1  C   UNL     1      47.055   6.751  12.070  0.00  0.00    +0.000 C 
ENDROOT
BRANCH   1   5
ATOM      2  C   UNL     1      47.454   4.413  15.583  0.00  0.00    +0.000 A 
ATOM      3  N   UNL     1      46.675   3.932  14.594  0.00  0.00    +0.000 NA
ATOM      4  C   UNL     1      46.571   4.689  13.478  0.00  0.00    +0.000 A 
ATOM      5  C   UNL     1      47.203   5.906  13.302  0.00  0.00    +0.000 A 
ATOM      6  C   UNL     1      47.989   6.291  14.368  0.00  0.00    +0.000 A 
ATOM      7  N   UNL     1      48.122   5.580  15.505  0.00  0.00    +0.000 NA
BRANCH   2   9
ATOM      8  C   UNL     1      48.608   2.526  16.789  0.00  0.00    +0.000 C 
ATOM      9  C   UNL     1      47.534   3.617  16.874  0.00  0.00    +0.000 C 
BRANCH   9  10
ATOM     10  C   UNL     1      47.780   4.575  18.055  0.00  0.00    +0.000 C 
BRANCH  10  11
ATOM     11  N   UNL     1      46.575   5.308  18.466  0.00  0.00    +0.000 NA
ATOM     12  H   UNL     1      45.823   4.648  18.663  0.00  0.00    +0.000 HD
ATOM     13  H   UNL     1      46.251   5.884  17.688  0.00  0.00    +0.000 HD
ENDBRANCH  10  11
ENDBRANCH   9  10
ENDBRANCH   2   9
ENDBRANCH   1   5
BRANCH   1  14
ATOM     14  S   UNL     1      45.319   6.846  11.537  0.00  0.00    +0.000 S 
BRANCH  14  15
ATOM     15  C   UNL     1      45.096   5.300  10.695  0.00  0.00    +0.000 A 
ATOM     16  N   UNL     1      44.290   4.433  11.318  0.00  0.00    +0.000 NA
ATOM     17  C   UNL     1      44.107   3.246  10.724  0.00  0.00    +0.000 A 
ATOM     18 CL   UNL     1      43.074   2.177  11.580  0.00  0.00    +0.000 Cl
ATOM     19  C   UNL     1      44.678   2.872   9.546  0.00  0.00    +0.000 A 
ATOM     20  C   UNL     1      45.482   3.833   8.989  0.00  0.00    +0.000 A 
ATOM     21  N   UNL     1      45.715   5.060   9.532  0.00  0.00    +0.000 NA
BRANCH  20  22
ATOM     22  C   UNL     1      46.167   3.518   7.696  0.00  0.00    +0.000 C 
ATOM     23  N   UNL     1      46.457   2.200   7.481  0.00  0.00    +0.000 N 
ATOM     24  O   UNL     1      46.447   4.384   6.877  0.00  0.00    +0.000 OA
ATOM     25  H   UNL     1      46.213   1.493   8.164  0.00  0.00    +0.000 HD
ATOM     26  H   UNL     1      46.912   1.935   6.617  0.00  0.00    +0.000 HD
ENDBRANCH  20  22
ENDBRANCH  14  15
ENDBRANCH   1  14
TORSDOF 7
ENDMDL
MODEL 6
REMARK VINA RESULT:    -6.609      4.192      5.976
REMARK INTER + INTRA:          -9.933
REMARK INTER:                  -9.178
REMARK INTRA:                  -0.755
REMARK UNBOUND:                -0.813
REMARK  Name = 
REMARK  8 active torsions:
REMARK  status: ('A' for Active; 'I' for Inactive)
REMARK    1  A    between atoms: C_1  and  C_2
REMARK    2  A    between atoms: C_2  and  C_3
REMARK    3  A    between atoms: C_2  and  C_5
REMARK    4  A    between atoms: C_3  and  N_4
REMARK    5  A    between atoms: C_8  and  C_9
REMARK    6  A    between atoms: C_9  and  S_10
REMARK    7  A    between atoms: S_10  and  C_11
REMARK    8  A    between atoms: C_16  and  C_17
REMARK                            x       y       z     vdW  Elec       q    Type
REMARK                         _______ _______ _______ _____ _____    ______ ____
ROOT
ATOM      1  C   UNL     1      48.545   6.328  13.947  0.00  0.00    +0.000 C 
ENDROOT
BRANCH   1   5
ATOM      2  C   UNL     1      44.627   5.023  12.996  0.00  0.00    +0.000 A 
ATOM      3  N   UNL     1      45.443   4.153  13.621  0.00  0.00    +0.000 NA
ATOM      4  C   UNL     1      46.685   4.594  13.925  0.00  0.00    +0.000 A 
ATOM      5  C   UNL     1      47.154   5.861  13.631  0.00  0.00    +0.000 A 
ATOM      6  C   UNL     1      46.229   6.673  13.011  0.00  0.00    +0.000 A 
ATOM      7  N   UNL     1      44.983   6.283  12.679  0.00  0.00    +0.000 NA
BRANCH   2   9
ATOM      8  C   UNL     1      42.432   5.655  11.933  0.00  0.00    +0.000 C 
ATOM      9  C   UNL     1      43.250   4.533  12.582  0.00  0.00    +0.000 C 
BRANCH   9  10
ATOM     10  C   UNL     1      43.397   3.316  11.649  0.00  0.00    +0.000 C 
BRANCH  10  11
ATOM     11  N   UNL     1      43.514   2.042  12.373  0.00  0.00    +0.000 NA
ATOM     12  H   UNL     1      44.458   1.948  12.748  0.00  0.00    +0.000 HD
ATOM     13  H   UNL     1      43.389   1.271  11.718  0.00  0.00    +0.000 HD
ENDBRANCH  10  11
ENDBRANCH   9  10
ENDBRANCH   2   9
ENDBRANCH   1   5
BRANCH   1  14
ATOM     14  S   UNL     1      48.599   7.234  15.522  0.00  0.00    +0.000 S 
BRANCH  14  15
ATOM     15  C   UNL     1      48.649   5.919  16.713  0.00  0.00    +0.000 A 
ATOM     16  N   UNL     1      48.163   6.237  17.919  0.00  0.00    +0.000 NA
ATOM     17  C   UNL     1      48.196   5.278  18.854  0.00  0.00    +0.000 A 
ATOM     18 CL   UNL     1      47.570   5.752  20.379  0.00  0.00    +0.000 Cl
ATOM     19  C   UNL     1      48.685   4.021  18.660  0.00  0.00    +0.000 A 
ATOM     20  C   UNL     1      49.155   3.799  17.390  0.00  0.00    +0.000 A 
ATOM     21  N   UNL     1      49.153   4.722  16.389  0.00  0.00    +0.000 NA
BRANCH  20  22
ATOM     22  C   UNL     1      49.723   2.451  17.075  0.00  0.00    +0.000 C 
ATOM     23  N   UNL     1      50.732   2.023  17.892  0.00  0.00    +0.000 N 
ATOM     24  O   UNL     1      49.310   1.769  16.145  0.00  0.00    +0.000 OA
ATOM     25  H   UNL     1      51.059   2.594  18.661  0.00  0.00    +0.000 HD
ATOM     26  H   UNL     1      51.143   1.114  17.724  0.00  0.00    +0.000 HD
ENDBRANCH  20  22
ENDBRANCH  14  15
ENDBRANCH   1  14
TORSDOF 7
ENDMDL
MODEL 7
REMARK VINA RESULT:    -6.481      3.905      5.608
REMARK INTER + INTRA:          -9.757
REMARK INTER:                  -8.958
REMARK INTRA:                  -0.799
REMARK UNBOUND:                -0.813
REMARK  Name = 
REMARK  8 active torsions:
REMARK  status: ('A' for Active; 'I' for Inactive)
REMARK    1  A    between atoms: C_1  and  C_2
REMARK    2  A    between atoms: C_2  and  C_3
REMARK    3  A    between atoms: C_2  and  C_5
REMARK    4  A    between atoms: C_3  and  N_4
REMARK    5  A    between atoms: C_8  and  C_9
REMARK    6  A    between atoms: C_9  and  S_10
REMARK    7  A    between atoms: S_10  and  C_11
REMARK    8  A    between atoms: C_16  and  C_17
REMARK                            x       y       z     vdW  Elec       q    Type
REMARK                         _______ _______ _______ _____ _____    ______ ____
ROOT
ATOM      1  C   UNL     1      48.745   6.685  13.147  0.00  0.00    +0.000 C 
ENDROOT
BRANCH   1   5
ATOM      2  C   UNL     1      45.029   5.154  11.802  0.00  0.00    +0.000 A 
ATOM      3  N   UNL     1      45.605   4.560  12.864  0.00  0.00    +0.000 NA
ATOM      4  C   UNL     1      46.784   5.071  13.284  0.00  0.00    +0.000 A 
ATOM      5  C   UNL     1      47.421   6.146  12.691  0.00  0.00    +0.000 A 
ATOM      6  C   UNL     1      46.733   6.689  11.626  0.00  0.00    +0.000 A 
ATOM      7  N   UNL     1      45.561   6.214  11.162  0.00  0.00    +0.000 NA
BRANCH   2   9
ATOM      8  C   UNL     1      43.676   3.047  11.525  0.00  0.00    +0.000 C 
ATOM      9  C   UNL     1      43.739   4.558  11.267  0.00  0.00    +0.000 C 
BRANCH   9  10
ATOM     10  C   UNL     1      42.536   5.296  11.886  0.00  0.00    +0.000 C 
BRANCH  10  11
ATOM     11  N   UNL     1      42.609   5.394  13.351  0.00  0.00    +0.000 NA
ATOM     12  H   UNL     1      43.555   5.177  13.662  0.00  0.00    +0.000 HD
ATOM     13  H   UNL     1      42.004   4.685  13.765  0.00  0.00    +0.000 HD
ENDBRANCH  10  11
ENDBRANCH   9  10
ENDBRANCH   2   9
ENDBRANCH   1   5
BRANCH   1  14
ATOM     14  S   UNL     1      48.594   7.556  14.736  0.00  0.00    +0.000 S 
BRANCH  14  15
ATOM     15  C   UNL     1      49.120   6.321  15.897  0.00  0.00    +0.000 A 
ATOM     16  N   UNL     1      50.430   6.332  16.172  0.00  0.00    +0.000 NA
ATOM     17  C   UNL     1      50.873   5.406  17.032  0.00  0.00    +0.000 A 
ATOM     18 CL   UNL     1      52.560   5.467  17.333  0.00  0.00    +0.000 Cl
ATOM     19  C   UNL     1      50.089   4.468  17.634  0.00  0.00    +0.000 A 
ATOM     20  C   UNL     1      48.764   4.545  17.286  0.00  0.00    +0.000 A 
ATOM     21  N   UNL     1      48.241   5.458  16.422  0.00  0.00    +0.000 NA
BRANCH  20  22
ATOM     22  C   UNL     1      47.819   3.553  17.886  0.00  0.00    +0.000 C 
ATOM     23  N   UNL     1      48.200   3.013  19.082  0.00  0.00    +0.000 N 
ATOM     24  O   UNL     1      46.765   3.243  17.343  0.00  0.00    +0.000 OA
ATOM     25  H   UNL     1      49.071   3.283  19.524  0.00  0.00    +0.000 HD
ATOM     26  H   UNL     1      47.590   2.343  19.531  0.00  0.00    +0.000 HD
ENDBRANCH  20  22
ENDBRANCH  14  15
ENDBRANCH   1  14
TORSDOF 7
ENDMDL
MODEL 8
REMARK VINA RESULT:    -6.259      3.759      5.529
REMARK INTER + INTRA:          -9.450
REMARK INTER:                  -8.432
REMARK INTRA:                  -1.018
REMARK UNBOUND:                -0.813
REMARK  Name = 
REMARK  8 active torsions:
REMARK  status: ('A' for Active; 'I' for Inactive)
REMARK    1  A    between atoms: C_1  and  C_2
REMARK    2  A    between atoms: C_2  and  C_3
REMARK    3  A    between atoms: C_2  and  C_5
REMARK    4  A    between atoms: C_3  and  N_4
REMARK    5  A    between atoms: C_8  and  C_9
REMARK    6  A    between atoms: C_9  and  S_10
REMARK    7  A    between atoms: S_10  and  C_11
REMARK    8  A    between atoms: C_16  and  C_17
REMARK                            x       y       z     vdW  Elec       q    Type
REMARK                         _______ _______ _______ _____ _____    ______ ____
ROOT
ATOM      1  C   UNL     1      47.776   8.385  13.750  0.00  0.00    +0.000 C 
ENDROOT
BRANCH   1   5
ATOM      2  C   UNL     1      44.838   6.230  11.585  0.00  0.00    +0.000 A 
ATOM      3  N   UNL     1      44.608   7.535  11.826  0.00  0.00    +0.000 NA
ATOM      4  C   UNL     1      45.564   8.206  12.508  0.00  0.00    +0.000 A 
ATOM      5  C   UNL     1      46.737   7.636  12.967  0.00  0.00    +0.000 A 
ATOM      6  C   UNL     1      46.877   6.302  12.647  0.00  0.00    +0.000 A 
ATOM      7  N   UNL     1      45.954   5.585  11.977  0.00  0.00    +0.000 NA
BRANCH   2   9
ATOM      8  C   UNL     1      44.314   4.150  10.263  0.00  0.00    +0.000 C 
ATOM      9  C   UNL     1      43.752   5.436  10.880  0.00  0.00    +0.000 C 
BRANCH   9  10
ATOM     10  C   UNL     1      42.605   5.145  11.868  0.00  0.00    +0.000 C 
BRANCH  10  11
ATOM     11  N   UNL     1      42.914   5.548  13.247  0.00  0.00    +0.000 NA
ATOM     12  H   UNL     1      43.747   6.136  13.254  0.00  0.00    +0.000 HD
ATOM     13  H   UNL     1      43.146   4.719  13.794  0.00  0.00    +0.000 HD
ENDBRANCH  10  11
ENDBRANCH   9  10
ENDBRANCH   2   9
ENDBRANCH   1   5
BRANCH   1  14
ATOM     14  S   UNL     1      49.218   7.337  14.108  0.00  0.00    +0.000 S 
BRANCH  14  15
ATOM     15  C   UNL     1      48.765   6.583  15.649  0.00  0.00    +0.000 A 
ATOM     16  N   UNL     1      48.895   7.375  16.720  0.00  0.00    +0.000 NA
ATOM     17  C   UNL     1      48.579   6.840  17.907  0.00  0.00    +0.000 A 
ATOM     18 CL   UNL     1      48.778   7.901  19.239  0.00  0.00    +0.000 Cl
ATOM     19  C   UNL     1      48.140   5.563  18.091  0.00  0.00    +0.000 A 
ATOM     20  C   UNL     1      48.039   4.839  16.930  0.00  0.00    +0.000 A 
ATOM     21  N   UNL     1      48.341   5.314  15.690  0.00  0.00    +0.000 NA
BRANCH  20  22
ATOM     22  C   UNL     1      47.575   3.419  17.023  0.00  0.00    +0.000 C 
ATOM     23  N   UNL     1      48.533   2.464  16.829  0.00  0.00    +0.000 N 
ATOM     24  O   UNL     1      46.409   3.127  17.262  0.00  0.00    +0.000 OA
ATOM     25  H   UNL     1      49.495   2.720  16.639  0.00  0.00    +0.000 HD
ATOM     26  H   UNL     1      48.270   1.490  16.891  0.00  0.00    +0.000 HD
ENDBRANCH  20  22
ENDBRANCH  14  15
ENDBRANCH   1  14
TORSDOF 7
ENDMDL
MODEL 9
REMARK VINA RESULT:    -5.749      4.025      5.877
REMARK INTER + INTRA:          -8.747
REMARK INTER:                  -8.148
REMARK INTRA:                  -0.599
REMARK UNBOUND:                -0.813
REMARK  Name = 
REMARK  8 active torsions:
REMARK  status: ('A' for Active; 'I' for Inactive)
REMARK    1  A    between atoms: C_1  and  C_2
REMARK    2  A    between atoms: C_2  and  C_3
REMARK    3  A    between atoms: C_2  and  C_5
REMARK    4  A    between atoms: C_3  and  N_4
REMARK    5  A    between atoms: C_8  and  C_9
REMARK    6  A    between atoms: C_9  and  S_10
REMARK    7  A    between atoms: S_10  and  C_11
REMARK    8  A    between atoms: C_16  and  C_17
REMARK                            x       y       z     vdW  Elec       q    Type
REMARK                         _______ _______ _______ _____ _____    ______ ____
ROOT
ATOM      1  C   UNL     1      47.908   5.532  15.000  0.00  0.00    +0.000 C 
ENDROOT
BRANCH   1   5
ATOM      2  C   UNL     1      45.351   4.506  11.780  0.00  0.00    +0.000 A 
ATOM      3  N   UNL     1      45.840   5.761  11.817  0.00  0.00    +0.000 NA
ATOM      4  C   UNL     1      46.663   6.063  12.847  0.00  0.00    +0.000 A 
ATOM      5  C   UNL     1      47.018   5.175  13.845  0.00  0.00    +0.000 A 
ATOM      6  C   UNL     1      46.477   3.916  13.697  0.00  0.00    +0.000 A 
ATOM      7  N   UNL     1      45.646   3.563  12.696  0.00  0.00    +0.000 NA
BRANCH   2   9
ATOM      8  C   UNL     1      44.955   3.109   9.721  0.00  0.00    +0.000 C 
ATOM      9  C   UNL     1      44.371   4.160  10.673  0.00  0.00    +0.000 C 
BRANCH   9  10
ATOM     10  C   UNL     1      43.038   3.695  11.292  0.00  0.00    +0.000 C 
BRANCH  10  11
ATOM     11  N   UNL     1      43.049   2.281  11.692  0.00  0.00    +0.000 NA
ATOM     12  H   UNL     1      43.644   1.750  11.058  0.00  0.00    +0.000 HD
ATOM     13  H   UNL     1      42.110   1.897  11.591  0.00  0.00    +0.000 HD
ENDBRANCH  10  11
ENDBRANCH   9  10
ENDBRANCH   2   9
ENDBRANCH   1   5
BRANCH   1  14
ATOM     14  S   UNL     1      47.515   4.540  16.472  0.00  0.00    +0.000 S 
BRANCH  14  15
ATOM     15  C   UNL     1      49.108   4.334  17.226  0.00  0.00    +0.000 A 
ATOM     16  N   UNL     1      49.584   5.426  17.837  0.00  0.00    +0.000 NA
ATOM     17  C   UNL     1      50.792   5.319  18.407  0.00  0.00    +0.000 A 
ATOM     18 CL   UNL     1      51.350   6.755  19.161  0.00  0.00    +0.000 Cl
ATOM     19  C   UNL     1      51.554   4.190  18.405  0.00  0.00    +0.000 A 
ATOM     20  C   UNL     1      50.973   3.129  17.757  0.00  0.00    +0.000 A 
ATOM     21  N   UNL     1      49.751   3.162  17.156  0.00  0.00    +0.000 NA
BRANCH  20  22
ATOM     22  C   UNL     1      51.733   1.842  17.689  0.00  0.00    +0.000 C 
ATOM     23  N   UNL     1      52.823   1.750  18.508  0.00  0.00    +0.000 N 
ATOM     24  O   UNL     1      51.399   0.924  16.949  0.00  0.00    +0.000 OA
ATOM     25  H   UNL     1      53.083   2.513  19.120  0.00  0.00    +0.000 HD
ATOM     26  H   UNL     1      53.364   0.895  18.504  0.00  0.00    +0.000 HD
ENDBRANCH  20  22
ENDBRANCH  14  15
ENDBRANCH   1  14
TORSDOF 7
ENDMDL
