MODEL 1
REMARK VINA RESULT:    -7.600      0.000      0.000
REMARK INTER + INTRA:         -10.496
REMARK INTER:                  -9.821
REMARK INTRA:                  -0.675
REMARK UNBOUND:                -0.675
REMARK  Name = 
REMARK  6 active torsions:
REMARK  status: ('A' for Active; 'I' for Inactive)
REMARK    1  A    between atoms: C_1  and  C_2
REMARK    2  A    between atoms: C_2  and  C_3
REMARK    3  A    between atoms: C_2  and  C_14
REMARK    4  A    between atoms: C_3  and  N_4
REMARK    5  A    between atoms: N_4  and  C_5
REMARK    6  A    between atoms: C_8  and  C_9
REMARK                            x       y       z     vdW  Elec       q    Type
REMARK                         _______ _______ _______ _____ _____    ______ ____
ROOT
ATOM      1  N   UNL     1      43.822   4.890   9.848  0.00  0.00    +0.000 N 
ATOM      2  H   UNL     1      43.943   5.807   9.421  0.00  0.00    +0.000 HD
ENDROOT
BRANCH   1   3
ATOM      3  C   UNL     1      44.658   3.934   9.268  0.00  0.00    +0.000 A 
ATOM      4  C   UNL     1      45.605   4.343   8.324  0.00  0.00    +0.000 A 
ATOM      5  C   UNL     1      46.412   3.409   7.671  0.00  0.00    +0.000 A 
ATOM      6  C   UNL     1      46.237   2.068   7.978  0.00  0.00    +0.000 A 
ATOM      7  N   UNL     1      45.310   1.611   8.861  0.00  0.00    +0.000 NA
ATOM      8  C   UNL     1      44.540   2.552   9.458  0.00  0.00    +0.000 A 
BRANCH   6   9
ATOM      9  C   UNL     1      47.089   1.028   7.322  0.00  0.00    +0.000 C 
ATOM     10  N   UNL     1      46.789  -0.265   7.654  0.00  0.00    +0.000 N 
ATOM     11  O   UNL     1      48.001   1.305   6.549  0.00  0.00    +0.000 OA
ATOM     12  H   UNL     1      46.030  -0.446   8.302  0.00  0.00    +0.000 HD
ATOM     13  H   UNL     1      47.324  -1.023   7.259  0.00  0.00    +0.000 HD
ENDBRANCH   6   9
ENDBRANCH   1   3
BRANCH   1  14
ATOM     14  C   UNL     1      43.694   4.952  11.298  0.00  0.00    +0.000 C 
BRANCH  14  16
ATOM     15  C   UNL     1      45.581   3.984  12.761  0.00  0.00    +0.000 C 
ATOM     16  C   UNL     1      45.072   5.077  11.872  0.00  0.00    +0.000 C 
BRANCH  16  17
ATOM     17  C   UNL     1      45.689   6.410  11.945  0.00  0.00    +0.000 A 
ATOM     18  C   UNL     1      44.914   7.565  12.125  0.00  0.00    +0.000 A 
ATOM     19  C   UNL     1      45.528   8.816  12.239  0.00  0.00    +0.000 A 
ATOM     20  C   UNL     1      46.916   8.923  12.185  0.00  0.00    +0.000 A 
ATOM     21  C   UNL     1      47.692   7.783  11.999  0.00  0.00    +0.000 A 
ATOM     22  C   UNL     1      47.081   6.537  11.874  0.00  0.00    +0.000 A 
ENDBRANCH  16  17
ENDBRANCH  14  16
ENDBRANCH   1  14
TORSDOF 5
ENDMDL
MODEL 2
REMARK VINA RESULT:    -7.583      1.501      2.083
REMARK INTER + INTRA:         -10.474
REMARK INTER:                  -9.637
REMARK INTRA:                  -0.837
REMARK UNBOUND:                -0.675
REMARK  Name = 
REMARK  6 active torsions:
REMARK  status: ('A' for Active; 'I' for Inactive)
REMARK    1  A    between atoms: C_1  and  C_2
REMARK    2  A    between atoms: C_2  and  C_3
REMARK    3  A    between atoms: C_2  and  C_14
REMARK    4  A    between atoms: C_3  and  N_4
REMARK    5  A    between atoms: N_4  and  C_5
REMARK    6  A    between atoms: C_8  and  C_9
REMARK                            x       y       z     vdW  Elec       q    Type
REMARK                         _______ _______ _______ _____ _____    ______ ____
ROOT
ATOM      1  N   UNL     1      43.627   3.247  10.444  0.00  0.00    +0.000 N 
ATOM      2  H   UNL     1      43.019   4.024  10.190  0.00  0.00    +0.000 HD
ENDROOT
BRANCH   1   3
ATOM      3  C   UNL     1      44.621   3.034   9.486  0.00  0.00    +0.000 A 
ATOM      4  C   UNL     1      45.036   4.105   8.688  0.00  0.00    +0.000 A 
ATOM      5  C   UNL     1      45.977   3.917   7.674  0.00  0.00    +0.000 A 
ATOM      6  C   UNL     1      46.477   2.638   7.477  0.00  0.00    +0.000 A 
ATOM      7  N   UNL     1      46.086   1.555   8.200  0.00  0.00    +0.000 NA
ATOM      8  C   UNL     1      45.159   1.784   9.161  0.00  0.00    +0.000 A 
BRANCH   6   9
ATOM      9  C   UNL     1      47.502   2.385   6.418  0.00  0.00    +0.000 C 
ATOM     10  N   UNL     1      47.403   3.181   5.310  0.00  0.00    +0.000 N 
ATOM     11  O   UNL     1      48.368   1.521   6.521  0.00  0.00    +0.000 OA
ATOM     12  H   UNL     1      46.668   3.878   5.265  0.00  0.00    +0.000 HD
ATOM     13  H   UNL     1      48.053   3.066   4.548  0.00  0.00    +0.000 HD
ENDBRANCH   6   9
ENDBRANCH   1   3
BRANCH   1  14
ATOM     14  C   UNL     1      43.974   3.236  11.859  0.00  0.00    +0.000 C 
BRANCH  14  16
ATOM     15  C   UNL     1      42.792   5.506  12.154  0.00  0.00    +0.000 C 
ATOM     16  C   UNL     1      44.014   4.658  12.330  0.00  0.00    +0.000 C 
BRANCH  16  17
ATOM     17  C   UNL     1      45.322   5.307  12.508  0.00  0.00    +0.000 A 
ATOM     18  C   UNL     1      46.159   4.979  13.584  0.00  0.00    +0.000 A 
ATOM     19  C   UNL     1      47.417   5.575  13.705  0.00  0.00    +0.000 A 
ATOM     20  C   UNL     1      47.854   6.492  12.751  0.00  0.00    +0.000 A 
ATOM     21  C   UNL     1      47.027   6.828  11.684  0.00  0.00    +0.000 A 
ATOM     22  C   UNL     1      45.766   6.243  11.568  0.00  0.00    +0.000 A 
ENDBRANCH  16  17
ENDBRANCH  14  16
ENDBRANCH   1  14
TORSDOF 5
ENDMDL
MODEL 3
REMARK VINA RESULT:    -7.360      0.940      1.745
REMARK INTER + INTRA:         -10.187
REMARK INTER:                  -9.512
REMARK INTRA:                  -0.675
REMARK UNBOUND:                -0.675
REMARK  Name = 
REMARK  6 active torsions:
REMARK  status: ('A' for Active; 'I' for Inactive)
REMARK    1  A    between atoms: C_1  and  C_2
REMARK    2  A    between atoms: C_2  and  C_3
REMARK    3  A    between atoms: C_2  and  C_14
REMARK    4  A    between atoms: C_3  and  N_4
REMARK    5  A    between atoms: N_4  and  C_5
REMARK    6  A    between atoms: C_8  and  C_9
REMARK                            x       y       z     vdW  Elec       q    Type
REMARK                         _______ _______ _______ _____ _____    ______ ____
ROOT
ATOM      1  N   UNL     1      43.702   4.848   9.782  0.00  0.00    +0.000 N 
ATOM      2  H   UNL     1      43.817   5.759   9.343  0.00  0.00    +0.000 HD
ENDROOT
BRANCH   1   3
ATOM      3  C   UNL     1      44.567   3.897   9.234  0.00  0.00    +0.000 A 
ATOM      4  C   UNL     1      45.524   4.308   8.301  0.00  0.00    +0.000 A 
ATOM      5  C   UNL     1      46.360   3.378   7.680  0.00  0.00    +0.000 A 
ATOM      6  C   UNL     1      46.204   2.039   8.008  0.00  0.00    +0.000 A 
ATOM      7  N   UNL     1      45.270   1.580   8.882  0.00  0.00    +0.000 NA
ATOM      8  C   UNL     1      44.471   2.517   9.447  0.00  0.00    +0.000 A 
BRANCH   6   9
ATOM      9  C   UNL     1      47.088   1.004   7.387  0.00  0.00    +0.000 C 
ATOM     10  N   UNL     1      46.782  -0.290   7.707  0.00  0.00    +0.000 N 
ATOM     11  O   UNL     1      48.028   1.286   6.651  0.00  0.00    +0.000 OA
ATOM     12  H   UNL     1      45.999  -0.476   8.323  0.00  0.00    +0.000 HD
ATOM     13  H   UNL     1      47.337  -1.045   7.334  0.00  0.00    +0.000 HD
ENDBRANCH   6   9
ENDBRANCH   1   3
BRANCH   1  14
ATOM     14  C   UNL     1      43.543   4.930  11.228  0.00  0.00    +0.000 C 
BRANCH  14  16
ATOM     15  C   UNL     1      43.601   7.504  11.187  0.00  0.00    +0.000 C 
ATOM     16  C   UNL     1      44.170   6.211  11.684  0.00  0.00    +0.000 C 
BRANCH  16  17
ATOM     17  C   UNL     1      45.548   6.181  12.197  0.00  0.00    +0.000 A 
ATOM     18  C   UNL     1      46.556   6.974  11.628  0.00  0.00    +0.000 A 
ATOM     19  C   UNL     1      47.847   6.964  12.164  0.00  0.00    +0.000 A 
ATOM     20  C   UNL     1      48.140   6.172  13.273  0.00  0.00    +0.000 A 
ATOM     21  C   UNL     1      47.148   5.377  13.838  0.00  0.00    +0.000 A 
ATOM     22  C   UNL     1      45.863   5.378  13.298  0.00  0.00    +0.000 A 
ENDBRANCH  16  17
ENDBRANCH  14  16
ENDBRANCH   1  14
TORSDOF 5
ENDMDL
MODEL 4
REMARK VINA RESULT:    -7.092      3.434      6.554
REMARK INTER + INTRA:          -9.839
REMARK INTER:                  -9.470
REMARK INTRA:                  -0.370
REMARK UNBOUND:                -0.675
REMARK  Name = 
REMARK  6 active torsions:
REMARK  status: ('A' for Active; 'I' for Inactive)
REMARK    1  A    between atoms: C_1  and  C_2
REMARK    2  A    between atoms: C_2  and  C_3
REMARK    3  A    between atoms: C_2  and  C_14
REMARK    4  A    between atoms: C_3  and  N_4
REMARK    5  A    between atoms: N_4  and  C_5
REMARK    6  A    between atoms: C_8  and  C_9
REMARK                            x       y       z     vdW  Elec       q    Type
REMARK                         _______ _______ _______ _____ _____    ______ ____
ROOT
ATOM      1  N   UNL     1      45.222   5.922  10.638  0.00  0.00    +0.000 N 
ATOM      2  H   UNL     1      44.215   5.776  10.619  0.00  0.00    +0.000 HD
ENDROOT
BRANCH   1   3
ATOM      3  C   UNL     1      45.764   5.622  11.890  0.00  0.00    +0.000 A 
ATOM      4  C   UNL     1      47.001   6.171  12.243  0.00  0.00    +0.000 A 
ATOM      5  C   UNL     1      47.608   5.840  13.457  0.00  0.00    +0.000 A 
ATOM      6  C   UNL     1      46.954   4.946  14.292  0.00  0.00    +0.000 A 
ATOM      7  N   UNL     1      45.767   4.358  13.986  0.00  0.00    +0.000 NA
ATOM      8  C   UNL     1      45.225   4.697  12.791  0.00  0.00    +0.000 A 
BRANCH   6   9
ATOM      9  C   UNL     1      47.550   4.574  15.612  0.00  0.00    +0.000 C 
ATOM     10  N   UNL     1      47.520   3.240  15.909  0.00  0.00    +0.000 N 
ATOM     11  O   UNL     1      48.025   5.401  16.385  0.00  0.00    +0.000 OA
ATOM     12  H   UNL     1      47.112   2.594  15.243  0.00  0.00    +0.000 HD
ATOM     13  H   UNL     1      47.896   2.911  16.785  0.00  0.00    +0.000 HD
ENDBRANCH   6   9
ENDBRANCH   1   3
BRANCH   1  14
ATOM     14  C   UNL     1      45.888   5.448   9.432  0.00  0.00    +0.000 C 
BRANCH  14  16
ATOM     15  C   UNL     1      43.869   3.861   9.626  0.00  0.00    +0.000 C 
ATOM     16  C   UNL     1      45.151   4.236   8.950  0.00  0.00    +0.000 C 
BRANCH  16  17
ATOM     17  C   UNL     1      45.888   3.217   8.187  0.00  0.00    +0.000 A 
ATOM     18  C   UNL     1      45.870   1.867   8.566  0.00  0.00    +0.000 A 
ATOM     19  C   UNL     1      46.539   0.910   7.798  0.00  0.00    +0.000 A 
ATOM     20  C   UNL     1      47.222   1.289   6.644  0.00  0.00    +0.000 A 
ATOM     21  C   UNL     1      47.251   2.628   6.265  0.00  0.00    +0.000 A 
ATOM     22  C   UNL     1      46.593   3.585   7.037  0.00  0.00    +0.000 A 
ENDBRANCH  16  17
ENDBRANCH  14  16
ENDBRANCH   1  14
TORSDOF 5
ENDMDL
MODEL 5
REMARK VINA RESULT:    -7.039      3.374      5.999
REMARK INTER + INTRA:          -9.771
REMARK INTER:                  -8.923
REMARK INTRA:                  -0.848
REMARK UNBOUND:                -0.675
REMARK  Name = 
REMARK  6 active torsions:
REMARK  status: ('A' for Active; 'I' for Inactive)
REMARK    1  A    between atoms: C_1  and  C_2
REMARK    2  A    between atoms: C_2  and  C_3
REMARK    3  A    between atoms: C_2  and  C_14
REMARK    4  A    between atoms: C_3  and  N_4
REMARK    5  A    between atoms: N_4  and  C_5
REMARK    6  A    between atoms: C_8  and  C_9
REMARK                            x       y       z     vdW  Elec       q    Type
REMARK                         _______ _______ _______ _____ _____    ______ ____
ROOT
ATOM      1  N   UNL     1      43.709   5.575  12.317  0.00  0.00    +0.000 N 
ATOM      2  H   UNL     1      43.322   4.921  12.994  0.00  0.00    +0.000 HD
ENDROOT
BRANCH   1   3
ATOM      3  C   UNL     1      45.030   5.913  12.620  0.00  0.00    +0.000 A 
ATOM      4  C   UNL     1      45.649   6.943  11.904  0.00  0.00    +0.000 A 
ATOM      5  C   UNL     1      46.990   7.265  12.131  0.00  0.00    +0.000 A 
ATOM      6  C   UNL     1      47.687   6.526  13.075  0.00  0.00    +0.000 A 
ATOM      7  N   UNL     1      47.147   5.494  13.775  0.00  0.00    +0.000 NA
ATOM      8  C   UNL     1      45.848   5.209  13.510  0.00  0.00    +0.000 A 
BRANCH   6   9
ATOM      9  C   UNL     1      49.119   6.842  13.370  0.00  0.00    +0.000 C 
ATOM     10  N   UNL     1      49.891   7.120  12.276  0.00  0.00    +0.000 N 
ATOM     11  O   UNL     1      49.580   6.843  14.508  0.00  0.00    +0.000 OA
ATOM     12  H   UNL     1      49.469   7.101  11.355  0.00  0.00    +0.000 HD
ATOM     13  H   UNL     1      50.870   7.335  12.392  0.00  0.00    +0.000 HD
ENDBRANCH   6   9
ENDBRANCH   1   3
BRANCH   1  14
ATOM     14  C   UNL     1      43.345   5.253  10.943  0.00  0.00    +0.000 C 
BRANCH  14  16
ATOM     15  C   UNL     1      43.431   2.827  11.803  0.00  0.00    +0.000 C 
ATOM     16  C   UNL     1      43.686   3.814  10.706  0.00  0.00    +0.000 C 
BRANCH  16  17
ATOM     17  C   UNL     1      44.653   3.481   9.648  0.00  0.00    +0.000 A 
ATOM     18  C   UNL     1      44.973   2.150   9.345  0.00  0.00    +0.000 A 
ATOM     19  C   UNL     1      45.858   1.858   8.303  0.00  0.00    +0.000 A 
ATOM     20  C   UNL     1      46.421   2.888   7.551  0.00  0.00    +0.000 A 
ATOM     21  C   UNL     1      46.114   4.212   7.851  0.00  0.00    +0.000 A 
ATOM     22  C   UNL     1      45.241   4.505   8.898  0.00  0.00    +0.000 A 
ENDBRANCH  16  17
ENDBRANCH  14  16
ENDBRANCH   1  14
TORSDOF 5
ENDMDL
MODEL 6
REMARK VINA RESULT:    -6.725      3.183      6.603
REMARK INTER + INTRA:          -9.366
REMARK INTER:                  -8.911
REMARK INTRA:                  -0.454
REMARK UNBOUND:                -0.675
REMARK  Name = 
REMARK  6 active torsions:
REMARK  status: ('A' for Active; 'I' for Inactive)
REMARK    1  A    between atoms: C_1  and  C_2
REMARK    2  A    between atoms: C_2  and  C_3
REMARK    3  A    between atoms: C_2  and  C_14
REMARK    4  A    between atoms: C_3  and  N_4
REMARK    5  A    between atoms: N_4  and  C_5
REMARK    6  A    between atoms: C_8  and  C_9
REMARK                            x       y       z     vdW  Elec       q    Type
REMARK                         _______ _______ _______ _____ _____    ______ ____
ROOT
ATOM      1  N   UNL     1      44.039   3.360  11.322  0.00  0.00    +0.000 N 
ATOM      2  H   UNL     1      43.349   2.931  11.936  0.00  0.00    +0.000 HD
ENDROOT
BRANCH   1   3
ATOM      3  C   UNL     1      45.000   4.072  12.043  0.00  0.00    +0.000 A 
ATOM      4  C   UNL     1      45.913   3.369  12.836  0.00  0.00    +0.000 A 
ATOM      5  C   UNL     1      46.844   4.047  13.625  0.00  0.00    +0.000 A 
ATOM      6  C   UNL     1      46.828   5.434  13.606  0.00  0.00    +0.000 A 
ATOM      7  N   UNL     1      45.944   6.169  12.881  0.00  0.00    +0.000 NA
ATOM      8  C   UNL     1      45.049   5.467  12.144  0.00  0.00    +0.000 A 
BRANCH   6   9
ATOM      9  C   UNL     1      47.817   6.210  14.417  0.00  0.00    +0.000 C 
ATOM     10  N   UNL     1      47.681   7.569  14.357  0.00  0.00    +0.000 N 
ATOM     11  O   UNL     1      48.699   5.674  15.082  0.00  0.00    +0.000 OA
ATOM     12  H   UNL     1      46.942   7.968  13.789  0.00  0.00    +0.000 HD
ATOM     13  H   UNL     1      48.316   8.162  14.870  0.00  0.00    +0.000 HD
ENDBRANCH   6   9
ENDBRANCH   1   3
BRANCH   1  14
ATOM     14  C   UNL     1      44.455   2.484  10.235  0.00  0.00    +0.000 C 
BRANCH  14  16
ATOM     15  C   UNL     1      44.127   4.587   8.784  0.00  0.00    +0.000 C 
ATOM     16  C   UNL     1      44.910   3.351   9.100  0.00  0.00    +0.000 C 
BRANCH  16  17
ATOM     17  C   UNL     1      45.781   2.766   8.069  0.00  0.00    +0.000 A 
ATOM     18  C   UNL     1      46.178   3.504   6.945  0.00  0.00    +0.000 A 
ATOM     19  C   UNL     1      47.045   2.943   6.003  0.00  0.00    +0.000 A 
ATOM     20  C   UNL     1      47.529   1.648   6.179  0.00  0.00    +0.000 A 
ATOM     21  C   UNL     1      47.134   0.906   7.289  0.00  0.00    +0.000 A 
ATOM     22  C   UNL     1      46.260   1.461   8.223  0.00  0.00    +0.000 A 
ENDBRANCH  16  17
ENDBRANCH  14  16
ENDBRANCH   1  14
TORSDOF 5
ENDMDL
MODEL 7
REMARK VINA RESULT:    -6.555      3.483      6.218
REMARK INTER + INTRA:          -9.146
REMARK INTER:                  -8.700
REMARK INTRA:                  -0.446
REMARK UNBOUND:                -0.675
REMARK  Name = 
REMARK  6 active torsions:
REMARK  status: ('A' for Active; 'I' for Inactive)
REMARK    1  A    between atoms: C_1  and  C_2
REMARK    2  A    between atoms: C_2  and  C_3
REMARK    3  A    between atoms: C_2  and  C_14
REMARK    4  A    between atoms: C_3  and  N_4
REMARK    5  A    between atoms: N_4  and  C_5
REMARK    6  A    between atoms: C_8  and  C_9
REMARK                            x       y       z     vdW  Elec       q    Type
REMARK                         _______ _______ _______ _____ _____    ______ ____
ROOT
ATOM      1  N   UNL     1      44.362   4.043  13.242  0.00  0.00    +0.000 N 
ATOM      2  H   UNL     1      44.134   3.588  14.124  0.00  0.00    +0.000 HD
ENDROOT
BRANCH   1   3
ATOM      3  C   UNL     1      45.502   4.842  13.351  0.00  0.00    +0.000 A 
ATOM      4  C   UNL     1      45.415   6.198  13.019  0.00  0.00    +0.000 A 
ATOM      5  C   UNL     1      46.547   7.015  13.049  0.00  0.00    +0.000 A 
ATOM      6  C   UNL     1      47.758   6.439  13.406  0.00  0.00    +0.000 A 
ATOM      7  N   UNL     1      47.907   5.121  13.707  0.00  0.00    +0.000 NA
ATOM      8  C   UNL     1      46.783   4.366  13.649  0.00  0.00    +0.000 A 
BRANCH   6   9
ATOM      9  C   UNL     1      48.997   7.273  13.474  0.00  0.00    +0.000 C 
ATOM     10  N   UNL     1      49.908   7.044  12.479  0.00  0.00    +0.000 N 
ATOM     11  O   UNL     1      49.197   8.097  14.361  0.00  0.00    +0.000 OA
ATOM     12  H   UNL     1      49.702   6.349  11.771  0.00  0.00    +0.000 HD
ATOM     13  H   UNL     1      50.773   7.562  12.461  0.00  0.00    +0.000 HD
ENDBRANCH   6   9
ENDBRANCH   1   3
BRANCH   1  14
ATOM     14  C   UNL     1      44.206   3.162  12.092  0.00  0.00    +0.000 C 
BRANCH  14  16
ATOM     15  C   UNL     1      43.090   5.022  10.703  0.00  0.00    +0.000 C 
ATOM     16  C   UNL     1      44.189   4.017  10.861  0.00  0.00    +0.000 C 
BRANCH  16  17
ATOM     17  C   UNL     1      44.925   3.561   9.673  0.00  0.00    +0.000 A 
ATOM     18  C   UNL     1      45.492   4.473   8.771  0.00  0.00    +0.000 A 
ATOM     19  C   UNL     1      46.228   4.014   7.674  0.00  0.00    +0.000 A 
ATOM     20  C   UNL     1      46.412   2.647   7.474  0.00  0.00    +0.000 A 
ATOM     21  C   UNL     1      45.846   1.736   8.360  0.00  0.00    +0.000 A 
ATOM     22  C   UNL     1      45.102   2.191   9.448  0.00  0.00    +0.000 A 
ENDBRANCH  16  17
ENDBRANCH  14  16
ENDBRANCH   1  14
TORSDOF 5
ENDMDL
MODEL 8
REMARK VINA RESULT:    -6.530      3.696      6.502
REMARK INTER + INTRA:          -9.113
REMARK INTER:                  -9.100
REMARK INTRA:                  -0.013
REMARK UNBOUND:                -0.675
REMARK  Name = 
REMARK  6 active torsions:
REMARK  status: ('A' for Active; 'I' for Inactive)
REMARK    1  A    between atoms: C_1  and  C_2
REMARK    2  A    between atoms: C_2  and  C_3
REMARK    3  A    between atoms: C_2  and  C_14
REMARK    4  A    between atoms: C_3  and  N_4
REMARK    5  A    between atoms: N_4  and  C_5
REMARK    6  A    between atoms: C_8  and  C_9
REMARK                            x       y       z     vdW  Elec       q    Type
REMARK                         _______ _______ _______ _____ _____    ______ ____
ROOT
ATOM      1  N   UNL     1      45.821   5.598  11.183  0.00  0.00    +0.000 N 
ATOM      2  H   UNL     1      46.257   6.405  10.742  0.00  0.00    +0.000 HD
ENDROOT
BRANCH   1   3
ATOM      3  C   UNL     1      46.293   5.402  12.484  0.00  0.00    +0.000 A 
ATOM      4  C   UNL     1      47.296   6.243  12.976  0.00  0.00    +0.000 A 
ATOM      5  C   UNL     1      47.842   6.035  14.245  0.00  0.00    +0.000 A 
ATOM      6  C   UNL     1      47.368   4.968  14.993  0.00  0.00    +0.000 A 
ATOM      7  N   UNL     1      46.419   4.100  14.552  0.00  0.00    +0.000 NA
ATOM      8  C   UNL     1      45.930   4.331  13.309  0.00  0.00    +0.000 A 
BRANCH   6   9
ATOM      9  C   UNL     1      47.903   4.713  16.366  0.00  0.00    +0.000 C 
ATOM     10  N   UNL     1      47.457   5.572  17.333  0.00  0.00    +0.000 N 
ATOM     11  O   UNL     1      48.695   3.809  16.615  0.00  0.00    +0.000 OA
ATOM     12  H   UNL     1      46.808   6.308  17.080  0.00  0.00    +0.000 HD
ATOM     13  H   UNL     1      47.780   5.471  18.283  0.00  0.00    +0.000 HD
ENDBRANCH   6   9
ENDBRANCH   1   3
BRANCH   1  14
ATOM     14  C   UNL     1      44.393   5.504  10.912  0.00  0.00    +0.000 C 
BRANCH  14  16
ATOM     15  C   UNL     1      43.363   3.189  11.373  0.00  0.00    +0.000 C 
ATOM     16  C   UNL     1      44.106   4.107  10.453  0.00  0.00    +0.000 C 
BRANCH  16  17
ATOM     17  C   UNL     1      44.924   3.537   9.372  0.00  0.00    +0.000 A 
ATOM     18  C   UNL     1      45.483   4.348   8.373  0.00  0.00    +0.000 A 
ATOM     19  C   UNL     1      46.296   3.788   7.384  0.00  0.00    +0.000 A 
ATOM     20  C   UNL     1      46.566   2.421   7.388  0.00  0.00    +0.000 A 
ATOM     21  C   UNL     1      46.009   1.608   8.371  0.00  0.00    +0.000 A 
ATOM     22  C   UNL     1      45.189   2.163   9.352  0.00  0.00    +0.000 A 
ENDBRANCH  16  17
ENDBRANCH  14  16
ENDBRANCH   1  14
TORSDOF 5
ENDMDL
MODEL 9
REMARK VINA RESULT:    -5.992      3.604      6.787
REMARK INTER + INTRA:          -8.418
REMARK INTER:                  -7.878
REMARK INTRA:                  -0.541
REMARK UNBOUND:                -0.675
REMARK  Name = 
REMARK  6 active torsions:
REMARK  status: ('A' for Active; 'I' for Inactive)
REMARK    1  A    between atoms: C_1  and  C_2
REMARK    2  A    between atoms: C_2  and  C_3
REMARK    3  A    between atoms: C_2  and  C_14
REMARK    4  A    between atoms: C_3  and  N_4
REMARK    5  A    between atoms: N_4  and  C_5
REMARK    6  A    between atoms: C_8  and  C_9
REMARK                            x       y       z     vdW  Elec       q    Type
REMARK                         _______ _______ _______ _____ _____    ______ ____
ROOT
ATOM      1  N   UNL     1      45.055   5.535  11.968  0.00  0.00    +0.000 N 
ATOM      2  H   UNL     1      45.653   4.713  12.021  0.00  0.00    +0.000 HD
ENDROOT
BRANCH   1   3
ATOM      3  C   UNL     1      45.799   6.717  11.960  0.00  0.00    +0.000 A 
ATOM      4  C   UNL     1      47.191   6.642  11.855  0.00  0.00    +0.000 A 
ATOM      5  C   UNL     1      47.975   7.797  11.913  0.00  0.00    +0.000 A 
ATOM      6  C   UNL     1      47.332   9.014  12.089  0.00  0.00    +0.000 A 
ATOM      7  N   UNL     1      45.986   9.142  12.230  0.00  0.00    +0.000 NA
ATOM      8  C   UNL     1      45.269   7.993  12.183  0.00  0.00    +0.000 A 
BRANCH   6   9
ATOM      9  C   UNL     1      48.122  10.283  12.137  0.00  0.00    +0.000 C 
ATOM     10  N   UNL     1      49.399  10.192  11.656  0.00  0.00    +0.000 N 
ATOM     11  O   UNL     1      47.670  11.332  12.585  0.00  0.00    +0.000 OA
ATOM     12  H   UNL     1      49.732   9.303  11.302  0.00  0.00    +0.000 HD
ATOM     13  H   UNL     1      49.998  11.003  11.663  0.00  0.00    +0.000 HD
ENDBRANCH   6   9
ENDBRANCH   1   3
BRANCH   1  14
ATOM     14  C   UNL     1      43.949   5.373  11.033  0.00  0.00    +0.000 C 
BRANCH  14  16
ATOM     15  C   UNL     1      43.387   2.923  11.595  0.00  0.00    +0.000 C 
ATOM     16  C   UNL     1      43.908   3.933  10.621  0.00  0.00    +0.000 C 
BRANCH  16  17
ATOM     17  C   UNL     1      44.772   3.490   9.516  0.00  0.00    +0.000 A 
ATOM     18  C   UNL     1      45.395   4.411   8.661  0.00  0.00    +0.000 A 
ATOM     19  C   UNL     1      46.249   3.967   7.648  0.00  0.00    +0.000 A 
ATOM     20  C   UNL     1      46.496   2.605   7.486  0.00  0.00    +0.000 A 
ATOM     21  C   UNL     1      45.877   1.684   8.325  0.00  0.00    +0.000 A 
ATOM     22  C   UNL     1      45.015   2.125   9.329  0.00  0.00    +0.000 A 
ENDBRANCH  16  17
ENDBRANCH  14  16
ENDBRANCH   1  14
TORSDOF 5
ENDMDL
