MODEL 1
REMARK VINA RESULT:    -6.989      0.000      0.000
REMARK INTER + INTRA:          -9.865
REMARK INTER:                  -9.236
REMARK INTRA:                  -0.629
REMARK UNBOUND:                -0.629
REMARK  Name = 
REMARK  6 active torsions:
REMARK  status: ('A' for Active; 'I' for Inactive)
REMARK    1  A    between atoms: N_1  and  C_2
REMARK    2  A    between atoms: C_2  and  C_3
REMARK    3  A    between atoms: C_3  and  O_4
REMARK    4  A    between atoms: O_4  and  C_5
REMARK    5  A    between atoms: C_8  and  C_9
REMARK    6  A    between atoms: C_9  and  N_10
REMARK                            x       y       z     vdW  Elec       q    Type
REMARK                         _______ _______ _______ _____ _____    ______ ____
ROOT
ATOM      1  C   UNL     1      45.569   2.950   8.196  0.00  0.00    +0.000 A 
ATOM      2  C   UNL     1      44.839   2.480   9.285  0.00  0.00    +0.000 A 
ATOM      3  C   UNL     1      44.525   3.331  10.348  0.00  0.00    +0.000 A 
ATOM      4  C   UNL     1      44.932   4.671  10.340  0.00  0.00    +0.000 A 
ATOM      5  C   UNL     1      45.664   5.140   9.242  0.00  0.00    +0.000 A 
ATOM      6  C   UNL     1      45.976   4.286   8.177  0.00  0.00    +0.000 A 
ENDROOT
BRANCH   1   7
ATOM      7  O   UNL     1      45.939   2.214   7.100  0.00  0.00    +0.000 OA
BRANCH   7   8
ATOM      8  C   UNL     1      47.057   1.341   7.276  0.00  0.00    +0.000 C 
BRANCH   8   9
ATOM      9  C   UNL     1      48.316   2.023   6.733  0.00  0.00    +0.000 C 
BRANCH   9  10
ATOM     10  N   UNL     1      48.366   1.987   5.270  0.00  0.00    +0.000 NA
ATOM     11  H   UNL     1      48.886   2.796   4.933  0.00  0.00    +0.000 HD
ATOM     12  H   UNL     1      47.423   2.081   4.894  0.00  0.00    +0.000 HD
ENDBRANCH   9  10
ENDBRANCH   8   9
ENDBRANCH   7   8
ENDBRANCH   1   7
BRANCH   4  13
ATOM     13  C   UNL     1      44.583   5.585  11.486  0.00  0.00    +0.000 C 
BRANCH  13  14
ATOM     14  N   UNL     1      45.587   5.561  12.545  0.00  0.00    +0.000 N 
ATOM     15  C   UNL     1      45.552   4.698  13.618  0.00  0.00    +0.000 A 
ATOM     16  C   UNL     1      46.724   4.849  14.324  0.00  0.00    +0.000 A 
ATOM     17  C   UNL     1      47.495   5.831  13.663  0.00  0.00    +0.000 A 
ATOM     18  N   UNL     1      48.730   6.288  13.980  0.00  0.00    +0.000 NA
ATOM     19  C   UNL     1      49.217   7.231  13.148  0.00  0.00    +0.000 A 
ATOM     20  C   UNL     1      48.558   7.746  12.042  0.00  0.00    +0.000 A 
ATOM     21  C   UNL     1      47.289   7.269  11.720  0.00  0.00    +0.000 A 
ATOM     22  C   UNL     1      46.766   6.279  12.560  0.00  0.00    +0.000 A 
ENDBRANCH  13  14
ENDBRANCH   4  13
TORSDOF 6
ENDMDL
MODEL 2
REMARK VINA RESULT:    -6.454      1.312      2.008
REMARK INTER + INTRA:          -9.158
REMARK INTER:                  -8.584
REMARK INTRA:                  -0.574
REMARK UNBOUND:                -0.629
REMARK  Name = 
REMARK  6 active torsions:
REMARK  status: ('A' for Active; 'I' for Inactive)
REMARK    1  A    between atoms: N_1  and  C_2
REMARK    2  A    between atoms: C_2  and  C_3
REMARK    3  A    between atoms: C_3  and  O_4
REMARK    4  A    between atoms: O_4  and  C_5
REMARK    5  A    between atoms: C_8  and  C_9
REMARK    6  A    between atoms: C_9  and  N_10
REMARK                            x       y       z     vdW  Elec       q    Type
REMARK                         _______ _______ _______ _____ _____    ______ ____
ROOT
ATOM      1  C   UNL     1      45.231   2.827   8.938  0.00  0.00    +0.000 A 
ATOM      2  C   UNL     1      44.342   2.542   9.973  0.00  0.00    +0.000 A 
ATOM      3  C   UNL     1      43.863   3.565  10.796  0.00  0.00    +0.000 A 
ATOM      4  C   UNL     1      44.260   4.893  10.598  0.00  0.00    +0.000 A 
ATOM      5  C   UNL     1      45.152   5.175   9.555  0.00  0.00    +0.000 A 
ATOM      6  C   UNL     1      45.629   4.149   8.730  0.00  0.00    +0.000 A 
ENDROOT
BRANCH   1   7
ATOM      7  O   UNL     1      45.770   1.913   8.070  0.00  0.00    +0.000 OA
BRANCH   7   8
ATOM      8  C   UNL     1      46.566   2.446   7.009  0.00  0.00    +0.000 C 
BRANCH   8   9
ATOM      9  C   UNL     1      47.863   1.638   6.901  0.00  0.00    +0.000 C 
BRANCH   9  10
ATOM     10  N   UNL     1      48.553   1.883   5.634  0.00  0.00    +0.000 NA
ATOM     11  H   UNL     1      49.442   1.385   5.635  0.00  0.00    +0.000 HD
ATOM     12  H   UNL     1      48.784   2.873   5.556  0.00  0.00    +0.000 HD
ENDBRANCH   9  10
ENDBRANCH   8   9
ENDBRANCH   7   8
ENDBRANCH   1   7
BRANCH   4  13
ATOM     13  C   UNL     1      43.734   5.991  11.484  0.00  0.00    +0.000 C 
BRANCH  13  14
ATOM     14  N   UNL     1      44.764   6.958  11.847  0.00  0.00    +0.000 N 
ATOM     15  C   UNL     1      44.701   8.300  11.542  0.00  0.00    +0.000 A 
ATOM     16  C   UNL     1      45.754   8.930  12.166  0.00  0.00    +0.000 A 
ATOM     17  C   UNL     1      46.479   7.944  12.872  0.00  0.00    +0.000 A 
ATOM     18  N   UNL     1      47.576   8.101  13.651  0.00  0.00    +0.000 NA
ATOM     19  C   UNL     1      48.045   6.964  14.206  0.00  0.00    +0.000 A 
ATOM     20  C   UNL     1      47.504   5.700  14.029  0.00  0.00    +0.000 A 
ATOM     21  C   UNL     1      46.374   5.546  13.229  0.00  0.00    +0.000 A 
ATOM     22  C   UNL     1      45.858   6.713  12.652  0.00  0.00    +0.000 A 
ENDBRANCH  13  14
ENDBRANCH   4  13
TORSDOF 6
ENDMDL
MODEL 3
REMARK VINA RESULT:    -5.865      2.970      6.745
REMARK INTER + INTRA:          -8.380
REMARK INTER:                  -7.864
REMARK INTRA:                  -0.516
REMARK UNBOUND:                -0.629
REMARK  Name = 
REMARK  6 active torsions:
REMARK  status: ('A' for Active; 'I' for Inactive)
REMARK    1  A    between atoms: N_1  and  C_2
REMARK    2  A    between atoms: C_2  and  C_3
REMARK    3  A    between atoms: C_3  and  O_4
REMARK    4  A    between atoms: O_4  and  C_5
REMARK    5  A    between atoms: C_8  and  C_9
REMARK    6  A    between atoms: C_9  and  N_10
REMARK                            x       y       z     vdW  Elec       q    Type
REMARK                         _______ _______ _______ _____ _____    ______ ____
ROOT
ATOM      1  C   UNL     1      47.979   7.553  13.590  0.00  0.00    +0.000 A 
ATOM      2  C   UNL     1      47.808   6.270  13.073  0.00  0.00    +0.000 A 
ATOM      3  C   UNL     1      46.614   5.916  12.438  0.00  0.00    +0.000 A 
ATOM      4  C   UNL     1      45.570   6.841  12.303  0.00  0.00    +0.000 A 
ATOM      5  C   UNL     1      45.748   8.130  12.822  0.00  0.00    +0.000 A 
ATOM      6  C   UNL     1      46.946   8.482  13.457  0.00  0.00    +0.000 A 
ENDROOT
BRANCH   1   7
ATOM      7  O   UNL     1      49.098   8.015  14.234  0.00  0.00    +0.000 OA
BRANCH   7   8
ATOM      8  C   UNL     1      49.648   7.155  15.235  0.00  0.00    +0.000 C 
BRANCH   8   9
ATOM      9  C   UNL     1      48.858   7.330  16.535  0.00  0.00    +0.000 C 
BRANCH   9  10
ATOM     10  N   UNL     1      48.152   6.104  16.911  0.00  0.00    +0.000 NA
ATOM     11  H   UNL     1      47.978   5.548  16.074  0.00  0.00    +0.000 HD
ATOM     12  H   UNL     1      47.235   6.340  17.289  0.00  0.00    +0.000 HD
ENDBRANCH   9  10
ENDBRANCH   8   9
ENDBRANCH   7   8
ENDBRANCH   1   7
BRANCH   4  13
ATOM     13  C   UNL     1      44.289   6.455  11.610  0.00  0.00    +0.000 C 
BRANCH  13  14
ATOM     14  N   UNL     1      44.209   5.024  11.342  0.00  0.00    +0.000 N 
ATOM     15  C   UNL     1      43.506   4.133  12.123  0.00  0.00    +0.000 A 
ATOM     16  C   UNL     1      43.521   2.909  11.493  0.00  0.00    +0.000 A 
ATOM     17  C   UNL     1      44.253   3.057  10.294  0.00  0.00    +0.000 A 
ATOM     18  N   UNL     1      44.507   2.129   9.341  0.00  0.00    +0.000 NA
ATOM     19  C   UNL     1      45.235   2.575   8.296  0.00  0.00    +0.000 A 
ATOM     20  C   UNL     1      45.724   3.863   8.146  0.00  0.00    +0.000 A 
ATOM     21  C   UNL     1      45.456   4.814   9.129  0.00  0.00    +0.000 A 
ATOM     22  C   UNL     1      44.691   4.381  10.219  0.00  0.00    +0.000 A 
ENDBRANCH  13  14
ENDBRANCH   4  13
TORSDOF 6
ENDMDL
MODEL 4
REMARK VINA RESULT:    -5.838      2.963      6.247
REMARK INTER + INTRA:          -8.344
REMARK INTER:                  -7.769
REMARK INTRA:                  -0.575
REMARK UNBOUND:                -0.629
REMARK  Name = 
REMARK  6 active torsions:
REMARK  status: ('A' for Active; 'I' for Inactive)
REMARK    1  A    between atoms: N_1  and  C_2
REMARK    2  A    between atoms: C_2  and  C_3
REMARK    3  A    between atoms: C_3  and  O_4
REMARK    4  A    between atoms: O_4  and  C_5
REMARK    5  A    between atoms: C_8  and  C_9
REMARK    6  A    between atoms: C_9  and  N_10
REMARK                            x       y       z     vdW  Elec       q    Type
REMARK                         _______ _______ _______ _____ _____    ______ ____
ROOT
ATOM      1  C   UNL     1      47.440   7.799  13.503  0.00  0.00    +0.000 A 
ATOM      2  C   UNL     1      46.455   8.682  13.066  0.00  0.00    +0.000 A 
ATOM      3  C   UNL     1      45.305   8.203  12.433  0.00  0.00    +0.000 A 
ATOM      4  C   UNL     1      45.116   6.829  12.229  0.00  0.00    +0.000 A 
ATOM      5  C   UNL     1      46.108   5.946  12.673  0.00  0.00    +0.000 A 
ATOM      6  C   UNL     1      47.258   6.428  13.308  0.00  0.00    +0.000 A 
ENDROOT
BRANCH   1   7
ATOM      7  O   UNL     1      48.608   8.148  14.131  0.00  0.00    +0.000 OA
BRANCH   7   8
ATOM      8  C   UNL     1      49.768   7.396  13.767  0.00  0.00    +0.000 C 
BRANCH   8   9
ATOM      9  C   UNL     1      50.559   8.174  12.712  0.00  0.00    +0.000 C 
BRANCH   9  10
ATOM     10  N   UNL     1      50.753   7.391  11.490  0.00  0.00    +0.000 NA
ATOM     11  H   UNL     1      50.747   8.017  10.687  0.00  0.00    +0.000 HD
ATOM     12  H   UNL     1      49.963   6.759  11.361  0.00  0.00    +0.000 HD
ENDBRANCH   9  10
ENDBRANCH   8   9
ENDBRANCH   7   8
ENDBRANCH   1   7
BRANCH   4  13
ATOM     13  C   UNL     1      43.870   6.319  11.553  0.00  0.00    +0.000 C 
BRANCH  13  14
ATOM     14  N   UNL     1      43.922   4.884  11.296  0.00  0.00    +0.000 N 
ATOM     15  C   UNL     1      43.264   3.942  12.057  0.00  0.00    +0.000 A 
ATOM     16  C   UNL     1      43.409   2.719  11.441  0.00  0.00    +0.000 A 
ATOM     17  C   UNL     1      44.176   2.921  10.272  0.00  0.00    +0.000 A 
ATOM     18  N   UNL     1      44.548   2.012   9.340  0.00  0.00    +0.000 NA
ATOM     19  C   UNL     1      45.278   2.510   8.321  0.00  0.00    +0.000 A 
ATOM     20  C   UNL     1      45.663   3.834   8.179  0.00  0.00    +0.000 A 
ATOM     21  C   UNL     1      45.274   4.765   9.139  0.00  0.00    +0.000 A 
ATOM     22  C   UNL     1      44.503   4.277  10.202  0.00  0.00    +0.000 A 
ENDBRANCH  13  14
ENDBRANCH   4  13
TORSDOF 6
ENDMDL
MODEL 5
REMARK VINA RESULT:    -5.774      2.427      6.542
REMARK INTER + INTRA:          -8.260
REMARK INTER:                  -7.644
REMARK INTRA:                  -0.615
REMARK UNBOUND:                -0.629
REMARK  Name = 
REMARK  6 active torsions:
REMARK  status: ('A' for Active; 'I' for Inactive)
REMARK    1  A    between atoms: N_1  and  C_2
REMARK    2  A    between atoms: C_2  and  C_3
REMARK    3  A    between atoms: C_3  and  O_4
REMARK    4  A    between atoms: O_4  and  C_5
REMARK    5  A    between atoms: C_8  and  C_9
REMARK    6  A    between atoms: C_9  and  N_10
REMARK                            x       y       z     vdW  Elec       q    Type
REMARK                         _______ _______ _______ _____ _____    ______ ____
ROOT
ATOM      1  C   UNL     1      46.366   6.327  12.711  0.00  0.00    +0.000 A 
ATOM      2  C   UNL     1      45.381   5.364  12.918  0.00  0.00    +0.000 A 
ATOM      3  C   UNL     1      44.734   4.767  11.832  0.00  0.00    +0.000 A 
ATOM      4  C   UNL     1      45.063   5.121  10.517  0.00  0.00    +0.000 A 
ATOM      5  C   UNL     1      46.055   6.089  10.314  0.00  0.00    +0.000 A 
ATOM      6  C   UNL     1      46.703   6.683  11.403  0.00  0.00    +0.000 A 
ENDROOT
BRANCH   1   7
ATOM      7  O   UNL     1      47.065   6.982  13.691  0.00  0.00    +0.000 OA
BRANCH   7   8
ATOM      8  C   UNL     1      48.489   6.869  13.631  0.00  0.00    +0.000 C 
BRANCH   8   9
ATOM      9  C   UNL     1      49.054   6.898  15.054  0.00  0.00    +0.000 C 
BRANCH   9  10
ATOM     10  N   UNL     1      50.517   6.959  15.057  0.00  0.00    +0.000 NA
ATOM     11  H   UNL     1      50.818   7.800  14.567  0.00  0.00    +0.000 HD
ATOM     12  H   UNL     1      50.893   6.173  14.527  0.00  0.00    +0.000 HD
ENDBRANCH   9  10
ENDBRANCH   8   9
ENDBRANCH   7   8
ENDBRANCH   1   7
BRANCH   4  13
ATOM     13  C   UNL     1      44.367   4.468   9.351  0.00  0.00    +0.000 C 
BRANCH  13  14
ATOM     14  N   UNL     1      44.984   3.202   8.970  0.00  0.00    +0.000 N 
ATOM     15  C   UNL     1      44.530   1.970   9.387  0.00  0.00    +0.000 A 
ATOM     16  C   UNL     1      45.247   1.003   8.718  0.00  0.00    +0.000 A 
ATOM     17  C   UNL     1      46.162   1.664   7.868  0.00  0.00    +0.000 A 
ATOM     18  N   UNL     1      47.052   1.123   7.003  0.00  0.00    +0.000 NA
ATOM     19  C   UNL     1      47.792   2.018   6.317  0.00  0.00    +0.000 A 
ATOM     20  C   UNL     1      47.709   3.396   6.442  0.00  0.00    +0.000 A 
ATOM     21  C   UNL     1      46.789   3.946   7.332  0.00  0.00    +0.000 A 
ATOM     22  C   UNL     1      45.997   3.040   8.048  0.00  0.00    +0.000 A 
ENDBRANCH  13  14
ENDBRANCH   4  13
TORSDOF 6
ENDMDL
MODEL 6
REMARK VINA RESULT:    -5.489      2.890      6.974
REMARK INTER + INTRA:          -7.882
REMARK INTER:                  -7.438
REMARK INTRA:                  -0.444
REMARK UNBOUND:                -0.629
REMARK  Name = 
REMARK  6 active torsions:
REMARK  status: ('A' for Active; 'I' for Inactive)
REMARK    1  A    between atoms: N_1  and  C_2
REMARK    2  A    between atoms: C_2  and  C_3
REMARK    3  A    between atoms: C_3  and  O_4
REMARK    4  A    between atoms: O_4  and  C_5
REMARK    5  A    between atoms: C_8  and  C_9
REMARK    6  A    between atoms: C_9  and  N_10
REMARK                            x       y       z     vdW  Elec       q    Type
REMARK                         _______ _______ _______ _____ _____    ______ ____
ROOT
ATOM      1  C   UNL     1      47.573   5.464  14.617  0.00  0.00    +0.000 A 
ATOM      2  C   UNL     1      47.839   6.328  13.556  0.00  0.00    +0.000 A 
ATOM      3  C   UNL     1      46.983   6.378  12.452  0.00  0.00    +0.000 A 
ATOM      4  C   UNL     1      45.842   5.567  12.390  0.00  0.00    +0.000 A 
ATOM      5  C   UNL     1      45.579   4.702  13.460  0.00  0.00    +0.000 A 
ATOM      6  C   UNL     1      46.436   4.655  14.565  0.00  0.00    +0.000 A 
ENDROOT
BRANCH   1   7
ATOM      7  O   UNL     1      48.336   5.324  15.746  0.00  0.00    +0.000 OA
BRANCH   7   8
ATOM      8  C   UNL     1      48.131   4.127  16.502  0.00  0.00    +0.000 C 
BRANCH   8   9
ATOM      9  C   UNL     1      47.977   4.489  17.982  0.00  0.00    +0.000 C 
BRANCH   9  10
ATOM     10  N   UNL     1      46.704   5.160  18.248  0.00  0.00    +0.000 NA
ATOM     11  H   UNL     1      46.868   6.161  18.347  0.00  0.00    +0.000 HD
ATOM     12  H   UNL     1      46.332   4.845  19.144  0.00  0.00    +0.000 HD
ENDBRANCH   9  10
ENDBRANCH   8   9
ENDBRANCH   7   8
ENDBRANCH   1   7
BRANCH   4  13
ATOM     13  C   UNL     1      44.920   5.632  11.201  0.00  0.00    +0.000 C 
BRANCH  13  14
ATOM     14  N   UNL     1      44.870   4.374  10.463  0.00  0.00    +0.000 N 
ATOM     15  C   UNL     1      44.101   3.294  10.836  0.00  0.00    +0.000 A 
ATOM     16  C   UNL     1      44.179   2.349   9.838  0.00  0.00    +0.000 A 
ATOM     17  C   UNL     1      45.019   2.869   8.827  0.00  0.00    +0.000 A 
ATOM     18  N   UNL     1      45.365   2.305   7.645  0.00  0.00    +0.000 NA
ATOM     19  C   UNL     1      46.184   3.052   6.878  0.00  0.00    +0.000 A 
ATOM     20  C   UNL     1      46.680   4.303   7.211  0.00  0.00    +0.000 A 
ATOM     21  C   UNL     1      46.318   4.879   8.427  0.00  0.00    +0.000 A 
ATOM     22  C   UNL     1      45.457   4.129   9.238  0.00  0.00    +0.000 A 
ENDBRANCH  13  14
ENDBRANCH   4  13
TORSDOF 6
ENDMDL
MODEL 7
REMARK VINA RESULT:    -5.446      2.117      3.239
REMARK INTER + INTRA:          -7.825
REMARK INTER:                  -7.252
REMARK INTRA:                  -0.573
REMARK UNBOUND:                -0.629
REMARK  Name = 
REMARK  6 active torsions:
REMARK  status: ('A' for Active; 'I' for Inactive)
REMARK    1  A    between atoms: N_1  and  C_2
REMARK    2  A    between atoms: C_2  and  C_3
REMARK    3  A    between atoms: C_3  and  O_4
REMARK    4  A    between atoms: O_4  and  C_5
REMARK    5  A    between atoms: C_8  and  C_9
REMARK    6  A    between atoms: C_9  and  N_10
REMARK                            x       y       z     vdW  Elec       q    Type
REMARK                         _______ _______ _______ _____ _____    ______ ____
ROOT
ATOM      1  C   UNL     1      44.976   3.879  10.465  0.00  0.00    +0.000 A 
ATOM      2  C   UNL     1      45.231   3.544  11.794  0.00  0.00    +0.000 A 
ATOM      3  C   UNL     1      45.699   4.509  12.690  0.00  0.00    +0.000 A 
ATOM      4  C   UNL     1      45.916   5.829  12.275  0.00  0.00    +0.000 A 
ATOM      5  C   UNL     1      45.655   6.161  10.940  0.00  0.00    +0.000 A 
ATOM      6  C   UNL     1      45.185   5.193  10.044  0.00  0.00    +0.000 A 
ENDROOT
BRANCH   1   7
ATOM      7  O   UNL     1      44.520   3.023   9.497  0.00  0.00    +0.000 OA
BRANCH   7   8
ATOM      8  C   UNL     1      44.682   3.458   8.144  0.00  0.00    +0.000 C 
BRANCH   8   9
ATOM      9  C   UNL     1      46.056   3.011   7.635  0.00  0.00    +0.000 C 
BRANCH   9  10
ATOM     10  N   UNL     1      46.749   4.087   6.925  0.00  0.00    +0.000 NA
ATOM     11  H   UNL     1      47.687   4.191   7.308  0.00  0.00    +0.000 HD
ATOM     12  H   UNL     1      46.273   4.972   7.097  0.00  0.00    +0.000 HD
ENDBRANCH   9  10
ENDBRANCH   8   9
ENDBRANCH   7   8
ENDBRANCH   1   7
BRANCH   4  13
ATOM     13  C   UNL     1      46.412   6.867  13.249  0.00  0.00    +0.000 C 
BRANCH  13  14
ATOM     14  N   UNL     1      47.655   7.494  12.811  0.00  0.00    +0.000 N 
ATOM     15  C   UNL     1      48.864   6.837  12.739  0.00  0.00    +0.000 A 
ATOM     16  C   UNL     1      49.773   7.683  12.145  0.00  0.00    +0.000 A 
ATOM     17  C   UNL     1      49.100   8.888  11.845  0.00  0.00    +0.000 A 
ATOM     18  N   UNL     1      49.584   9.996  11.234  0.00  0.00    +0.000 NA
ATOM     19  C   UNL     1      48.691  10.994  11.078  0.00  0.00    +0.000 A 
ATOM     20  C   UNL     1      47.369  10.963  11.493  0.00  0.00    +0.000 A 
ATOM     21  C   UNL     1      46.876   9.820  12.118  0.00  0.00    +0.000 A 
ATOM     22  C   UNL     1      47.779   8.762  12.281  0.00  0.00    +0.000 A 
ENDBRANCH  13  14
ENDBRANCH   4  13
TORSDOF 6
ENDMDL
MODEL 8
REMARK VINA RESULT:    -5.171      3.547      5.462
REMARK INTER + INTRA:          -7.463
REMARK INTER:                  -6.798
REMARK INTRA:                  -0.665
REMARK UNBOUND:                -0.629
REMARK  Name = 
REMARK  6 active torsions:
REMARK  status: ('A' for Active; 'I' for Inactive)
REMARK    1  A    between atoms: N_1  and  C_2
REMARK    2  A    between atoms: C_2  and  C_3
REMARK    3  A    between atoms: C_3  and  O_4
REMARK    4  A    between atoms: O_4  and  C_5
REMARK    5  A    between atoms: C_8  and  C_9
REMARK    6  A    between atoms: C_9  and  N_10
REMARK                            x       y       z     vdW  Elec       q    Type
REMARK                         _______ _______ _______ _____ _____    ______ ____
ROOT
ATOM      1  C   UNL     1      44.798   5.296  12.896  0.00  0.00    +0.000 A 
ATOM      2  C   UNL     1      45.768   4.548  13.560  0.00  0.00    +0.000 A 
ATOM      3  C   UNL     1      47.014   5.108  13.857  0.00  0.00    +0.000 A 
ATOM      4  C   UNL     1      47.312   6.429  13.497  0.00  0.00    +0.000 A 
ATOM      5  C   UNL     1      46.332   7.177  12.832  0.00  0.00    +0.000 A 
ATOM      6  C   UNL     1      45.084   6.615  12.538  0.00  0.00    +0.000 A 
ENDROOT
BRANCH   1   7
ATOM      7  O   UNL     1      43.546   4.858  12.549  0.00  0.00    +0.000 OA
BRANCH   7   8
ATOM      8  C   UNL     1      43.343   4.562  11.165  0.00  0.00    +0.000 C 
BRANCH   8   9
ATOM      9  C   UNL     1      43.802   3.128  10.887  0.00  0.00    +0.000 C 
BRANCH   9  10
ATOM     10  N   UNL     1      43.049   2.152  11.677  0.00  0.00    +0.000 NA
ATOM     11  H   UNL     1      43.213   2.326  12.667  0.00  0.00    +0.000 HD
ATOM     12  H   UNL     1      43.404   1.215  11.492  0.00  0.00    +0.000 HD
ENDBRANCH   9  10
ENDBRANCH   8   9
ENDBRANCH   7   8
ENDBRANCH   1   7
BRANCH   4  13
ATOM     13  C   UNL     1      48.654   7.029  13.827  0.00  0.00    +0.000 C 
BRANCH  13  14
ATOM     14  N   UNL     1      48.660   7.708  15.118  0.00  0.00    +0.000 N 
ATOM     15  C   UNL     1      48.283   9.021  15.297  0.00  0.00    +0.000 A 
ATOM     16  C   UNL     1      48.265   9.278  16.650  0.00  0.00    +0.000 A 
ATOM     17  C   UNL     1      48.641   8.089  17.313  0.00  0.00    +0.000 A 
ATOM     18  N   UNL     1      48.737   7.860  18.645  0.00  0.00    +0.000 NA
ATOM     19  C   UNL     1      49.116   6.610  18.979  0.00  0.00    +0.000 A 
ATOM     20  C   UNL     1      49.409   5.591  18.086  0.00  0.00    +0.000 A 
ATOM     21  C   UNL     1      49.305   5.832  16.718  0.00  0.00    +0.000 A 
ATOM     22  C   UNL     1      48.900   7.119  16.342  0.00  0.00    +0.000 A 
ENDBRANCH  13  14
ENDBRANCH   4  13
TORSDOF 6
ENDMDL
MODEL 9
REMARK VINA RESULT:    -4.934      4.432      8.310
REMARK INTER + INTRA:          -7.149
REMARK INTER:                  -6.565
REMARK INTRA:                  -0.584
REMARK UNBOUND:                -0.629
REMARK  Name = 
REMARK  6 active torsions:
REMARK  status: ('A' for Active; 'I' for Inactive)
REMARK    1  A    between atoms: N_1  and  C_2
REMARK    2  A    between atoms: C_2  and  C_3
REMARK    3  A    between atoms: C_3  and  O_4
REMARK    4  A    between atoms: O_4  and  C_5
REMARK    5  A    between atoms: C_8  and  C_9
REMARK    6  A    between atoms: C_9  and  N_10
REMARK                            x       y       z     vdW  Elec       q    Type
REMARK                         _______ _______ _______ _____ _____    ______ ____
ROOT
ATOM      1  C   UNL     1      48.356   5.624  17.352  0.00  0.00    +0.000 A 
ATOM      2  C   UNL     1      48.860   6.680  16.596  0.00  0.00    +0.000 A 
ATOM      3  C   UNL     1      48.668   6.716  15.212  0.00  0.00    +0.000 A 
ATOM      4  C   UNL     1      47.964   5.697  14.558  0.00  0.00    +0.000 A 
ATOM      5  C   UNL     1      47.458   4.638  15.322  0.00  0.00    +0.000 A 
ATOM      6  C   UNL     1      47.650   4.605  16.709  0.00  0.00    +0.000 A 
ENDROOT
BRANCH   1   7
ATOM      7  O   UNL     1      48.483   5.477  18.709  0.00  0.00    +0.000 OA
BRANCH   7   8
ATOM      8  C   UNL     1      47.484   6.116  19.507  0.00  0.00    +0.000 C 
BRANCH   8   9
ATOM      9  C   UNL     1      47.718   5.764  20.979  0.00  0.00    +0.000 C 
BRANCH   9  10
ATOM     10  N   UNL     1      48.231   4.402  21.137  0.00  0.00    +0.000 NA
ATOM     11  H   UNL     1      48.104   4.107  22.104  0.00  0.00    +0.000 HD
ATOM     12  H   UNL     1      49.236   4.393  20.969  0.00  0.00    +0.000 HD
ENDBRANCH   9  10
ENDBRANCH   8   9
ENDBRANCH   7   8
ENDBRANCH   1   7
BRANCH   4  13
ATOM     13  C   UNL     1      47.754   5.745  13.067  0.00  0.00    +0.000 C 
BRANCH  13  14
ATOM     14  N   UNL     1      46.378   6.073  12.707  0.00  0.00    +0.000 N 
ATOM     15  C   UNL     1      45.922   7.356  12.503  0.00  0.00    +0.000 A 
ATOM     16  C   UNL     1      44.630   7.280  12.032  0.00  0.00    +0.000 A 
ATOM     17  C   UNL     1      44.290   5.911  11.946  0.00  0.00    +0.000 A 
ATOM     18  N   UNL     1      43.134   5.355  11.511  0.00  0.00    +0.000 NA
ATOM     19  C   UNL     1      43.108   4.007  11.540  0.00  0.00    +0.000 A 
ATOM     20  C   UNL     1      44.140   3.191  11.975  0.00  0.00    +0.000 A 
ATOM     21  C   UNL     1      45.328   3.769  12.418  0.00  0.00    +0.000 A 
ATOM     22  C   UNL     1      45.387   5.168  12.387  0.00  0.00    +0.000 A 
ENDBRANCH  13  14
ENDBRANCH   4  13
TORSDOF 6
ENDMDL
