MODEL 1
REMARK VINA RESULT:    -8.182      0.000      0.000
REMARK INTER + INTRA:         -10.643
REMARK INTER:                 -10.095
REMARK INTRA:                  -0.548
REMARK UNBOUND:                -0.548
REMARK  Name = 
REMARK  6 active torsions:
REMARK  status: ('A' for Active; 'I' for Inactive)
REMARK    1  A    between atoms: C_1  and  C_2
REMARK    2  A    between atoms: C_4  and  C_5
REMARK    3  A    between atoms: C_9  and  C_10
REMARK    4  A    between atoms: C_10  and  N_11
REMARK    5  A    between atoms: C_14  and  C_15
REMARK    6  A    between atoms: C_17  and  C_18
REMARK                            x       y       z     vdW  Elec       q    Type
REMARK                         _______ _______ _______ _____ _____    ______ ____
ROOT
ATOM      1  C   UNL     1      46.216   4.822  14.140  0.00  0.00    +0.000 C 
ENDROOT
BRANCH   1   2
ATOM      2  N   UNL     1      46.780   3.565  14.573  0.00  0.00    +0.000 N 
ATOM      3  C   UNL     1      47.536   3.630  15.737  0.00  0.00    +0.000 A 
ATOM      4  N   UNL     1      48.548   2.754  15.809  0.00  0.00    +0.000 NA
ATOM      5  C   UNL     1      49.299   2.726  16.932  0.00  0.00    +0.000 A 
ATOM      6  C   UNL     1      50.410   1.721  16.993  0.00  0.00    +0.000 C 
ATOM      7  C   UNL     1      49.066   3.572  17.987  0.00  0.00    +0.000 A 
ATOM      8  C   UNL     1      48.019   4.447  17.811  0.00  0.00    +0.000 A 
ATOM      9  N   UNL     1      47.242   4.506  16.700  0.00  0.00    +0.000 NA
ATOM     10  H   UNL     1      47.364   3.096  13.890  0.00  0.00    +0.000 HD
BRANCH   8  11
ATOM     11  C   UNL     1      47.677   5.402  18.911  0.00  0.00    +0.000 C 
ATOM     12  N   UNL     1      46.358   5.757  18.989  0.00  0.00    +0.000 N 
ATOM     13  O   UNL     1      48.511   5.833  19.695  0.00  0.00    +0.000 OA
ATOM     14  H   UNL     1      45.685   5.330  18.363  0.00  0.00    +0.000 HD
ATOM     15  H   UNL     1      46.046   6.342  19.751  0.00  0.00    +0.000 HD
ENDBRANCH   8  11
ENDBRANCH   1   2
BRANCH   1  20
ATOM     16  C   UNL     1      44.924   3.880  10.648  0.00  0.00    +0.000 A 
ATOM     17  C   UNL     1      43.541   3.992  10.862  0.00  0.00    +0.000 A 
ATOM     18  C   UNL     1      43.027   4.452  12.079  0.00  0.00    +0.000 A 
ATOM     19  C   UNL     1      43.889   4.769  13.124  0.00  0.00    +0.000 A 
ATOM     20  C   UNL     1      45.272   4.620  12.972  0.00  0.00    +0.000 A 
ATOM     21  C   UNL     1      45.775   4.221  11.721  0.00  0.00    +0.000 A 
BRANCH  16  25
ATOM     22  C   UNL     1      46.628   0.197   7.677  0.00  0.00    +0.000 C 
ATOM     23  C   UNL     1      46.281   1.635   7.914  0.00  0.00    +0.000 A 
ATOM     24  C   UNL     1      45.762   2.047   9.139  0.00  0.00    +0.000 A 
ATOM     25  C   UNL     1      45.464   3.400   9.357  0.00  0.00    +0.000 A 
ATOM     26  C   UNL     1      45.695   4.279   8.289  0.00  0.00    +0.000 A 
ATOM     27  C   UNL     1      46.203   3.786   7.099  0.00  0.00    +0.000 A 
ATOM     28  N   UNL     1      46.502   2.490   6.892  0.00  0.00    +0.000 NA
ENDBRANCH  16  25
ENDBRANCH   1  20
TORSDOF 4
ENDMDL
MODEL 2
REMARK VINA RESULT:    -7.951      2.430      3.062
REMARK INTER + INTRA:         -10.359
REMARK INTER:                  -9.677
REMARK INTRA:                  -0.682
REMARK UNBOUND:                -0.548
REMARK  Name = 
REMARK  6 active torsions:
REMARK  status: ('A' for Active; 'I' for Inactive)
REMARK    1  A    between atoms: C_1  and  C_2
REMARK    2  A    between atoms: C_4  and  C_5
REMARK    3  A    between atoms: C_9  and  C_10
REMARK    4  A    between atoms: C_10  and  N_11
REMARK    5  A    between atoms: C_14  and  C_15
REMARK    6  A    between atoms: C_17  and  C_18
REMARK                            x       y       z     vdW  Elec       q    Type
REMARK                         _______ _______ _______ _____ _____    ______ ____
ROOT
ATOM      1  C   UNL     1      44.988   6.896  12.304  0.00  0.00    +0.000 C 
ENDROOT
BRANCH   1   2
ATOM      2  N   UNL     1      46.397   7.092  12.050  0.00  0.00    +0.000 N 
ATOM      3  C   UNL     1      47.233   6.787  13.116  0.00  0.00    +0.000 A 
ATOM      4  N   UNL     1      48.355   7.518  13.188  0.00  0.00    +0.000 NA
ATOM      5  C   UNL     1      49.240   7.248  14.171  0.00  0.00    +0.000 A 
ATOM      6  C   UNL     1      50.495   8.067  14.214  0.00  0.00    +0.000 C 
ATOM      7  C   UNL     1      49.021   6.262  15.101  0.00  0.00    +0.000 A 
ATOM      8  C   UNL     1      47.834   5.580  14.956  0.00  0.00    +0.000 A 
ATOM      9  N   UNL     1      46.921   5.822  13.983  0.00  0.00    +0.000 NA
ATOM     10  H   UNL     1      46.656   8.026  11.753  0.00  0.00    +0.000 HD
BRANCH   8  11
ATOM     11  C   UNL     1      47.509   4.477  15.913  0.00  0.00    +0.000 C 
ATOM     12  N   UNL     1      47.160   4.878  17.174  0.00  0.00    +0.000 N 
ATOM     13  O   UNL     1      47.542   3.296  15.596  0.00  0.00    +0.000 OA
ATOM     14  H   UNL     1      47.082   5.867  17.381  0.00  0.00    +0.000 HD
ATOM     15  H   UNL     1      46.860   4.189  17.848  0.00  0.00    +0.000 HD
ENDBRANCH   8  11
ENDBRANCH   1   2
BRANCH   1  20
ATOM     16  C   UNL     1      44.812   3.813  10.022  0.00  0.00    +0.000 A 
ATOM     17  C   UNL     1      43.794   3.091  10.666  0.00  0.00    +0.000 A 
ATOM     18  C   UNL     1      43.106   3.623  11.762  0.00  0.00    +0.000 A 
ATOM     19  C   UNL     1      43.455   4.872  12.265  0.00  0.00    +0.000 A 
ATOM     20  C   UNL     1      44.500   5.602  11.687  0.00  0.00    +0.000 A 
ATOM     21  C   UNL     1      45.134   5.083  10.544  0.00  0.00    +0.000 A 
BRANCH  16  25
ATOM     22  C   UNL     1      46.802  -0.073   7.525  0.00  0.00    +0.000 C 
ATOM     23  C   UNL     1      46.489   1.387   7.642  0.00  0.00    +0.000 A 
ATOM     24  C   UNL     1      45.797   1.877   8.748  0.00  0.00    +0.000 A 
ATOM     25  C   UNL     1      45.531   3.250   8.858  0.00  0.00    +0.000 A 
ATOM     26  C   UNL     1      45.975   4.067   7.808  0.00  0.00    +0.000 A 
ATOM     27  C   UNL     1      46.646   3.498   6.740  0.00  0.00    +0.000 A 
ATOM     28  N   UNL     1      46.914   2.182   6.637  0.00  0.00    +0.000 NA
ENDBRANCH  16  25
ENDBRANCH   1  20
TORSDOF 4
ENDMDL
MODEL 3
REMARK VINA RESULT:    -7.880      2.538      4.090
REMARK INTER + INTRA:         -10.271
REMARK INTER:                  -9.475
REMARK INTRA:                  -0.796
REMARK UNBOUND:                -0.548
REMARK  Name = 
REMARK  6 active torsions:
REMARK  status: ('A' for Active; 'I' for Inactive)
REMARK    1  A    between atoms: C_1  and  C_2
REMARK    2  A    between atoms: C_4  and  C_5
REMARK    3  A    between atoms: C_9  and  C_10
REMARK    4  A    between atoms: C_10  and  N_11
REMARK    5  A    between atoms: C_14  and  C_15
REMARK    6  A    between atoms: C_17  and  C_18
REMARK                            x       y       z     vdW  Elec       q    Type
REMARK                         _______ _______ _______ _____ _____    ______ ____
ROOT
ATOM      1  C   UNL     1      49.155   6.837  14.344  0.00  0.00    +0.000 C 
ENDROOT
BRANCH   1   2
ATOM      2  N   UNL     1      49.104   7.222  15.736  0.00  0.00    +0.000 N 
ATOM      3  C   UNL     1      48.875   6.180  16.625  0.00  0.00    +0.000 A 
ATOM      4  N   UNL     1      48.198   6.514  17.733  0.00  0.00    +0.000 NA
ATOM      5  C   UNL     1      47.977   5.564  18.666  0.00  0.00    +0.000 A 
ATOM      6  C   UNL     1      47.236   5.972  19.904  0.00  0.00    +0.000 C 
ATOM      7  C   UNL     1      48.410   4.271  18.509  0.00  0.00    +0.000 A 
ATOM      8  C   UNL     1      49.077   4.020  17.332  0.00  0.00    +0.000 A 
ATOM      9  N   UNL     1      49.319   4.947  16.372  0.00  0.00    +0.000 NA
ATOM     10  H   UNL     1      48.421   7.935  15.962  0.00  0.00    +0.000 HD
BRANCH   8  11
ATOM     11  C   UNL     1      49.601   2.643  17.072  0.00  0.00    +0.000 C 
ATOM     12  N   UNL     1      50.569   2.211  17.938  0.00  0.00    +0.000 N 
ATOM     13  O   UNL     1      49.193   1.943  16.157  0.00  0.00    +0.000 OA
ATOM     14  H   UNL     1      50.836   2.794  18.723  0.00  0.00    +0.000 HD
ATOM     15  H   UNL     1      50.915   1.265  17.863  0.00  0.00    +0.000 HD
ENDBRANCH   8  11
ENDBRANCH   1   2
BRANCH   1  20
ATOM     16  C   UNL     1      45.814   6.194  12.561  0.00  0.00    +0.000 A 
ATOM     17  C   UNL     1      45.257   7.482  12.616  0.00  0.00    +0.000 A 
ATOM     18  C   UNL     1      45.977   8.565  13.133  0.00  0.00    +0.000 A 
ATOM     19  C   UNL     1      47.255   8.371  13.647  0.00  0.00    +0.000 A 
ATOM     20  C   UNL     1      47.826   7.094  13.662  0.00  0.00    +0.000 A 
ATOM     21  C   UNL     1      47.117   6.030  13.076  0.00  0.00    +0.000 A 
BRANCH  16  25
ATOM     22  C   UNL     1      44.562   3.166   8.746  0.00  0.00    +0.000 C 
ATOM     23  C   UNL     1      44.446   3.584  10.179  0.00  0.00    +0.000 A 
ATOM     24  C   UNL     1      45.189   4.656  10.668  0.00  0.00    +0.000 A 
ATOM     25  C   UNL     1      45.053   5.053  12.007  0.00  0.00    +0.000 A 
ATOM     26  C   UNL     1      44.164   4.313  12.799  0.00  0.00    +0.000 A 
ATOM     27  C   UNL     1      43.471   3.254  12.238  0.00  0.00    +0.000 A 
ATOM     28  N   UNL     1      43.591   2.879  10.951  0.00  0.00    +0.000 NA
ENDBRANCH  16  25
ENDBRANCH   1  20
TORSDOF 4
ENDMDL
MODEL 4
REMARK VINA RESULT:    -7.165      3.388      5.098
REMARK INTER + INTRA:          -9.388
REMARK INTER:                  -8.796
REMARK INTRA:                  -0.591
REMARK UNBOUND:                -0.548
REMARK  Name = 
REMARK  6 active torsions:
REMARK  status: ('A' for Active; 'I' for Inactive)
REMARK    1  A    between atoms: C_1  and  C_2
REMARK    2  A    between atoms: C_4  and  C_5
REMARK    3  A    between atoms: C_9  and  C_10
REMARK    4  A    between atoms: C_10  and  N_11
REMARK    5  A    between atoms: C_14  and  C_15
REMARK    6  A    between atoms: C_17  and  C_18
REMARK                            x       y       z     vdW  Elec       q    Type
REMARK                         _______ _______ _______ _____ _____    ______ ____
ROOT
ATOM      1  C   UNL     1      46.888   3.973  14.458  0.00  0.00    +0.000 C 
ENDROOT
BRANCH   1   2
ATOM      2  N   UNL     1      47.124   5.001  15.445  0.00  0.00    +0.000 N 
ATOM      3  C   UNL     1      47.882   4.602  16.538  0.00  0.00    +0.000 A 
ATOM      4  N   UNL     1      47.589   5.221  17.691  0.00  0.00    +0.000 NA
ATOM      5  C   UNL     1      48.317   4.919  18.789  0.00  0.00    +0.000 A 
ATOM      6  C   UNL     1      47.981   5.642  20.059  0.00  0.00    +0.000 C 
ATOM      7  C   UNL     1      49.331   3.995  18.762  0.00  0.00    +0.000 A 
ATOM      8  C   UNL     1      49.543   3.400  17.539  0.00  0.00    +0.000 A 
ATOM      9  N   UNL     1      48.836   3.676  16.415  0.00  0.00    +0.000 NA
ATOM     10  H   UNL     1      46.290   5.431  15.829  0.00  0.00    +0.000 HD
BRANCH   8  11
ATOM     11  C   UNL     1      50.636   2.388  17.403  0.00  0.00    +0.000 C 
ATOM     12  N   UNL     1      51.739   2.607  18.183  0.00  0.00    +0.000 N 
ATOM     13  O   UNL     1      50.555   1.424  16.654  0.00  0.00    +0.000 OA
ATOM     14  H   UNL     1      51.743   3.380  18.839  0.00  0.00    +0.000 HD
ATOM     15  H   UNL     1      52.483   1.924  18.193  0.00  0.00    +0.000 HD
ENDBRANCH   8  11
ENDBRANCH   1   2
BRANCH   1  20
ATOM     16  C   UNL     1      45.247   6.420  11.995  0.00  0.00    +0.000 A 
ATOM     17  C   UNL     1      44.692   5.510  11.081  0.00  0.00    +0.000 A 
ATOM     18  C   UNL     1      44.760   4.130  11.296  0.00  0.00    +0.000 A 
ATOM     19  C   UNL     1      45.425   3.629  12.411  0.00  0.00    +0.000 A 
ATOM     20  C   UNL     1      46.040   4.499  13.319  0.00  0.00    +0.000 A 
ATOM     21  C   UNL     1      45.904   5.885  13.124  0.00  0.00    +0.000 A 
BRANCH  16  25
ATOM     22  C   UNL     1      42.972  10.462  10.050  0.00  0.00    +0.000 C 
ATOM     23  C   UNL     1      44.078   9.835  10.841  0.00  0.00    +0.000 A 
ATOM     24  C   UNL     1      44.113   8.457  11.045  0.00  0.00    +0.000 A 
ATOM     25  C   UNL     1      45.167   7.880  11.768  0.00  0.00    +0.000 A 
ATOM     26  C   UNL     1      46.142   8.753  12.271  0.00  0.00    +0.000 A 
ATOM     27  C   UNL     1      46.028  10.112  12.033  0.00  0.00    +0.000 A 
ATOM     28  N   UNL     1      45.024  10.668  11.329  0.00  0.00    +0.000 NA
ENDBRANCH  16  25
ENDBRANCH   1  20
TORSDOF 4
ENDMDL
MODEL 5
REMARK VINA RESULT:    -7.055      5.713      7.949
REMARK INTER + INTRA:          -9.252
REMARK INTER:                  -8.637
REMARK INTRA:                  -0.615
REMARK UNBOUND:                -0.548
REMARK  Name = 
REMARK  6 active torsions:
REMARK  status: ('A' for Active; 'I' for Inactive)
REMARK    1  A    between atoms: C_1  and  C_2
REMARK    2  A    between atoms: C_4  and  C_5
REMARK    3  A    between atoms: C_9  and  C_10
REMARK    4  A    between atoms: C_10  and  N_11
REMARK    5  A    between atoms: C_14  and  C_15
REMARK    6  A    between atoms: C_17  and  C_18
REMARK                            x       y       z     vdW  Elec       q    Type
REMARK                         _______ _______ _______ _____ _____    ______ ____
ROOT
ATOM      1  C   UNL     1      46.205   6.995  11.901  0.00  0.00    +0.000 C 
ENDROOT
BRANCH   1   2
ATOM      2  N   UNL     1      45.856   6.744  10.522  0.00  0.00    +0.000 N 
ATOM      3  C   UNL     1      45.413   5.455  10.254  0.00  0.00    +0.000 A 
ATOM      4  N   UNL     1      45.704   4.996   9.028  0.00  0.00    +0.000 NA
ATOM      5  C   UNL     1      45.265   3.768   8.677  0.00  0.00    +0.000 A 
ATOM      6  C   UNL     1      45.586   3.290   7.293  0.00  0.00    +0.000 C 
ATOM      7  C   UNL     1      44.546   2.977   9.538  0.00  0.00    +0.000 A 
ATOM      8  C   UNL     1      44.315   3.526  10.778  0.00  0.00    +0.000 A 
ATOM      9  N   UNL     1      44.738   4.755  11.167  0.00  0.00    +0.000 NA
ATOM     10  H   UNL     1      46.593   6.929   9.850  0.00  0.00    +0.000 HD
BRANCH   8  11
ATOM     11  C   UNL     1      43.528   2.747  11.783  0.00  0.00    +0.000 C 
ATOM     12  N   UNL     1      43.598   3.208  13.069  0.00  0.00    +0.000 N 
ATOM     13  O   UNL     1      42.859   1.767  11.484  0.00  0.00    +0.000 OA
ATOM     14  H   UNL     1      44.111   4.060  13.268  0.00  0.00    +0.000 HD
ATOM     15  H   UNL     1      43.036   2.771  13.785  0.00  0.00    +0.000 HD
ENDBRANCH   8  11
ENDBRANCH   1   2
BRANCH   1  20
ATOM     16  C   UNL     1      49.457   9.022  11.645  0.00  0.00    +0.000 A 
ATOM     17  C   UNL     1      48.972  10.301  11.962  0.00  0.00    +0.000 A 
ATOM     18  C   UNL     1      47.642  10.501  12.345  0.00  0.00    +0.000 A 
ATOM     19  C   UNL     1      46.756   9.429  12.374  0.00  0.00    +0.000 A 
ATOM     20  C   UNL     1      47.184   8.146  12.013  0.00  0.00    +0.000 A 
ATOM     21  C   UNL     1      48.540   7.951  11.698  0.00  0.00    +0.000 A 
BRANCH  16  25
ATOM     22  C   UNL     1      53.143   6.127   9.821  0.00  0.00    +0.000 C 
ATOM     23  C   UNL     1      52.650   7.431  10.367  0.00  0.00    +0.000 A 
ATOM     24  C   UNL     1      51.311   7.594  10.717  0.00  0.00    +0.000 A 
ATOM     25  C   UNL     1      50.867   8.813  11.249  0.00  0.00    +0.000 A 
ATOM     26  C   UNL     1      51.823   9.831  11.384  0.00  0.00    +0.000 A 
ATOM     27  C   UNL     1      53.131   9.591  11.003  0.00  0.00    +0.000 A 
ATOM     28  N   UNL     1      53.563   8.417  10.503  0.00  0.00    +0.000 NA
ENDBRANCH  16  25
ENDBRANCH   1  20
TORSDOF 4
ENDMDL
MODEL 6
REMARK VINA RESULT:    -6.675      3.040      4.525
REMARK INTER + INTRA:          -8.785
REMARK INTER:                  -8.051
REMARK INTRA:                  -0.733
REMARK UNBOUND:                -0.548
REMARK  Name = 
REMARK  6 active torsions:
REMARK  status: ('A' for Active; 'I' for Inactive)
REMARK    1  A    between atoms: C_1  and  C_2
REMARK    2  A    between atoms: C_4  and  C_5
REMARK    3  A    between atoms: C_9  and  C_10
REMARK    4  A    between atoms: C_10  and  N_11
REMARK    5  A    between atoms: C_14  and  C_15
REMARK    6  A    between atoms: C_17  and  C_18
REMARK                            x       y       z     vdW  Elec       q    Type
REMARK                         _______ _______ _______ _____ _____    ______ ____
ROOT
ATOM      1  C   UNL     1      49.266   7.561  15.413  0.00  0.00    +0.000 C 
ENDROOT
BRANCH   1   2
ATOM      2  N   UNL     1      48.350   6.852  16.277  0.00  0.00    +0.000 N 
ATOM      3  C   UNL     1      48.805   5.623  16.733  0.00  0.00    +0.000 A 
ATOM      4  N   UNL     1      47.852   4.703  16.942  0.00  0.00    +0.000 NA
ATOM      5  C   UNL     1      48.214   3.498  17.431  0.00  0.00    +0.000 A 
ATOM      6  C   UNL     1      47.124   2.497  17.674  0.00  0.00    +0.000 C 
ATOM      7  C   UNL     1      49.521   3.183  17.706  0.00  0.00    +0.000 A 
ATOM      8  C   UNL     1      50.428   4.184  17.441  0.00  0.00    +0.000 A 
ATOM      9  N   UNL     1      50.104   5.406  16.951  0.00  0.00    +0.000 NA
ATOM     10  H   UNL     1      47.432   6.679  15.883  0.00  0.00    +0.000 HD
BRANCH   8  11
ATOM     11  C   UNL     1      51.878   3.944  17.720  0.00  0.00    +0.000 C 
ATOM     12  N   UNL     1      52.689   5.038  17.592  0.00  0.00    +0.000 N 
ATOM     13  O   UNL     1      52.315   2.850  18.049  0.00  0.00    +0.000 OA
ATOM     14  H   UNL     1      52.281   5.942  17.381  0.00  0.00    +0.000 HD
ATOM     15  H   UNL     1      53.666   4.962  17.834  0.00  0.00    +0.000 HD
ENDBRANCH   8  11
ENDBRANCH   1   2
BRANCH   1  20
ATOM     16  C   UNL     1      47.181   6.722  12.298  0.00  0.00    +0.000 A 
ATOM     17  C   UNL     1      47.961   7.343  11.309  0.00  0.00    +0.000 A 
ATOM     18  C   UNL     1      49.186   7.943  11.618  0.00  0.00    +0.000 A 
ATOM     19  C   UNL     1      49.636   7.973  12.934  0.00  0.00    +0.000 A 
ATOM     20  C   UNL     1      48.864   7.414  13.959  0.00  0.00    +0.000 A 
ATOM     21  C   UNL     1      47.668   6.755  13.622  0.00  0.00    +0.000 A 
BRANCH  16  25
ATOM     22  C   UNL     1      44.230   4.103   9.178  0.00  0.00    +0.000 C 
ATOM     23  C   UNL     1      44.460   4.817  10.475  0.00  0.00    +0.000 A 
ATOM     24  C   UNL     1      45.695   5.396  10.758  0.00  0.00    +0.000 A 
ATOM     25  C   UNL     1      45.889   6.082  11.966  0.00  0.00    +0.000 A 
ATOM     26  C   UNL     1      44.801   6.129  12.849  0.00  0.00    +0.000 A 
ATOM     27  C   UNL     1      43.611   5.518  12.496  0.00  0.00    +0.000 A 
ATOM     28  N   UNL     1      43.417   4.869  11.333  0.00  0.00    +0.000 NA
ENDBRANCH  16  25
ENDBRANCH   1  20
TORSDOF 4
ENDMDL
MODEL 7
REMARK VINA RESULT:    -6.415      3.925      8.295
REMARK INTER + INTRA:          -8.463
REMARK INTER:                  -7.656
REMARK INTRA:                  -0.807
REMARK UNBOUND:                -0.548
REMARK  Name = 
REMARK  6 active torsions:
REMARK  status: ('A' for Active; 'I' for Inactive)
REMARK    1  A    between atoms: C_1  and  C_2
REMARK    2  A    between atoms: C_4  and  C_5
REMARK    3  A    between atoms: C_9  and  C_10
REMARK    4  A    between atoms: C_10  and  N_11
REMARK    5  A    between atoms: C_14  and  C_15
REMARK    6  A    between atoms: C_17  and  C_18
REMARK                            x       y       z     vdW  Elec       q    Type
REMARK                         _______ _______ _______ _____ _____    ______ ____
ROOT
ATOM      1  C   UNL     1      45.820   7.957  12.656  0.00  0.00    +0.000 C 
ENDROOT
BRANCH   1   2
ATOM      2  N   UNL     1      45.510   7.612  11.287  0.00  0.00    +0.000 N 
ATOM      3  C   UNL     1      45.235   6.269  11.068  0.00  0.00    +0.000 A 
ATOM      4  N   UNL     1      45.585   5.805   9.860  0.00  0.00    +0.000 NA
ATOM      5  C   UNL     1      45.306   4.519   9.557  0.00  0.00    +0.000 A 
ATOM      6  C   UNL     1      45.690   4.034   8.191  0.00  0.00    +0.000 C 
ATOM      7  C   UNL     1      44.690   3.675  10.447  0.00  0.00    +0.000 A 
ATOM      8  C   UNL     1      44.387   4.237  11.666  0.00  0.00    +0.000 A 
ATOM      9  N   UNL     1      44.651   5.523  12.008  0.00  0.00    +0.000 NA
ATOM     10  H   UNL     1      46.219   7.864  10.608  0.00  0.00    +0.000 HD
BRANCH   8  11
ATOM     11  C   UNL     1      43.702   3.402  12.701  0.00  0.00    +0.000 C 
ATOM     12  N   UNL     1      43.608   2.069  12.411  0.00  0.00    +0.000 N 
ATOM     13  O   UNL     1      43.261   3.870  13.742  0.00  0.00    +0.000 OA
ATOM     14  H   UNL     1      44.042   1.707  11.569  0.00  0.00    +0.000 HD
ATOM     15  H   UNL     1      43.221   1.437  13.098  0.00  0.00    +0.000 HD
ENDBRANCH   8  11
ENDBRANCH   1   2
BRANCH   1  20
ATOM     16  C   UNL     1      49.260   7.397  14.267  0.00  0.00    +0.000 A 
ATOM     17  C   UNL     1      50.092   7.836  13.225  0.00  0.00    +0.000 A 
ATOM     18  C   UNL     1      49.562   8.392  12.055  0.00  0.00    +0.000 A 
ATOM     19  C   UNL     1      48.183   8.479  11.888  0.00  0.00    +0.000 A 
ATOM     20  C   UNL     1      47.318   8.002  12.878  0.00  0.00    +0.000 A 
ATOM     21  C   UNL     1      47.867   7.510  14.076  0.00  0.00    +0.000 A 
BRANCH  16  25
ATOM     22  C   UNL     1      53.136   6.481  17.340  0.00  0.00    +0.000 C 
ATOM     23  C   UNL     1      51.682   6.374  16.997  0.00  0.00    +0.000 A 
ATOM     24  C   UNL     1      51.185   6.945  15.827  0.00  0.00    +0.000 A 
ATOM     25  C   UNL     1      49.825   6.816  15.506  0.00  0.00    +0.000 A 
ATOM     26  C   UNL     1      49.023   6.115  16.417  0.00  0.00    +0.000 A 
ATOM     27  C   UNL     1      49.594   5.587  17.562  0.00  0.00    +0.000 A 
ATOM     28  N   UNL     1      50.900   5.699  17.867  0.00  0.00    +0.000 NA
ENDBRANCH  16  25
ENDBRANCH   1  20
TORSDOF 4
ENDMDL
MODEL 8
REMARK VINA RESULT:    -6.242      3.024      5.089
REMARK INTER + INTRA:          -8.250
REMARK INTER:                  -7.424
REMARK INTRA:                  -0.826
REMARK UNBOUND:                -0.548
REMARK  Name = 
REMARK  6 active torsions:
REMARK  status: ('A' for Active; 'I' for Inactive)
REMARK    1  A    between atoms: C_1  and  C_2
REMARK    2  A    between atoms: C_4  and  C_5
REMARK    3  A    between atoms: C_9  and  C_10
REMARK    4  A    between atoms: C_10  and  N_11
REMARK    5  A    between atoms: C_14  and  C_15
REMARK    6  A    between atoms: C_17  and  C_18
REMARK                            x       y       z     vdW  Elec       q    Type
REMARK                         _______ _______ _______ _____ _____    ______ ____
ROOT
ATOM      1  C   UNL     1      50.571   7.000  15.380  0.00  0.00    +0.000 C 
ENDROOT
BRANCH   1   2
ATOM      2  N   UNL     1      50.466   7.268  16.796  0.00  0.00    +0.000 N 
ATOM      3  C   UNL     1      49.444   6.590  17.448  0.00  0.00    +0.000 A 
ATOM      4  N   UNL     1      48.903   7.239  18.489  0.00  0.00    +0.000 NA
ATOM      5  C   UNL     1      47.935   6.623  19.201  0.00  0.00    +0.000 A 
ATOM      6  C   UNL     1      47.364   7.365  20.373  0.00  0.00    +0.000 C 
ATOM      7  C   UNL     1      47.481   5.367  18.884  0.00  0.00    +0.000 A 
ATOM      8  C   UNL     1      48.083   4.791  17.789  0.00  0.00    +0.000 A 
ATOM      9  N   UNL     1      49.058   5.376  17.050  0.00  0.00    +0.000 NA
ATOM     10  H   UNL     1      50.353   8.244  17.043  0.00  0.00    +0.000 HD
BRANCH   8  11
ATOM     11  C   UNL     1      47.668   3.416  17.371  0.00  0.00    +0.000 C 
ATOM     12  N   UNL     1      48.674   2.618  16.897  0.00  0.00    +0.000 N 
ATOM     13  O   UNL     1      46.513   3.022  17.450  0.00  0.00    +0.000 OA
ATOM     14  H   UNL     1      49.629   2.958  16.906  0.00  0.00    +0.000 HD
ATOM     15  H   UNL     1      48.475   1.656  16.664  0.00  0.00    +0.000 HD
ENDBRANCH   8  11
ENDBRANCH   1   2
BRANCH   1  20
ATOM     16  C   UNL     1      47.404   7.413  13.247  0.00  0.00    +0.000 A 
ATOM     17  C   UNL     1      47.184   8.791  13.403  0.00  0.00    +0.000 A 
ATOM     18  C   UNL     1      48.086   9.598  14.105  0.00  0.00    +0.000 A 
ATOM     19  C   UNL     1      49.208   9.032  14.703  0.00  0.00    +0.000 A 
ATOM     20  C   UNL     1      49.437   7.654  14.619  0.00  0.00    +0.000 A 
ATOM     21  C   UNL     1      48.557   6.869  13.852  0.00  0.00    +0.000 A 
BRANCH  16  25
ATOM     22  C   UNL     1      43.491   4.257  13.089  0.00  0.00    +0.000 C 
ATOM     23  C   UNL     1      44.565   5.049  12.407  0.00  0.00    +0.000 A 
ATOM     24  C   UNL     1      45.435   5.847  13.146  0.00  0.00    +0.000 A 
ATOM     25  C   UNL     1      46.451   6.565  12.498  0.00  0.00    +0.000 A 
ATOM     26  C   UNL     1      46.520   6.445  11.102  0.00  0.00    +0.000 A 
ATOM     27  C   UNL     1      45.609   5.638  10.443  0.00  0.00    +0.000 A 
ATOM     28  N   UNL     1      44.640   4.939  11.063  0.00  0.00    +0.000 NA
ENDBRANCH  16  25
ENDBRANCH   1  20
TORSDOF 4
ENDMDL
MODEL 9
REMARK VINA RESULT:    -6.170      4.299      9.121
REMARK INTER + INTRA:          -8.160
REMARK INTER:                  -7.533
REMARK INTRA:                  -0.627
REMARK UNBOUND:                -0.548
REMARK  Name = 
REMARK  6 active torsions:
REMARK  status: ('A' for Active; 'I' for Inactive)
REMARK    1  A    between atoms: C_1  and  C_2
REMARK    2  A    between atoms: C_4  and  C_5
REMARK    3  A    between atoms: C_9  and  C_10
REMARK    4  A    between atoms: C_10  and  N_11
REMARK    5  A    between atoms: C_14  and  C_15
REMARK    6  A    between atoms: C_17  and  C_18
REMARK                            x       y       z     vdW  Elec       q    Type
REMARK                         _______ _______ _______ _____ _____    ______ ____
ROOT
ATOM      1  C   UNL     1      47.864   7.237  11.538  0.00  0.00    +0.000 C 
ENDROOT
BRANCH   1   2
ATOM      2  N   UNL     1      46.774   6.642  12.277  0.00  0.00    +0.000 N 
ATOM      3  C   UNL     1      45.790   6.050  11.497  0.00  0.00    +0.000 A 
ATOM      4  N   UNL     1      44.553   6.091  12.011  0.00  0.00    +0.000 NA
ATOM      5  C   UNL     1      43.550   5.493  11.331  0.00  0.00    +0.000 A 
ATOM      6  C   UNL     1      42.181   5.537  11.941  0.00  0.00    +0.000 C 
ATOM      7  C   UNL     1      43.757   4.861  10.131  0.00  0.00    +0.000 A 
ATOM      8  C   UNL     1      45.056   4.889   9.675  0.00  0.00    +0.000 A 
ATOM      9  N   UNL     1      46.088   5.477  10.329  0.00  0.00    +0.000 NA
ATOM     10  H   UNL     1      46.287   7.270  12.907  0.00  0.00    +0.000 HD
BRANCH   8  11
ATOM     11  C   UNL     1      45.387   4.216   8.381  0.00  0.00    +0.000 C 
ATOM     12  N   UNL     1      44.480   3.283   7.957  0.00  0.00    +0.000 N 
ATOM     13  O   UNL     1      46.392   4.481   7.736  0.00  0.00    +0.000 OA
ATOM     14  H   UNL     1      43.628   3.136   8.485  0.00  0.00    +0.000 HD
ATOM     15  H   UNL     1      44.606   2.842   7.057  0.00  0.00    +0.000 HD
ENDBRANCH   8  11
ENDBRANCH   1   2
BRANCH   1  20
ATOM     16  C   UNL     1      50.087   7.418  14.665  0.00  0.00    +0.000 A 
ATOM     17  C   UNL     1      51.193   8.104  14.138  0.00  0.00    +0.000 A 
ATOM     18  C   UNL     1      51.192   8.586  12.824  0.00  0.00    +0.000 A 
ATOM     19  C   UNL     1      50.099   8.351  11.996  0.00  0.00    +0.000 A 
ATOM     20  C   UNL     1      48.999   7.624  12.464  0.00  0.00    +0.000 A 
ATOM     21  C   UNL     1      48.987   7.207  13.807  0.00  0.00    +0.000 A 
BRANCH  16  25
ATOM     22  C   UNL     1      47.749   5.358  18.613  0.00  0.00    +0.000 C 
ATOM     23  C   UNL     1      48.976   5.920  17.963  0.00  0.00    +0.000 A 
ATOM     24  C   UNL     1      48.939   6.370  16.645  0.00  0.00    +0.000 A 
ATOM     25  C   UNL     1      50.089   6.917  16.057  0.00  0.00    +0.000 A 
ATOM     26  C   UNL     1      51.245   6.962  16.849  0.00  0.00    +0.000 A 
ATOM     27  C   UNL     1      51.200   6.484  18.147  0.00  0.00    +0.000 A 
ATOM     28  N   UNL     1      50.095   5.969  18.719  0.00  0.00    +0.000 NA
ENDBRANCH  16  25
ENDBRANCH   1  20
TORSDOF 4
ENDMDL
