MODEL 1
REMARK VINA RESULT:    -8.428      0.000      0.000
REMARK INTER + INTRA:         -12.687
REMARK INTER:                 -11.631
REMARK INTRA:                  -1.056
REMARK UNBOUND:                -1.056
REMARK  Name = 
REMARK  7 active torsions:
REMARK  status: ('A' for Active; 'I' for Inactive)
REMARK    1  A    between atoms: N_1  and  C_2
REMARK    2  A    between atoms: C_2  and  N_3
REMARK    3  A    between atoms: C_2  and  C_16
REMARK    4  A    between atoms: C_4  and  C_6
REMARK    5  A    between atoms: C_19  and  C_20
REMARK    6  A    between atoms: C_20  and  N_21
REMARK    7  A    between atoms: C_22  and  C_24
REMARK                            x       y       z     vdW  Elec       q    Type
REMARK                         _______ _______ _______ _____ _____    ______ ____
ROOT
ATOM      1  C   UNL     1      46.784   4.404  14.979  0.00  0.00    +0.000 C 
ENDROOT
BRANCH   1   2
ATOM      2  C   UNL     1      46.005   4.447  13.673  0.00  0.00    +0.000 A 
ATOM      3  C   UNL     1      45.795   3.281  12.925  0.00  0.00    +0.000 A 
ATOM      4  C   UNL     1      45.063   3.317  11.731  0.00  0.00    +0.000 A 
ATOM      5  C   UNL     1      44.531   4.520  11.248  0.00  0.00    +0.000 A 
ATOM      6  C   UNL     1      44.725   5.687  11.998  0.00  0.00    +0.000 A 
ATOM      7  C   UNL     1      45.459   5.651  13.188  0.00  0.00    +0.000 A 
BRANCH   5   8
ATOM      8  C   UNL     1      43.794   4.568   9.936  0.00  0.00    +0.000 C 
BRANCH   8   9
ATOM      9  N   UNL     1      44.371   3.710   8.931  0.00  0.00    +0.000 N 
ATOM     10  C   UNL     1      45.511   4.089   8.257  0.00  0.00    +0.000 C 
ATOM     11  O   UNL     1      46.048   5.184   8.413  0.00  0.00    +0.000 OA
ATOM     12  H   UNL     1      44.102   2.733   8.851  0.00  0.00    +0.000 HD
BRANCH  10  13
ATOM     13  C   UNL     1      46.025   3.083   7.223  0.00  0.00    +0.000 C 
ATOM     14  C   UNL     1      46.370   1.749   7.856  0.00  0.00    +0.000 C 
ATOM     15  C   UNL     1      47.250   1.102   6.806  0.00  0.00    +0.000 C 
ATOM     16  C   UNL     1      47.941   2.269   6.111  0.00  0.00    +0.000 C 
ATOM     17  N   UNL     1      47.320   3.499   6.624  0.00  0.00    +0.000 NA
ATOM     18  H   UNL     1      47.143   4.147   5.857  0.00  0.00    +0.000 HD
ENDBRANCH  10  13
ENDBRANCH   8   9
ENDBRANCH   5   8
ENDBRANCH   1   2
BRANCH   1  19
ATOM     19  N   UNL     1      47.607   5.571  15.096  0.00  0.00    +0.000 N 
ATOM     20  C   UNL     1      48.609   5.726  16.019  0.00  0.00    +0.000 C 
ATOM     21  O   UNL     1      48.975   4.819  16.760  0.00  0.00    +0.000 OA
ATOM     22  H   UNL     1      47.134   6.420  14.807  0.00  0.00    +0.000 HD
BRANCH  20  23
ATOM     23  C   UNL     1      49.310   7.014  15.973  0.00  0.00    +0.000 A 
ATOM     24  C   UNL     1      49.614   7.685  17.150  0.00  0.00    +0.000 A 
ATOM     25  S   UNL     1      50.499   9.123  16.905  0.00  0.00    +0.000 S 
ATOM     26  C   UNL     1      50.465   8.922  15.215  0.00  0.00    +0.000 A 
ATOM     27  N   UNL     1      51.050   9.829  14.386  0.00  0.00    +0.000 NA
ATOM     28  C   UNL     1      50.933   9.555  13.128  0.00  0.00    +0.000 A 
ATOM     29  N   UNL     1      50.286   8.457  12.623  0.00  0.00    +0.000 N 
ATOM     30  C   UNL     1      49.695   7.511  13.422  0.00  0.00    +0.000 A 
ATOM     31  O   UNL     1      49.145   6.521  12.948  0.00  0.00    +0.000 OA
ATOM     32  C   UNL     1      49.800   7.769  14.846  0.00  0.00    +0.000 A 
ATOM     33  H   UNL     1      50.237   8.297  11.629  0.00  0.00    +0.000 HD
ENDBRANCH  20  23
ENDBRANCH   1  19
BRANCH   1  34
ATOM     34  N   UNL     1      47.674   3.264  15.011  0.00  0.00    +0.000 NA
ATOM     35  H   UNL     1      47.555   2.785  14.114  0.00  0.00    +0.000 HD
ATOM     36  H   UNL     1      47.316   2.612  15.702  0.00  0.00    +0.000 HD
ENDBRANCH   1  34
TORSDOF 7
ENDMDL
MODEL 2
REMARK VINA RESULT:    -8.130      2.150      3.800
REMARK INTER + INTRA:         -12.276
REMARK INTER:                 -11.134
REMARK INTRA:                  -1.141
REMARK UNBOUND:                -1.056
REMARK  Name = 
REMARK  7 active torsions:
REMARK  status: ('A' for Active; 'I' for Inactive)
REMARK    1  A    between atoms: N_1  and  C_2
REMARK    2  A    between atoms: C_2  and  N_3
REMARK    3  A    between atoms: C_2  and  C_16
REMARK    4  A    between atoms: C_4  and  C_6
REMARK    5  A    between atoms: C_19  and  C_20
REMARK    6  A    between atoms: C_20  and  N_21
REMARK    7  A    between atoms: C_22  and  C_24
REMARK                            x       y       z     vdW  Elec       q    Type
REMARK                         _______ _______ _______ _____ _____    ______ ____
ROOT
ATOM      1  C   UNL     1      47.500   8.054  13.484  0.00  0.00    +0.000 C 
ENDROOT
BRANCH   1   2
ATOM      2  C   UNL     1      46.534   7.242  12.634  0.00  0.00    +0.000 A 
ATOM      3  C   UNL     1      45.229   6.987  13.077  0.00  0.00    +0.000 A 
ATOM      4  C   UNL     1      44.334   6.254  12.287  0.00  0.00    +0.000 A 
ATOM      5  C   UNL     1      44.722   5.748  11.040  0.00  0.00    +0.000 A 
ATOM      6  C   UNL     1      46.020   6.011  10.584  0.00  0.00    +0.000 A 
ATOM      7  C   UNL     1      46.915   6.740  11.375  0.00  0.00    +0.000 A 
BRANCH   5   8
ATOM      8  C   UNL     1      43.778   4.912  10.218  0.00  0.00    +0.000 C 
BRANCH   8   9
ATOM      9  N   UNL     1      44.394   4.353   9.040  0.00  0.00    +0.000 N 
ATOM     10  C   UNL     1      44.686   3.009   8.974  0.00  0.00    +0.000 C 
ATOM     11  O   UNL     1      44.513   2.239   9.917  0.00  0.00    +0.000 OA
ATOM     12  H   UNL     1      44.422   4.866   8.163  0.00  0.00    +0.000 HD
BRANCH  10  13
ATOM     13  C   UNL     1      45.331   2.543   7.665  0.00  0.00    +0.000 C 
ATOM     14  C   UNL     1      46.484   1.589   7.912  0.00  0.00    +0.000 C 
ATOM     15  C   UNL     1      47.231   1.626   6.594  0.00  0.00    +0.000 C 
ATOM     16  C   UNL     1      46.981   3.026   6.049  0.00  0.00    +0.000 C 
ATOM     17  N   UNL     1      45.987   3.655   6.930  0.00  0.00    +0.000 NA
ATOM     18  H   UNL     1      45.288   4.147   6.372  0.00  0.00    +0.000 HD
ENDBRANCH  10  13
ENDBRANCH   8   9
ENDBRANCH   5   8
ENDBRANCH   1   2
BRANCH   1  19
ATOM     19  N   UNL     1      47.848   7.319  14.664  0.00  0.00    +0.000 N 
ATOM     20  C   UNL     1      49.129   6.980  15.018  0.00  0.00    +0.000 C 
ATOM     21  O   UNL     1      50.114   7.386  14.411  0.00  0.00    +0.000 OA
ATOM     22  H   UNL     1      47.121   6.677  14.960  0.00  0.00    +0.000 HD
BRANCH  20  23
ATOM     23  C   UNL     1      49.252   6.204  16.258  0.00  0.00    +0.000 A 
ATOM     24  C   UNL     1      50.178   6.575  17.223  0.00  0.00    +0.000 A 
ATOM     25  S   UNL     1      50.122   5.608  18.628  0.00  0.00    +0.000 S 
ATOM     26  C   UNL     1      48.891   4.630  17.974  0.00  0.00    +0.000 A 
ATOM     27  N   UNL     1      48.376   3.582  18.673  0.00  0.00    +0.000 NA
ATOM     28  C   UNL     1      47.459   2.922  18.047  0.00  0.00    +0.000 A 
ATOM     29  N   UNL     1      47.008   3.213  16.785  0.00  0.00    +0.000 N 
ATOM     30  C   UNL     1      47.489   4.267  16.050  0.00  0.00    +0.000 A 
ATOM     31  O   UNL     1      47.050   4.526  14.933  0.00  0.00    +0.000 OA
ATOM     32  C   UNL     1      48.520   5.046  16.709  0.00  0.00    +0.000 A 
ATOM     33  H   UNL     1      46.283   2.660  16.354  0.00  0.00    +0.000 HD
ENDBRANCH  20  23
ENDBRANCH   1  19
BRANCH   1  34
ATOM     34  N   UNL     1      46.884   9.285  13.930  0.00  0.00    +0.000 NA
ATOM     35  H   UNL     1      46.470   9.713  13.098  0.00  0.00    +0.000 HD
ATOM     36  H   UNL     1      47.627   9.919  14.206  0.00  0.00    +0.000 HD
ENDBRANCH   1  34
TORSDOF 7
ENDMDL
MODEL 3
REMARK VINA RESULT:    -8.043      1.587      2.572
REMARK INTER + INTRA:         -12.155
REMARK INTER:                 -11.191
REMARK INTRA:                  -0.964
REMARK UNBOUND:                -1.056
REMARK  Name = 
REMARK  7 active torsions:
REMARK  status: ('A' for Active; 'I' for Inactive)
REMARK    1  A    between atoms: N_1  and  C_2
REMARK    2  A    between atoms: C_2  and  N_3
REMARK    3  A    between atoms: C_2  and  C_16
REMARK    4  A    between atoms: C_4  and  C_6
REMARK    5  A    between atoms: C_19  and  C_20
REMARK    6  A    between atoms: C_20  and  N_21
REMARK    7  A    between atoms: C_22  and  C_24
REMARK                            x       y       z     vdW  Elec       q    Type
REMARK                         _______ _______ _______ _____ _____    ______ ____
ROOT
ATOM      1  C   UNL     1      46.816   4.309  15.008  0.00  0.00    +0.000 C 
ENDROOT
BRANCH   1   2
ATOM      2  C   UNL     1      46.035   4.411  13.707  0.00  0.00    +0.000 A 
ATOM      3  C   UNL     1      45.548   5.647  13.259  0.00  0.00    +0.000 A 
ATOM      4  C   UNL     1      44.843   5.745  12.052  0.00  0.00    +0.000 A 
ATOM      5  C   UNL     1      44.599   4.611  11.266  0.00  0.00    +0.000 A 
ATOM      6  C   UNL     1      45.096   3.376  11.700  0.00  0.00    +0.000 A 
ATOM      7  C   UNL     1      45.796   3.277  12.908  0.00  0.00    +0.000 A 
BRANCH   5   8
ATOM      8  C   UNL     1      43.793   4.708   9.999  0.00  0.00    +0.000 C 
BRANCH   8   9
ATOM      9  N   UNL     1      44.293   3.864   8.943  0.00  0.00    +0.000 N 
ATOM     10  C   UNL     1      45.441   4.201   8.261  0.00  0.00    +0.000 C 
ATOM     11  O   UNL     1      46.051   5.251   8.453  0.00  0.00    +0.000 OA
ATOM     12  H   UNL     1      43.960   2.911   8.825  0.00  0.00    +0.000 HD
BRANCH  10  13
ATOM     13  C   UNL     1      45.869   3.213   7.170  0.00  0.00    +0.000 C 
ATOM     14  C   UNL     1      46.552   1.991   7.752  0.00  0.00    +0.000 C 
ATOM     15  C   UNL     1      47.271   1.411   6.550  0.00  0.00    +0.000 C 
ATOM     16  C   UNL     1      47.597   2.617   5.679  0.00  0.00    +0.000 C 
ATOM     17  N   UNL     1      46.917   3.774   6.279  0.00  0.00    +0.000 NA
ATOM     18  H   UNL     1      46.475   4.335   5.551  0.00  0.00    +0.000 HD
ENDBRANCH  10  13
ENDBRANCH   8   9
ENDBRANCH   5   8
ENDBRANCH   1   2
BRANCH   1  19
ATOM     19  N   UNL     1      47.586   5.500  15.210  0.00  0.00    +0.000 N 
ATOM     20  C   UNL     1      48.456   5.696  16.252  0.00  0.00    +0.000 C 
ATOM     21  O   UNL     1      48.748   4.810  17.048  0.00  0.00    +0.000 OA
ATOM     22  H   UNL     1      47.131   6.332  14.850  0.00  0.00    +0.000 HD
BRANCH  20  23
ATOM     23  C   UNL     1      49.122   7.003  16.275  0.00  0.00    +0.000 A 
ATOM     24  C   UNL     1      50.018   7.347  15.270  0.00  0.00    +0.000 A 
ATOM     25  S   UNL     1      50.631   8.932  15.418  0.00  0.00    +0.000 S 
ATOM     26  C   UNL     1      49.758   9.196  16.856  0.00  0.00    +0.000 A 
ATOM     27  N   UNL     1      49.841  10.379  17.524  0.00  0.00    +0.000 NA
ATOM     28  C   UNL     1      49.135  10.432  18.606  0.00  0.00    +0.000 A 
ATOM     29  N   UNL     1      48.354   9.410  19.080  0.00  0.00    +0.000 N 
ATOM     30  C   UNL     1      48.230   8.207  18.433  0.00  0.00    +0.000 A 
ATOM     31  O   UNL     1      47.503   7.317  18.863  0.00  0.00    +0.000 OA
ATOM     32  C   UNL     1      49.001   8.096  17.208  0.00  0.00    +0.000 A 
ATOM     33  H   UNL     1      47.822   9.518  19.930  0.00  0.00    +0.000 HD
ENDBRANCH  20  23
ENDBRANCH   1  19
BRANCH   1  34
ATOM     34  N   UNL     1      47.757   3.211  14.960  0.00  0.00    +0.000 NA
ATOM     35  H   UNL     1      47.894   2.912  15.929  0.00  0.00    +0.000 HD
ATOM     36  H   UNL     1      48.656   3.588  14.676  0.00  0.00    +0.000 HD
ENDBRANCH   1  34
TORSDOF 7
ENDMDL
MODEL 4
REMARK VINA RESULT:    -7.824      2.772      4.068
REMARK INTER + INTRA:         -11.853
REMARK INTER:                 -10.726
REMARK INTRA:                  -1.127
REMARK UNBOUND:                -1.056
REMARK  Name = 
REMARK  7 active torsions:
REMARK  status: ('A' for Active; 'I' for Inactive)
REMARK    1  A    between atoms: N_1  and  C_2
REMARK    2  A    between atoms: C_2  and  N_3
REMARK    3  A    between atoms: C_2  and  C_16
REMARK    4  A    between atoms: C_4  and  C_6
REMARK    5  A    between atoms: C_19  and  C_20
REMARK    6  A    between atoms: C_20  and  N_21
REMARK    7  A    between atoms: C_22  and  C_24
REMARK                            x       y       z     vdW  Elec       q    Type
REMARK                         _______ _______ _______ _____ _____    ______ ____
ROOT
ATOM      1  C   UNL     1      48.021   7.865  14.154  0.00  0.00    +0.000 C 
ENDROOT
BRANCH   1   2
ATOM      2  C   UNL     1      46.962   7.257  13.247  0.00  0.00    +0.000 A 
ATOM      3  C   UNL     1      46.908   5.872  13.038  0.00  0.00    +0.000 A 
ATOM      4  C   UNL     1      45.922   5.308  12.217  0.00  0.00    +0.000 A 
ATOM      5  C   UNL     1      44.972   6.114  11.576  0.00  0.00    +0.000 A 
ATOM      6  C   UNL     1      45.011   7.497  11.792  0.00  0.00    +0.000 A 
ATOM      7  C   UNL     1      45.998   8.060  12.608  0.00  0.00    +0.000 A 
BRANCH   5   8
ATOM      8  C   UNL     1      43.949   5.513  10.649  0.00  0.00    +0.000 C 
BRANCH   8   9
ATOM      9  N   UNL     1      44.535   4.867   9.501  0.00  0.00    +0.000 N 
ATOM     10  C   UNL     1      44.425   3.505   9.332  0.00  0.00    +0.000 C 
ATOM     11  O   UNL     1      43.900   2.767  10.163  0.00  0.00    +0.000 OA
ATOM     12  H   UNL     1      44.838   5.401   8.691  0.00  0.00    +0.000 HD
BRANCH  10  13
ATOM     13  C   UNL     1      45.084   2.947   8.066  0.00  0.00    +0.000 C 
ATOM     14  C   UNL     1      46.024   1.799   8.379  0.00  0.00    +0.000 C 
ATOM     15  C   UNL     1      46.874   1.717   7.126  0.00  0.00    +0.000 C 
ATOM     16  C   UNL     1      46.924   3.147   6.603  0.00  0.00    +0.000 C 
ATOM     17  N   UNL     1      45.987   3.933   7.417  0.00  0.00    +0.000 NA
ATOM     18  H   UNL     1      45.437   4.550   6.819  0.00  0.00    +0.000 HD
ENDBRANCH  10  13
ENDBRANCH   8   9
ENDBRANCH   5   8
ENDBRANCH   1   2
BRANCH   1  19
ATOM     19  N   UNL     1      48.013   7.204  15.425  0.00  0.00    +0.000 N 
ATOM     20  C   UNL     1      49.099   6.581  15.983  0.00  0.00    +0.000 C 
ATOM     21  O   UNL     1      50.222   6.640  15.493  0.00  0.00    +0.000 OA
ATOM     22  H   UNL     1      47.107   6.816  15.664  0.00  0.00    +0.000 HD
BRANCH  20  23
ATOM     23  C   UNL     1      48.858   5.948  17.285  0.00  0.00    +0.000 A 
ATOM     24  C   UNL     1      49.120   4.596  17.462  0.00  0.00    +0.000 A 
ATOM     25  S   UNL     1      48.857   4.055  19.059  0.00  0.00    +0.000 S 
ATOM     26  C   UNL     1      48.338   5.598  19.556  0.00  0.00    +0.000 A 
ATOM     27  N   UNL     1      47.947   5.831  20.839  0.00  0.00    +0.000 NA
ATOM     28  C   UNL     1      47.566   7.044  21.069  0.00  0.00    +0.000 A 
ATOM     29  N   UNL     1      47.539   8.046  20.134  0.00  0.00    +0.000 N 
ATOM     30  C   UNL     1      47.936   7.860  18.834  0.00  0.00    +0.000 A 
ATOM     31  O   UNL     1      47.930   8.779  18.021  0.00  0.00    +0.000 OA
ATOM     32  C   UNL     1      48.379   6.513  18.523  0.00  0.00    +0.000 A 
ATOM     33  H   UNL     1      47.236   8.976  20.381  0.00  0.00    +0.000 HD
ENDBRANCH  20  23
ENDBRANCH   1  19
BRANCH   1  34
ATOM     34  N   UNL     1      47.739   9.261  14.411  0.00  0.00    +0.000 NA
ATOM     35  H   UNL     1      46.801   9.434  14.040  0.00  0.00    +0.000 HD
ATOM     36  H   UNL     1      48.356   9.813  13.823  0.00  0.00    +0.000 HD
ENDBRANCH   1  34
TORSDOF 7
ENDMDL
MODEL 5
REMARK VINA RESULT:    -7.754      2.088      2.471
REMARK INTER + INTRA:         -11.756
REMARK INTER:                 -10.545
REMARK INTRA:                  -1.211
REMARK UNBOUND:                -1.056
REMARK  Name = 
REMARK  7 active torsions:
REMARK  status: ('A' for Active; 'I' for Inactive)
REMARK    1  A    between atoms: N_1  and  C_2
REMARK    2  A    between atoms: C_2  and  N_3
REMARK    3  A    between atoms: C_2  and  C_16
REMARK    4  A    between atoms: C_4  and  C_6
REMARK    5  A    between atoms: C_19  and  C_20
REMARK    6  A    between atoms: C_20  and  N_21
REMARK    7  A    between atoms: C_22  and  C_24
REMARK                            x       y       z     vdW  Elec       q    Type
REMARK                         _______ _______ _______ _____ _____    ______ ____
ROOT
ATOM      1  C   UNL     1      46.985   4.018  15.529  0.00  0.00    +0.000 C 
ENDROOT
BRANCH   1   2
ATOM      2  C   UNL     1      46.581   4.553  14.164  0.00  0.00    +0.000 A 
ATOM      3  C   UNL     1      45.609   3.897  13.396  0.00  0.00    +0.000 A 
ATOM      4  C   UNL     1      45.223   4.398  12.146  0.00  0.00    +0.000 A 
ATOM      5  C   UNL     1      45.806   5.562  11.627  0.00  0.00    +0.000 A 
ATOM      6  C   UNL     1      46.766   6.231  12.394  0.00  0.00    +0.000 A 
ATOM      7  C   UNL     1      47.154   5.728  13.641  0.00  0.00    +0.000 A 
BRANCH   5   8
ATOM      8  C   UNL     1      45.432   6.068  10.259  0.00  0.00    +0.000 C 
BRANCH   8   9
ATOM      9  N   UNL     1      45.923   5.232   9.192  0.00  0.00    +0.000 N 
ATOM     10  C   UNL     1      45.124   4.252   8.646  0.00  0.00    +0.000 C 
ATOM     11  O   UNL     1      44.002   3.988   9.073  0.00  0.00    +0.000 OA
ATOM     12  H   UNL     1      46.759   5.478   8.669  0.00  0.00    +0.000 HD
BRANCH  10  13
ATOM     13  C   UNL     1      45.763   3.442   7.513  0.00  0.00    +0.000 C 
ATOM     14  C   UNL     1      46.153   2.049   7.968  0.00  0.00    +0.000 C 
ATOM     15  C   UNL     1      47.135   1.615   6.898  0.00  0.00    +0.000 C 
ATOM     16  C   UNL     1      47.791   2.908   6.432  0.00  0.00    +0.000 C 
ATOM     17  N   UNL     1      47.063   4.012   7.074  0.00  0.00    +0.000 NA
ATOM     18  H   UNL     1      46.893   4.757   6.399  0.00  0.00    +0.000 HD
ENDBRANCH  10  13
ENDBRANCH   8   9
ENDBRANCH   5   8
ENDBRANCH   1   2
BRANCH   1  19
ATOM     19  N   UNL     1      47.474   5.088  16.347  0.00  0.00    +0.000 N 
ATOM     20  C   UNL     1      47.859   4.952  17.656  0.00  0.00    +0.000 C 
ATOM     21  O   UNL     1      47.934   3.863  18.216  0.00  0.00    +0.000 OA
ATOM     22  H   UNL     1      47.093   5.991  16.088  0.00  0.00    +0.000 HD
BRANCH  20  23
ATOM     23  C   UNL     1      48.307   6.187  18.310  0.00  0.00    +0.000 A 
ATOM     24  C   UNL     1      47.688   6.624  19.473  0.00  0.00    +0.000 A 
ATOM     25  S   UNL     1      48.394   8.031  20.133  0.00  0.00    +0.000 S 
ATOM     26  C   UNL     1      49.520   8.131  18.860  0.00  0.00    +0.000 A 
ATOM     27  N   UNL     1      50.437   9.134  18.807  0.00  0.00    +0.000 NA
ATOM     28  C   UNL     1      51.218   9.091  17.777  0.00  0.00    +0.000 A 
ATOM     29  N   UNL     1      51.164   8.136  16.795  0.00  0.00    +0.000 N 
ATOM     30  C   UNL     1      50.266   7.099  16.815  0.00  0.00    +0.000 A 
ATOM     31  O   UNL     1      50.255   6.240  15.939  0.00  0.00    +0.000 OA
ATOM     32  C   UNL     1      49.367   7.099  17.954  0.00  0.00    +0.000 A 
ATOM     33  H   UNL     1      51.808   8.156  16.019  0.00  0.00    +0.000 HD
ENDBRANCH  20  23
ENDBRANCH   1  19
BRANCH   1  34
ATOM     34  N   UNL     1      48.063   3.062  15.410  0.00  0.00    +0.000 NA
ATOM     35  H   UNL     1      47.642   2.202  15.047  0.00  0.00    +0.000 HD
ATOM     36  H   UNL     1      48.369   2.824  16.348  0.00  0.00    +0.000 HD
ENDBRANCH   1  34
TORSDOF 7
ENDMDL
MODEL 6
REMARK VINA RESULT:    -7.580      3.853      4.974
REMARK INTER + INTRA:         -11.516
REMARK INTER:                 -10.475
REMARK INTRA:                  -1.041
REMARK UNBOUND:                -1.056
REMARK  Name = 
REMARK  7 active torsions:
REMARK  status: ('A' for Active; 'I' for Inactive)
REMARK    1  A    between atoms: N_1  and  C_2
REMARK    2  A    between atoms: C_2  and  N_3
REMARK    3  A    between atoms: C_2  and  C_16
REMARK    4  A    between atoms: C_4  and  C_6
REMARK    5  A    between atoms: C_19  and  C_20
REMARK    6  A    between atoms: C_20  and  N_21
REMARK    7  A    between atoms: C_22  and  C_24
REMARK                            x       y       z     vdW  Elec       q    Type
REMARK                         _______ _______ _______ _____ _____    ______ ____
ROOT
ATOM      1  C   UNL     1      47.789   4.043  17.549  0.00  0.00    +0.000 C 
ENDROOT
BRANCH   1   2
ATOM      2  C   UNL     1      47.636   4.705  16.188  0.00  0.00    +0.000 A 
ATOM      3  C   UNL     1      46.790   4.156  15.215  0.00  0.00    +0.000 A 
ATOM      4  C   UNL     1      46.635   4.774  13.968  0.00  0.00    +0.000 A 
ATOM      5  C   UNL     1      47.329   5.951  13.656  0.00  0.00    +0.000 A 
ATOM      6  C   UNL     1      48.164   6.514  14.629  0.00  0.00    +0.000 A 
ATOM      7  C   UNL     1      48.322   5.894  15.873  0.00  0.00    +0.000 A 
BRANCH   5   8
ATOM      8  C   UNL     1      47.205   6.583  12.295  0.00  0.00    +0.000 C 
BRANCH   8   9
ATOM      9  N   UNL     1      46.532   5.740  11.339  0.00  0.00    +0.000 N 
ATOM     10  C   UNL     1      45.191   5.912  11.077  0.00  0.00    +0.000 C 
ATOM     11  O   UNL     1      44.489   6.721  11.680  0.00  0.00    +0.000 OA
ATOM     12  H   UNL     1      47.052   5.166  10.681  0.00  0.00    +0.000 HD
BRANCH  10  13
ATOM     13  C   UNL     1      44.600   4.958  10.033  0.00  0.00    +0.000 C 
ATOM     14  C   UNL     1      44.734   3.508  10.456  0.00  0.00    +0.000 C 
ATOM     15  C   UNL     1      44.532   2.763   9.151  0.00  0.00    +0.000 C 
ATOM     16  C   UNL     1      45.058   3.713   8.082  0.00  0.00    +0.000 C 
ATOM     17  N   UNL     1      45.350   4.989   8.750  0.00  0.00    +0.000 NA
ATOM     18  H   UNL     1      45.012   5.766   8.182  0.00  0.00    +0.000 HD
ENDBRANCH  10  13
ENDBRANCH   8   9
ENDBRANCH   5   8
ENDBRANCH   1   2
BRANCH   1  19
ATOM     19  N   UNL     1      49.144   3.615  17.734  0.00  0.00    +0.000 N 
ATOM     20  C   UNL     1      49.724   2.564  17.071  0.00  0.00    +0.000 C 
ATOM     21  O   UNL     1      49.164   1.964  16.159  0.00  0.00    +0.000 OA
ATOM     22  H   UNL     1      49.494   3.797  18.668  0.00  0.00    +0.000 HD
BRANCH  20  23
ATOM     23  C   UNL     1      51.119   2.287  17.434  0.00  0.00    +0.000 A 
ATOM     24  C   UNL     1      51.543   0.978  17.625  0.00  0.00    +0.000 A 
ATOM     25  S   UNL     1      53.210   0.845  17.961  0.00  0.00    +0.000 S 
ATOM     26  C   UNL     1      53.413   2.535  17.909  0.00  0.00    +0.000 A 
ATOM     27  N   UNL     1      54.629   3.106  18.126  0.00  0.00    +0.000 NA
ATOM     28  C   UNL     1      54.630   4.397  18.069  0.00  0.00    +0.000 A 
ATOM     29  N   UNL     1      53.527   5.170  17.815  0.00  0.00    +0.000 N 
ATOM     30  C   UNL     1      52.285   4.637  17.577  0.00  0.00    +0.000 A 
ATOM     31  O   UNL     1      51.317   5.347  17.325  0.00  0.00    +0.000 OA
ATOM     32  C   UNL     1      52.229   3.188  17.626  0.00  0.00    +0.000 A 
ATOM     33  H   UNL     1      53.597   6.175  17.778  0.00  0.00    +0.000 HD
ENDBRANCH  20  23
ENDBRANCH   1  19
BRANCH   1  34
ATOM     34  N   UNL     1      46.965   2.858  17.642  0.00  0.00    +0.000 NA
ATOM     35  H   UNL     1      47.506   2.101  17.216  0.00  0.00    +0.000 HD
ATOM     36  H   UNL     1      46.169   2.987  17.024  0.00  0.00    +0.000 HD
ENDBRANCH   1  34
TORSDOF 7
ENDMDL
MODEL 7
REMARK VINA RESULT:    -7.299      4.181      8.910
REMARK INTER + INTRA:         -11.128
REMARK INTER:                 -10.030
REMARK INTRA:                  -1.098
REMARK UNBOUND:                -1.056
REMARK  Name = 
REMARK  7 active torsions:
REMARK  status: ('A' for Active; 'I' for Inactive)
REMARK    1  A    between atoms: N_1  and  C_2
REMARK    2  A    between atoms: C_2  and  N_3
REMARK    3  A    between atoms: C_2  and  C_16
REMARK    4  A    between atoms: C_4  and  C_6
REMARK    5  A    between atoms: C_19  and  C_20
REMARK    6  A    between atoms: C_20  and  N_21
REMARK    7  A    between atoms: C_22  and  C_24
REMARK                            x       y       z     vdW  Elec       q    Type
REMARK                         _______ _______ _______ _____ _____    ______ ____
ROOT
ATOM      1  C   UNL     1      47.823   6.860  13.718  0.00  0.00    +0.000 C 
ENDROOT
BRANCH   1   2
ATOM      2  C   UNL     1      48.175   6.039  14.949  0.00  0.00    +0.000 A 
ATOM      3  C   UNL     1      49.166   6.473  15.840  0.00  0.00    +0.000 A 
ATOM      4  C   UNL     1      49.480   5.727  16.984  0.00  0.00    +0.000 A 
ATOM      5  C   UNL     1      48.817   4.523  17.261  0.00  0.00    +0.000 A 
ATOM      6  C   UNL     1      47.815   4.092  16.384  0.00  0.00    +0.000 A 
ATOM      7  C   UNL     1      47.506   4.835  15.240  0.00  0.00    +0.000 A 
BRANCH   5   8
ATOM      8  C   UNL     1      49.194   3.694  18.460  0.00  0.00    +0.000 C 
BRANCH   8   9
ATOM      9  N   UNL     1      50.594   3.348  18.492  0.00  0.00    +0.000 N 
ATOM     10  C   UNL     1      51.117   2.462  17.576  0.00  0.00    +0.000 C 
ATOM     11  O   UNL     1      50.428   1.871  16.746  0.00  0.00    +0.000 OA
ATOM     12  H   UNL     1      51.263   3.899  19.022  0.00  0.00    +0.000 HD
BRANCH  10  13
ATOM     13  C   UNL     1      52.618   2.189  17.714  0.00  0.00    +0.000 C 
ATOM     14  C   UNL     1      52.933   0.708  17.620  0.00  0.00    +0.000 C 
ATOM     15  C   UNL     1      54.322   0.627  18.221  0.00  0.00    +0.000 C 
ATOM     16  C   UNL     1      54.367   1.760  19.239  0.00  0.00    +0.000 C 
ATOM     17  N   UNL     1      53.136   2.542  19.062  0.00  0.00    +0.000 NA
ATOM     18  H   UNL     1      53.349   3.539  19.089  0.00  0.00    +0.000 HD
ENDBRANCH  10  13
ENDBRANCH   8   9
ENDBRANCH   5   8
ENDBRANCH   1   2
BRANCH   1  19
ATOM     19  N   UNL     1      47.138   6.039  12.764  0.00  0.00    +0.000 N 
ATOM     20  C   UNL     1      46.234   6.505  11.844  0.00  0.00    +0.000 C 
ATOM     21  O   UNL     1      46.018   7.701  11.674  0.00  0.00    +0.000 OA
ATOM     22  H   UNL     1      46.989   5.091  13.091  0.00  0.00    +0.000 HD
BRANCH  20  23
ATOM     23  C   UNL     1      45.636   5.482  10.979  0.00  0.00    +0.000 A 
ATOM     24  C   UNL     1      45.789   5.558   9.601  0.00  0.00    +0.000 A 
ATOM     25  S   UNL     1      45.096   4.241   8.765  0.00  0.00    +0.000 S 
ATOM     26  C   UNL     1      44.526   3.550  10.213  0.00  0.00    +0.000 A 
ATOM     27  N   UNL     1      43.822   2.385  10.208  0.00  0.00    +0.000 NA
ATOM     28  C   UNL     1      43.442   1.987  11.378  0.00  0.00    +0.000 A 
ATOM     29  N   UNL     1      43.701   2.647  12.551  0.00  0.00    +0.000 N 
ATOM     30  C   UNL     1      44.417   3.816  12.604  0.00  0.00    +0.000 A 
ATOM     31  O   UNL     1      44.659   4.375  13.669  0.00  0.00    +0.000 OA
ATOM     32  C   UNL     1      44.872   4.306  11.316  0.00  0.00    +0.000 A 
ATOM     33  H   UNL     1      43.380   2.278  13.434  0.00  0.00    +0.000 HD
ENDBRANCH  20  23
ENDBRANCH   1  19
BRANCH   1  34
ATOM     34  N   UNL     1      49.017   7.347  13.063  0.00  0.00    +0.000 NA
ATOM     35  H   UNL     1      48.698   7.911  12.272  0.00  0.00    +0.000 HD
ATOM     36  H   UNL     1      49.484   6.550  12.642  0.00  0.00    +0.000 HD
ENDBRANCH   1  34
TORSDOF 7
ENDMDL
MODEL 8
REMARK VINA RESULT:    -7.125      2.484      3.768
REMARK INTER + INTRA:         -10.889
REMARK INTER:                  -9.674
REMARK INTRA:                  -1.215
REMARK UNBOUND:                -1.056
REMARK  Name = 
REMARK  7 active torsions:
REMARK  status: ('A' for Active; 'I' for Inactive)
REMARK    1  A    between atoms: N_1  and  C_2
REMARK    2  A    between atoms: C_2  and  N_3
REMARK    3  A    between atoms: C_2  and  C_16
REMARK    4  A    between atoms: C_4  and  C_6
REMARK    5  A    between atoms: C_19  and  C_20
REMARK    6  A    between atoms: C_20  and  N_21
REMARK    7  A    between atoms: C_22  and  C_24
REMARK                            x       y       z     vdW  Elec       q    Type
REMARK                         _______ _______ _______ _____ _____    ______ ____
ROOT
ATOM      1  C   UNL     1      48.491   9.010  13.558  0.00  0.00    +0.000 C 
ENDROOT
BRANCH   1   2
ATOM      2  C   UNL     1      47.424   8.142  12.909  0.00  0.00    +0.000 A 
ATOM      3  C   UNL     1      47.591   6.754  12.811  0.00  0.00    +0.000 A 
ATOM      4  C   UNL     1      46.601   5.951  12.228  0.00  0.00    +0.000 A 
ATOM      5  C   UNL     1      45.424   6.516  11.719  0.00  0.00    +0.000 A 
ATOM      6  C   UNL     1      45.243   7.900  11.827  0.00  0.00    +0.000 A 
ATOM      7  C   UNL     1      46.234   8.702  12.405  0.00  0.00    +0.000 A 
BRANCH   5   8
ATOM      8  C   UNL     1      44.387   5.660  11.042  0.00  0.00    +0.000 C 
BRANCH   8   9
ATOM      9  N   UNL     1      44.874   5.022   9.845  0.00  0.00    +0.000 N 
ATOM     10  C   UNL     1      44.460   3.751   9.511  0.00  0.00    +0.000 C 
ATOM     11  O   UNL     1      43.730   3.073  10.231  0.00  0.00    +0.000 OA
ATOM     12  H   UNL     1      45.339   5.553   9.114  0.00  0.00    +0.000 HD
BRANCH  10  13
ATOM     13  C   UNL     1      45.045   3.193   8.209  0.00  0.00    +0.000 C 
ATOM     14  C   UNL     1      45.916   1.978   8.458  0.00  0.00    +0.000 C 
ATOM     15  C   UNL     1      46.723   1.882   7.178  0.00  0.00    +0.000 C 
ATOM     16  C   UNL     1      46.851   3.322   6.697  0.00  0.00    +0.000 C 
ATOM     17  N   UNL     1      45.991   4.140   7.563  0.00  0.00    +0.000 NA
ATOM     18  H   UNL     1      45.465   4.810   7.001  0.00  0.00    +0.000 HD
ENDBRANCH  10  13
ENDBRANCH   8   9
ENDBRANCH   5   8
ENDBRANCH   1   2
BRANCH   1  19
ATOM     19  N   UNL     1      49.440   8.184  14.244  0.00  0.00    +0.000 N 
ATOM     20  C   UNL     1      50.492   8.660  14.984  0.00  0.00    +0.000 C 
ATOM     21  O   UNL     1      50.645   9.852  15.229  0.00  0.00    +0.000 OA
ATOM     22  H   UNL     1      49.585   7.288  13.793  0.00  0.00    +0.000 HD
BRANCH  20  23
ATOM     23  C   UNL     1      51.353   7.633  15.582  0.00  0.00    +0.000 A 
ATOM     24  C   UNL     1      52.731   7.704  15.430  0.00  0.00    +0.000 A 
ATOM     25  S   UNL     1      53.572   6.473  16.259  0.00  0.00    +0.000 S 
ATOM     26  C   UNL     1      52.121   5.774  16.809  0.00  0.00    +0.000 A 
ATOM     27  N   UNL     1      52.126   4.655  17.583  0.00  0.00    +0.000 NA
ATOM     28  C   UNL     1      50.951   4.229  17.915  0.00  0.00    +0.000 A 
ATOM     29  N   UNL     1      49.772   4.820  17.542  0.00  0.00    +0.000 N 
ATOM     30  C   UNL     1      49.719   5.956  16.774  0.00  0.00    +0.000 A 
ATOM     31  O   UNL     1      48.652   6.483  16.477  0.00  0.00    +0.000 OA
ATOM     32  C   UNL     1      51.014   6.479  16.378  0.00  0.00    +0.000 A 
ATOM     33  H   UNL     1      48.886   4.440  17.841  0.00  0.00    +0.000 HD
ENDBRANCH  20  23
ENDBRANCH   1  19
BRANCH   1  34
ATOM     34  N   UNL     1      47.909   9.885  14.553  0.00  0.00    +0.000 NA
ATOM     35  H   UNL     1      46.900   9.710  14.529  0.00  0.00    +0.000 HD
ATOM     36  H   UNL     1      48.014  10.839  14.223  0.00  0.00    +0.000 HD
ENDBRANCH   1  34
TORSDOF 7
ENDMDL
MODEL 9
REMARK VINA RESULT:    -7.092      2.534      3.375
REMARK INTER + INTRA:         -10.843
REMARK INTER:                  -9.554
REMARK INTRA:                  -1.289
REMARK UNBOUND:                -1.056
REMARK  Name = 
REMARK  7 active torsions:
REMARK  status: ('A' for Active; 'I' for Inactive)
REMARK    1  A    between atoms: N_1  and  C_2
REMARK    2  A    between atoms: C_2  and  N_3
REMARK    3  A    between atoms: C_2  and  C_16
REMARK    4  A    between atoms: C_4  and  C_6
REMARK    5  A    between atoms: C_19  and  C_20
REMARK    6  A    between atoms: C_20  and  N_21
REMARK    7  A    between atoms: C_22  and  C_24
REMARK                            x       y       z     vdW  Elec       q    Type
REMARK                         _______ _______ _______ _____ _____    ______ ____
ROOT
ATOM      1  C   UNL     1      48.931   7.088  14.835  0.00  0.00    +0.000 C 
ENDROOT
BRANCH   1   2
ATOM      2  C   UNL     1      47.821   6.767  13.845  0.00  0.00    +0.000 A 
ATOM      3  C   UNL     1      47.301   5.469  13.750  0.00  0.00    +0.000 A 
ATOM      4  C   UNL     1      46.267   5.175  12.851  0.00  0.00    +0.000 A 
ATOM      5  C   UNL     1      45.734   6.168  12.018  0.00  0.00    +0.000 A 
ATOM      6  C   UNL     1      46.239   7.470  12.119  0.00  0.00    +0.000 A 
ATOM      7  C   UNL     1      47.274   7.762  13.013  0.00  0.00    +0.000 A 
BRANCH   5   8
ATOM      8  C   UNL     1      44.663   5.839  11.012  0.00  0.00    +0.000 C 
BRANCH   8   9
ATOM      9  N   UNL     1      45.170   5.156   9.848  0.00  0.00    +0.000 N 
ATOM     10  C   UNL     1      44.610   3.968   9.433  0.00  0.00    +0.000 C 
ATOM     11  O   UNL     1      43.719   3.395  10.056  0.00  0.00    +0.000 OA
ATOM     12  H   UNL     1      45.780   5.625   9.184  0.00  0.00    +0.000 HD
BRANCH  10  13
ATOM     13  C   UNL     1      45.235   3.353   8.178  0.00  0.00    +0.000 C 
ATOM     14  C   UNL     1      45.910   2.028   8.475  0.00  0.00    +0.000 C 
ATOM     15  C   UNL     1      46.814   1.840   7.273  0.00  0.00    +0.000 C 
ATOM     16  C   UNL     1      47.178   3.255   6.842  0.00  0.00    +0.000 C 
ATOM     17  N   UNL     1      46.356   4.171   7.645  0.00  0.00    +0.000 NA
ATOM     18  H   UNL     1      45.979   4.912   7.054  0.00  0.00    +0.000 HD
ENDBRANCH  10  13
ENDBRANCH   8   9
ENDBRANCH   5   8
ENDBRANCH   1   2
BRANCH   1  19
ATOM     19  N   UNL     1      50.150   7.356  14.131  0.00  0.00    +0.000 N 
ATOM     20  C   UNL     1      50.712   8.600  13.997  0.00  0.00    +0.000 C 
ATOM     21  O   UNL     1      50.280   9.589  14.579  0.00  0.00    +0.000 OA
ATOM     22  H   UNL     1      50.318   6.709  13.369  0.00  0.00    +0.000 HD
BRANCH  20  23
ATOM     23  C   UNL     1      51.953   8.645  13.214  0.00  0.00    +0.000 A 
ATOM     24  C   UNL     1      53.115   9.153  13.779  0.00  0.00    +0.000 A 
ATOM     25  S   UNL     1      54.473   9.052  12.750  0.00  0.00    +0.000 S 
ATOM     26  C   UNL     1      53.543   8.370  11.497  0.00  0.00    +0.000 A 
ATOM     27  N   UNL     1      54.103   8.041  10.302  0.00  0.00    +0.000 NA
ATOM     28  C   UNL     1      53.275   7.546   9.442  0.00  0.00    +0.000 A 
ATOM     29  N   UNL     1      51.938   7.349   9.668  0.00  0.00    +0.000 N 
ATOM     30  C   UNL     1      51.333   7.653  10.862  0.00  0.00    +0.000 A 
ATOM     31  O   UNL     1      50.139   7.443  11.051  0.00  0.00    +0.000 OA
ATOM     32  C   UNL     1      52.221   8.210  11.865  0.00  0.00    +0.000 A 
ATOM     33  H   UNL     1      51.345   6.951   8.955  0.00  0.00    +0.000 HD
ENDBRANCH  20  23
ENDBRANCH   1  19
BRANCH   1  34
ATOM     34  N   UNL     1      49.193   5.959  15.701  0.00  0.00    +0.000 NA
ATOM     35  H   UNL     1      50.130   5.627  15.459  0.00  0.00    +0.000 HD
ATOM     36  H   UNL     1      48.571   5.207  15.423  0.00  0.00    +0.000 HD
ENDBRANCH   1  34
TORSDOF 7
ENDMDL
