MODEL 1
REMARK VINA RESULT:    -8.726      0.000      0.000
REMARK INTER + INTRA:         -13.680
REMARK INTER:                 -12.552
REMARK INTRA:                  -1.128
REMARK UNBOUND:                -1.128
REMARK  Name = 
REMARK  8 active torsions:
REMARK  status: ('A' for Active; 'I' for Inactive)
REMARK    1  A    between atoms: C_2  and  C_21
REMARK    2  A    between atoms: N_3  and  C_4
REMARK    3  A    between atoms: C_4  and  C_5
REMARK    4  A    between atoms: C_8  and  C_9
REMARK    5  A    between atoms: C_9  and  N_10
REMARK    6  A    between atoms: N_10  and  C_11
REMARK    7  A    between atoms: C_14  and  C_15
REMARK    8  A    between atoms: C_15  and  O_16
REMARK                            x       y       z     vdW  Elec       q    Type
REMARK                         _______ _______ _______ _____ _____    ______ ____
ROOT
ATOM      1  C   UNL     1      47.250   6.080  13.144  0.00  0.00    +0.000 A 
ATOM      2  C   UNL     1      46.617   6.837  12.150  0.00  0.00    +0.000 A 
ATOM      3  C   UNL     1      45.486   6.345  11.494  0.00  0.00    +0.000 A 
ATOM      4  C   UNL     1      44.954   5.093  11.832  0.00  0.00    +0.000 A 
ATOM      5  C   UNL     1      45.593   4.332  12.820  0.00  0.00    +0.000 A 
ATOM      6  C   UNL     1      46.722   4.827  13.481  0.00  0.00    +0.000 A 
ENDROOT
BRANCH   1   7
ATOM      7  C   UNL     1      48.451   6.635  13.868  0.00  0.00    +0.000 C 
BRANCH   7  10
ATOM      8  O   UNL     1      50.349   6.313  15.927  0.00  0.00    +0.000 OA
ATOM      9  C   UNL     1      49.196   6.615  16.222  0.00  0.00    +0.000 C 
ATOM     10  N   UNL     1      48.202   6.730  15.285  0.00  0.00    +0.000 N 
ATOM     11  H   UNL     1      47.324   7.159  15.549  0.00  0.00    +0.000 HD
BRANCH   9  12
ATOM     12  C   UNL     1      48.795   6.826  17.620  0.00  0.00    +0.000 A 
ATOM     13  C   UNL     1      48.387   8.086  18.037  0.00  0.00    +0.000 A 
ATOM     14  S   UNL     1      47.983   8.163  19.691  0.00  0.00    +0.000 S 
ATOM     15  C   UNL     1      48.293   6.503  19.901  0.00  0.00    +0.000 A 
ATOM     16  N   UNL     1      48.113   5.906  21.109  0.00  0.00    +0.000 NA
ATOM     17  C   UNL     1      48.340   4.634  21.115  0.00  0.00    +0.000 A 
ATOM     18  N   UNL     1      48.741   3.908  20.024  0.00  0.00    +0.000 N 
ATOM     19  C   UNL     1      49.006   4.482  18.804  0.00  0.00    +0.000 A 
ATOM     20  O   UNL     1      49.484   3.823  17.886  0.00  0.00    +0.000 OA
ATOM     21  C   UNL     1      48.723   5.903  18.730  0.00  0.00    +0.000 A 
ATOM     22  H   UNL     1      48.931   2.920  20.102  0.00  0.00    +0.000 HD
ENDBRANCH   9  12
ENDBRANCH   7  10
ENDBRANCH   1   7
BRANCH   4  23
ATOM     23  C   UNL     1      43.701   4.588  11.156  0.00  0.00    +0.000 C 
BRANCH  23  24
ATOM     24  N   UNL     1      43.806   4.704   9.710  0.00  0.00    +0.000 N 
ATOM     25  H   UNL     1      42.909   4.839   9.248  0.00  0.00    +0.000 HD
BRANCH  24  26
ATOM     26  C   UNL     1      44.647   3.841   8.998  0.00  0.00    +0.000 A 
ATOM     27  C   UNL     1      44.754   2.469   9.254  0.00  0.00    +0.000 A 
ATOM     28  C   UNL     1      45.674   1.663   8.567  0.00  0.00    +0.000 A 
ATOM     29  C   UNL     1      46.544   2.218   7.625  0.00  0.00    +0.000 A 
ATOM     30  C   UNL     1      46.469   3.593   7.382  0.00  0.00    +0.000 A 
ATOM     31  C   UNL     1      45.541   4.390   8.066  0.00  0.00    +0.000 A 
BRANCH  29  32
ATOM     32  C   UNL     1      47.572   1.369   6.928  0.00  0.00    +0.000 C 
BRANCH  32  33
ATOM     33  O   UNL     1      48.705   2.143   6.562  0.00  0.00    +0.000 OA
ATOM     34  H   UNL     1      48.962   2.654   7.348  0.00  0.00    +0.000 HD
ENDBRANCH  32  33
ENDBRANCH  29  32
ENDBRANCH  24  26
ENDBRANCH  23  24
ENDBRANCH   4  23
TORSDOF 8
ENDMDL
MODEL 2
REMARK VINA RESULT:    -8.634      1.490      1.945
REMARK INTER + INTRA:         -13.548
REMARK INTER:                 -12.636
REMARK INTRA:                  -0.912
REMARK UNBOUND:                -1.128
REMARK  Name = 
REMARK  8 active torsions:
REMARK  status: ('A' for Active; 'I' for Inactive)
REMARK    1  A    between atoms: C_2  and  C_21
REMARK    2  A    between atoms: N_3  and  C_4
REMARK    3  A    between atoms: C_4  and  C_5
REMARK    4  A    between atoms: C_8  and  C_9
REMARK    5  A    between atoms: C_9  and  N_10
REMARK    6  A    between atoms: N_10  and  C_11
REMARK    7  A    between atoms: C_14  and  C_15
REMARK    8  A    between atoms: C_15  and  O_16
REMARK                            x       y       z     vdW  Elec       q    Type
REMARK                         _______ _______ _______ _____ _____    ______ ____
ROOT
ATOM      1  C   UNL     1      46.235   6.507  12.610  0.00  0.00    +0.000 A 
ATOM      2  C   UNL     1      45.274   6.945  11.691  0.00  0.00    +0.000 A 
ATOM      3  C   UNL     1      44.424   6.033  11.061  0.00  0.00    +0.000 A 
ATOM      4  C   UNL     1      44.506   4.664  11.352  0.00  0.00    +0.000 A 
ATOM      5  C   UNL     1      45.474   4.224  12.266  0.00  0.00    +0.000 A 
ATOM      6  C   UNL     1      46.321   5.139  12.901  0.00  0.00    +0.000 A 
ENDROOT
BRANCH   1   7
ATOM      7  C   UNL     1      47.124   7.504  13.309  0.00  0.00    +0.000 C 
BRANCH   7  10
ATOM      8  O   UNL     1      49.782   7.014  14.111  0.00  0.00    +0.000 OA
ATOM      9  C   UNL     1      48.875   6.848  14.921  0.00  0.00    +0.000 C 
ATOM     10  N   UNL     1      47.554   7.006  14.592  0.00  0.00    +0.000 N 
ATOM     11  H   UNL     1      46.863   7.042  15.331  0.00  0.00    +0.000 HD
BRANCH   9  12
ATOM     12  C   UNL     1      49.150   6.417  16.299  0.00  0.00    +0.000 A 
ATOM     13  C   UNL     1      49.842   7.260  17.159  0.00  0.00    +0.000 A 
ATOM     14  S   UNL     1      50.100   6.595  18.708  0.00  0.00    +0.000 S 
ATOM     15  C   UNL     1      49.256   5.175  18.301  0.00  0.00    +0.000 A 
ATOM     16  N   UNL     1      49.084   4.179  19.211  0.00  0.00    +0.000 NA
ATOM     17  C   UNL     1      48.385   3.181  18.784  0.00  0.00    +0.000 A 
ATOM     18  N   UNL     1      47.852   3.084  17.524  0.00  0.00    +0.000 N 
ATOM     19  C   UNL     1      48.063   4.030  16.551  0.00  0.00    +0.000 A 
ATOM     20  O   UNL     1      47.677   3.851  15.400  0.00  0.00    +0.000 OA
ATOM     21  C   UNL     1      48.804   5.196  16.993  0.00  0.00    +0.000 A 
ATOM     22  H   UNL     1      47.339   2.262  17.242  0.00  0.00    +0.000 HD
ENDBRANCH   9  12
ENDBRANCH   7  10
ENDBRANCH   1   7
BRANCH   4  23
ATOM     23  C   UNL     1      43.551   3.686  10.708  0.00  0.00    +0.000 C 
BRANCH  23  24
ATOM     24  N   UNL     1      44.257   2.509  10.226  0.00  0.00    +0.000 N 
ATOM     25  H   UNL     1      44.654   1.942  10.973  0.00  0.00    +0.000 HD
BRANCH  24  26
ATOM     26  C   UNL     1      45.111   2.607   9.121  0.00  0.00    +0.000 A 
ATOM     27  C   UNL     1      45.229   3.754   8.328  0.00  0.00    +0.000 A 
ATOM     28  C   UNL     1      46.036   3.774   7.181  0.00  0.00    +0.000 A 
ATOM     29  C   UNL     1      46.723   2.627   6.773  0.00  0.00    +0.000 A 
ATOM     30  C   UNL     1      46.589   1.465   7.539  0.00  0.00    +0.000 A 
ATOM     31  C   UNL     1      45.787   1.457   8.689  0.00  0.00    +0.000 A 
BRANCH  29  32
ATOM     32  C   UNL     1      47.544   2.625   5.512  0.00  0.00    +0.000 C 
BRANCH  32  33
ATOM     33  O   UNL     1      48.638   1.725   5.620  0.00  0.00    +0.000 OA
ATOM     34  H   UNL     1      48.701   1.256   4.770  0.00  0.00    +0.000 HD
ENDBRANCH  32  33
ENDBRANCH  29  32
ENDBRANCH  24  26
ENDBRANCH  23  24
ENDBRANCH   4  23
TORSDOF 8
ENDMDL
MODEL 3
REMARK VINA RESULT:    -8.433      1.506      2.309
REMARK INTER + INTRA:         -13.259
REMARK INTER:                 -11.975
REMARK INTRA:                  -1.284
REMARK UNBOUND:                -1.128
REMARK  Name = 
REMARK  8 active torsions:
REMARK  status: ('A' for Active; 'I' for Inactive)
REMARK    1  A    between atoms: C_2  and  C_21
REMARK    2  A    between atoms: N_3  and  C_4
REMARK    3  A    between atoms: C_4  and  C_5
REMARK    4  A    between atoms: C_8  and  C_9
REMARK    5  A    between atoms: C_9  and  N_10
REMARK    6  A    between atoms: N_10  and  C_11
REMARK    7  A    between atoms: C_14  and  C_15
REMARK    8  A    between atoms: C_15  and  O_16
REMARK                            x       y       z     vdW  Elec       q    Type
REMARK                         _______ _______ _______ _____ _____    ______ ____
ROOT
ATOM      1  C   UNL     1      47.161   5.838  13.385  0.00  0.00    +0.000 A 
ATOM      2  C   UNL     1      46.498   6.729  12.531  0.00  0.00    +0.000 A 
ATOM      3  C   UNL     1      45.367   6.323  11.820  0.00  0.00    +0.000 A 
ATOM      4  C   UNL     1      44.863   5.023  11.962  0.00  0.00    +0.000 A 
ATOM      5  C   UNL     1      45.531   4.129  12.810  0.00  0.00    +0.000 A 
ATOM      6  C   UNL     1      46.661   4.538  13.527  0.00  0.00    +0.000 A 
ENDROOT
BRANCH   1   7
ATOM      7  C   UNL     1      48.361   6.298  14.173  0.00  0.00    +0.000 C 
BRANCH   7  10
ATOM      8  O   UNL     1      49.648   5.239  16.446  0.00  0.00    +0.000 OA
ATOM      9  C   UNL     1      48.728   6.036  16.601  0.00  0.00    +0.000 C 
ATOM     10  N   UNL     1      48.012   6.548  15.550  0.00  0.00    +0.000 N 
ATOM     11  H   UNL     1      47.395   7.334  15.710  0.00  0.00    +0.000 HD
BRANCH   9  12
ATOM     12  C   UNL     1      48.298   6.457  17.941  0.00  0.00    +0.000 A 
ATOM     13  C   UNL     1      48.149   5.510  18.946  0.00  0.00    +0.000 A 
ATOM     14  S   UNL     1      47.620   6.162  20.430  0.00  0.00    +0.000 S 
ATOM     15  C   UNL     1      47.617   7.742  19.798  0.00  0.00    +0.000 A 
ATOM     16  N   UNL     1      47.277   8.805  20.575  0.00  0.00    +0.000 NA
ATOM     17  C   UNL     1      47.363   9.949  19.983  0.00  0.00    +0.000 A 
ATOM     18  N   UNL     1      47.748  10.125  18.678  0.00  0.00    +0.000 N 
ATOM     19  C   UNL     1      48.028   9.076  17.836  0.00  0.00    +0.000 A 
ATOM     20  O   UNL     1      48.245   9.264  16.643  0.00  0.00    +0.000 OA
ATOM     21  C   UNL     1      47.991   7.769  18.465  0.00  0.00    +0.000 A 
ATOM     22  H   UNL     1      47.766  11.045  18.264  0.00  0.00    +0.000 HD
ENDBRANCH   9  12
ENDBRANCH   7  10
ENDBRANCH   1   7
BRANCH   4  23
ATOM     23  C   UNL     1      43.609   4.603  11.231  0.00  0.00    +0.000 C 
BRANCH  23  24
ATOM     24  N   UNL     1      43.780   4.728   9.792  0.00  0.00    +0.000 N 
ATOM     25  H   UNL     1      42.915   4.936   9.298  0.00  0.00    +0.000 HD
BRANCH  24  26
ATOM     26  C   UNL     1      44.583   3.814   9.100  0.00  0.00    +0.000 A 
ATOM     27  C   UNL     1      44.601   2.439   9.361  0.00  0.00    +0.000 A 
ATOM     28  C   UNL     1      45.485   1.577   8.696  0.00  0.00    +0.000 A 
ATOM     29  C   UNL     1      46.407   2.074   7.772  0.00  0.00    +0.000 A 
ATOM     30  C   UNL     1      46.420   3.451   7.524  0.00  0.00    +0.000 A 
ATOM     31  C   UNL     1      45.527   4.304   8.186  0.00  0.00    +0.000 A 
BRANCH  29  32
ATOM     32  C   UNL     1      47.397   1.162   7.098  0.00  0.00    +0.000 C 
BRANCH  32  33
ATOM     33  O   UNL     1      48.332   1.907   6.332  0.00  0.00    +0.000 OA
ATOM     34  H   UNL     1      48.620   1.331   5.603  0.00  0.00    +0.000 HD
ENDBRANCH  32  33
ENDBRANCH  29  32
ENDBRANCH  24  26
ENDBRANCH  23  24
ENDBRANCH   4  23
TORSDOF 8
ENDMDL
MODEL 4
REMARK VINA RESULT:    -8.041      1.958      2.463
REMARK INTER + INTRA:         -12.694
REMARK INTER:                 -11.854
REMARK INTRA:                  -0.841
REMARK UNBOUND:                -1.128
REMARK  Name = 
REMARK  8 active torsions:
REMARK  status: ('A' for Active; 'I' for Inactive)
REMARK    1  A    between atoms: C_2  and  C_21
REMARK    2  A    between atoms: N_3  and  C_4
REMARK    3  A    between atoms: C_4  and  C_5
REMARK    4  A    between atoms: C_8  and  C_9
REMARK    5  A    between atoms: C_9  and  N_10
REMARK    6  A    between atoms: N_10  and  C_11
REMARK    7  A    between atoms: C_14  and  C_15
REMARK    8  A    between atoms: C_15  and  O_16
REMARK                            x       y       z     vdW  Elec       q    Type
REMARK                         _______ _______ _______ _____ _____    ______ ____
ROOT
ATOM      1  C   UNL     1      46.623   6.280  12.925  0.00  0.00    +0.000 A 
ATOM      2  C   UNL     1      46.129   6.753  11.703  0.00  0.00    +0.000 A 
ATOM      3  C   UNL     1      45.241   5.982  10.949  0.00  0.00    +0.000 A 
ATOM      4  C   UNL     1      44.816   4.729  11.410  0.00  0.00    +0.000 A 
ATOM      5  C   UNL     1      45.318   4.251  12.628  0.00  0.00    +0.000 A 
ATOM      6  C   UNL     1      46.202   5.026  13.386  0.00  0.00    +0.000 A 
ENDROOT
BRANCH   1   7
ATOM      7  C   UNL     1      47.555   7.135  13.746  0.00  0.00    +0.000 C 
BRANCH   7  10
ATOM      8  O   UNL     1      49.077   8.157  15.887  0.00  0.00    +0.000 OA
ATOM      9  C   UNL     1      48.832   6.955  15.851  0.00  0.00    +0.000 C 
ATOM     10  N   UNL     1      48.152   6.372  14.813  0.00  0.00    +0.000 N 
ATOM     11  H   UNL     1      47.815   5.423  14.917  0.00  0.00    +0.000 HD
BRANCH   9  12
ATOM     12  C   UNL     1      49.303   6.047  16.907  0.00  0.00    +0.000 A 
ATOM     13  C   UNL     1      48.382   5.403  17.722  0.00  0.00    +0.000 A 
ATOM     14  S   UNL     1      49.096   4.410  18.910  0.00  0.00    +0.000 S 
ATOM     15  C   UNL     1      50.661   4.767  18.348  0.00  0.00    +0.000 A 
ATOM     16  N   UNL     1      51.757   4.206  18.927  0.00  0.00    +0.000 NA
ATOM     17  C   UNL     1      52.877   4.527  18.371  0.00  0.00    +0.000 A 
ATOM     18  N   UNL     1      53.002   5.367  17.295  0.00  0.00    +0.000 N 
ATOM     19  C   UNL     1      51.931   6.013  16.726  0.00  0.00    +0.000 A 
ATOM     20  O   UNL     1      52.094   6.853  15.847  0.00  0.00    +0.000 OA
ATOM     21  C   UNL     1      50.642   5.652  17.283  0.00  0.00    +0.000 A 
ATOM     22  H   UNL     1      53.911   5.602  16.925  0.00  0.00    +0.000 HD
ENDBRANCH   9  12
ENDBRANCH   7  10
ENDBRANCH   1   7
BRANCH   4  23
ATOM     23  C   UNL     1      43.816   3.920  10.616  0.00  0.00    +0.000 C 
BRANCH  23  24
ATOM     24  N   UNL     1      44.389   2.651  10.196  0.00  0.00    +0.000 N 
ATOM     25  H   UNL     1      44.832   2.136  10.955  0.00  0.00    +0.000 HD
BRANCH  24  26
ATOM     26  C   UNL     1      45.116   2.571   9.003  0.00  0.00    +0.000 A 
ATOM     27  C   UNL     1      45.863   1.452   8.619  0.00  0.00    +0.000 A 
ATOM     28  C   UNL     1      46.642   1.453   7.453  0.00  0.00    +0.000 A 
ATOM     29  C   UNL     1      46.725   2.595   6.652  0.00  0.00    +0.000 A 
ATOM     30  C   UNL     1      46.008   3.731   7.041  0.00  0.00    +0.000 A 
ATOM     31  C   UNL     1      45.225   3.718   8.203  0.00  0.00    +0.000 A 
BRANCH  29  32
ATOM     32  C   UNL     1      47.605   2.622   5.431  0.00  0.00    +0.000 C 
BRANCH  32  33
ATOM     33  O   UNL     1      48.651   1.667   5.539  0.00  0.00    +0.000 OA
ATOM     34  H   UNL     1      48.273   0.807   5.288  0.00  0.00    +0.000 HD
ENDBRANCH  32  33
ENDBRANCH  29  32
ENDBRANCH  24  26
ENDBRANCH  23  24
ENDBRANCH   4  23
TORSDOF 8
ENDMDL
MODEL 5
REMARK VINA RESULT:    -7.703      2.964      4.604
REMARK INTER + INTRA:         -12.209
REMARK INTER:                 -10.870
REMARK INTRA:                  -1.340
REMARK UNBOUND:                -1.128
REMARK  Name = 
REMARK  8 active torsions:
REMARK  status: ('A' for Active; 'I' for Inactive)
REMARK    1  A    between atoms: C_2  and  C_21
REMARK    2  A    between atoms: N_3  and  C_4
REMARK    3  A    between atoms: C_4  and  C_5
REMARK    4  A    between atoms: C_8  and  C_9
REMARK    5  A    between atoms: C_9  and  N_10
REMARK    6  A    between atoms: N_10  and  C_11
REMARK    7  A    between atoms: C_14  and  C_15
REMARK    8  A    between atoms: C_15  and  O_16
REMARK                            x       y       z     vdW  Elec       q    Type
REMARK                         _______ _______ _______ _____ _____    ______ ____
ROOT
ATOM      1  C   UNL     1      46.586   5.294  13.451  0.00  0.00    +0.000 A 
ATOM      2  C   UNL     1      46.579   6.189  12.374  0.00  0.00    +0.000 A 
ATOM      3  C   UNL     1      45.693   6.013  11.309  0.00  0.00    +0.000 A 
ATOM      4  C   UNL     1      44.782   4.948  11.308  0.00  0.00    +0.000 A 
ATOM      5  C   UNL     1      44.794   4.047  12.382  0.00  0.00    +0.000 A 
ATOM      6  C   UNL     1      45.678   4.227  13.451  0.00  0.00    +0.000 A 
ENDROOT
BRANCH   1   7
ATOM      7  C   UNL     1      47.524   5.513  14.611  0.00  0.00    +0.000 C 
BRANCH   7  10
ATOM      8  O   UNL     1      49.935   6.244  15.875  0.00  0.00    +0.000 OA
ATOM      9  C   UNL     1      49.404   7.036  15.101  0.00  0.00    +0.000 C 
ATOM     10  N   UNL     1      48.202   6.781  14.496  0.00  0.00    +0.000 N 
ATOM     11  H   UNL     1      47.899   7.373  13.733  0.00  0.00    +0.000 HD
BRANCH   9  12
ATOM     12  C   UNL     1      50.009   8.344  14.814  0.00  0.00    +0.000 A 
ATOM     13  C   UNL     1      50.304   9.211  15.858  0.00  0.00    +0.000 A 
ATOM     14  S   UNL     1      50.975  10.694  15.348  0.00  0.00    +0.000 S 
ATOM     15  C   UNL     1      50.940  10.212  13.717  0.00  0.00    +0.000 A 
ATOM     16  N   UNL     1      51.408  11.031  12.736  0.00  0.00    +0.000 NA
ATOM     17  C   UNL     1      51.366  10.522  11.550  0.00  0.00    +0.000 A 
ATOM     18  N   UNL     1      50.885   9.272  11.254  0.00  0.00    +0.000 N 
ATOM     19  C   UNL     1      50.335   8.442  12.201  0.00  0.00    +0.000 A 
ATOM     20  O   UNL     1      49.802   7.385  11.881  0.00  0.00    +0.000 OA
ATOM     21  C   UNL     1      50.401   8.947  13.559  0.00  0.00    +0.000 A 
ATOM     22  H   UNL     1      50.852   8.944  10.301  0.00  0.00    +0.000 HD
ENDBRANCH   9  12
ENDBRANCH   7  10
ENDBRANCH   1   7
BRANCH   4  23
ATOM     23  C   UNL     1      43.790   4.790  10.179  0.00  0.00    +0.000 C 
BRANCH  23  24
ATOM     24  N   UNL     1      43.815   3.436   9.649  0.00  0.00    +0.000 N 
ATOM     25  H   UNL     1      43.582   2.726  10.341  0.00  0.00    +0.000 HD
BRANCH  24  26
ATOM     26  C   UNL     1      44.855   3.034   8.803  0.00  0.00    +0.000 A 
ATOM     27  C   UNL     1      45.380   1.736   8.776  0.00  0.00    +0.000 A 
ATOM     28  C   UNL     1      46.479   1.405   7.969  0.00  0.00    +0.000 A 
ATOM     29  C   UNL     1      47.110   2.378   7.190  0.00  0.00    +0.000 A 
ATOM     30  C   UNL     1      46.616   3.686   7.233  0.00  0.00    +0.000 A 
ATOM     31  C   UNL     1      45.511   4.006   8.035  0.00  0.00    +0.000 A 
BRANCH  29  32
ATOM     32  C   UNL     1      48.325   2.042   6.368  0.00  0.00    +0.000 C 
BRANCH  32  33
ATOM     33  O   UNL     1      48.206   2.564   5.052  0.00  0.00    +0.000 OA
ATOM     34  H   UNL     1      48.110   1.802   4.455  0.00  0.00    +0.000 HD
ENDBRANCH  32  33
ENDBRANCH  29  32
ENDBRANCH  24  26
ENDBRANCH  23  24
ENDBRANCH   4  23
TORSDOF 8
ENDMDL
MODEL 6
REMARK VINA RESULT:    -7.293      3.048      8.944
REMARK INTER + INTRA:         -11.619
REMARK INTER:                 -10.052
REMARK INTRA:                  -1.568
REMARK UNBOUND:                -1.128
REMARK  Name = 
REMARK  8 active torsions:
REMARK  status: ('A' for Active; 'I' for Inactive)
REMARK    1  A    between atoms: C_2  and  C_21
REMARK    2  A    between atoms: N_3  and  C_4
REMARK    3  A    between atoms: C_4  and  C_5
REMARK    4  A    between atoms: C_8  and  C_9
REMARK    5  A    between atoms: C_9  and  N_10
REMARK    6  A    between atoms: N_10  and  C_11
REMARK    7  A    between atoms: C_14  and  C_15
REMARK    8  A    between atoms: C_15  and  O_16
REMARK                            x       y       z     vdW  Elec       q    Type
REMARK                         _______ _______ _______ _____ _____    ______ ____
ROOT
ATOM      1  C   UNL     1      48.491   8.127  13.131  0.00  0.00    +0.000 A 
ATOM      2  C   UNL     1      49.766   7.633  13.431  0.00  0.00    +0.000 A 
ATOM      3  C   UNL     1      50.305   7.787  14.711  0.00  0.00    +0.000 A 
ATOM      4  C   UNL     1      49.572   8.423  15.722  0.00  0.00    +0.000 A 
ATOM      5  C   UNL     1      48.299   8.926  15.419  0.00  0.00    +0.000 A 
ATOM      6  C   UNL     1      47.757   8.766  14.139  0.00  0.00    +0.000 A 
ENDROOT
BRANCH   1   7
ATOM      7  C   UNL     1      47.906   7.926  11.756  0.00  0.00    +0.000 C 
BRANCH   7  10
ATOM      8  O   UNL     1      45.096   7.777  11.913  0.00  0.00    +0.000 OA
ATOM      9  C   UNL     1      45.738   6.746  11.730  0.00  0.00    +0.000 C 
ATOM     10  N   UNL     1      47.108   6.726  11.704  0.00  0.00    +0.000 N 
ATOM     11  H   UNL     1      47.582   5.897  11.368  0.00  0.00    +0.000 HD
BRANCH   9  12
ATOM     12  C   UNL     1      45.069   5.446  11.578  0.00  0.00    +0.000 A 
ATOM     13  C   UNL     1      44.336   4.921  12.634  0.00  0.00    +0.000 A 
ATOM     14  S   UNL     1      43.649   3.396  12.300  0.00  0.00    +0.000 S 
ATOM     15  C   UNL     1      44.266   3.405  10.714  0.00  0.00    +0.000 A 
ATOM     16  N   UNL     1      44.014   2.375   9.861  0.00  0.00    +0.000 NA
ATOM     17  C   UNL     1      44.502   2.533   8.676  0.00  0.00    +0.000 A 
ATOM     18  N   UNL     1      45.229   3.622   8.270  0.00  0.00    +0.000 N 
ATOM     19  C   UNL     1      45.569   4.648   9.117  0.00  0.00    +0.000 A 
ATOM     20  O   UNL     1      46.326   5.543   8.754  0.00  0.00    +0.000 OA
ATOM     21  C   UNL     1      45.007   4.543  10.450  0.00  0.00    +0.000 A 
ATOM     22  H   UNL     1      45.608   3.671   7.336  0.00  0.00    +0.000 HD
ENDBRANCH   9  12
ENDBRANCH   7  10
ENDBRANCH   1   7
BRANCH   4  23
ATOM     23  C   UNL     1      50.137   8.542  17.118  0.00  0.00    +0.000 C 
BRANCH  23  24
ATOM     24  N   UNL     1      49.474   7.622  18.028  0.00  0.00    +0.000 N 
ATOM     25  H   UNL     1      49.498   7.926  18.999  0.00  0.00    +0.000 HD
BRANCH  24  26
ATOM     26  C   UNL     1      49.672   6.242  17.897  0.00  0.00    +0.000 A 
ATOM     27  C   UNL     1      50.927   5.626  17.958  0.00  0.00    +0.000 A 
ATOM     28  C   UNL     1      51.080   4.249  17.736  0.00  0.00    +0.000 A 
ATOM     29  C   UNL     1      49.980   3.453  17.409  0.00  0.00    +0.000 A 
ATOM     30  C   UNL     1      48.725   4.062  17.314  0.00  0.00    +0.000 A 
ATOM     31  C   UNL     1      48.579   5.437  17.546  0.00  0.00    +0.000 A 
BRANCH  29  32
ATOM     32  C   UNL     1      50.147   1.986  17.113  0.00  0.00    +0.000 C 
BRANCH  32  33
ATOM     33  O   UNL     1      49.594   1.659  15.846  0.00  0.00    +0.000 OA
ATOM     34  H   UNL     1      49.760   2.419  15.262  0.00  0.00    +0.000 HD
ENDBRANCH  32  33
ENDBRANCH  29  32
ENDBRANCH  24  26
ENDBRANCH  23  24
ENDBRANCH   4  23
TORSDOF 8
ENDMDL
MODEL 7
REMARK VINA RESULT:    -7.122      4.014      5.369
REMARK INTER + INTRA:         -11.373
REMARK INTER:                 -10.191
REMARK INTRA:                  -1.181
REMARK UNBOUND:                -1.128
REMARK  Name = 
REMARK  8 active torsions:
REMARK  status: ('A' for Active; 'I' for Inactive)
REMARK    1  A    between atoms: C_2  and  C_21
REMARK    2  A    between atoms: N_3  and  C_4
REMARK    3  A    between atoms: C_4  and  C_5
REMARK    4  A    between atoms: C_8  and  C_9
REMARK    5  A    between atoms: C_9  and  N_10
REMARK    6  A    between atoms: N_10  and  C_11
REMARK    7  A    between atoms: C_14  and  C_15
REMARK    8  A    between atoms: C_15  and  O_16
REMARK                            x       y       z     vdW  Elec       q    Type
REMARK                         _______ _______ _______ _____ _____    ______ ____
ROOT
ATOM      1  C   UNL     1      46.720   6.704  13.233  0.00  0.00    +0.000 A 
ATOM      2  C   UNL     1      45.786   6.864  12.201  0.00  0.00    +0.000 A 
ATOM      3  C   UNL     1      45.100   5.762  11.685  0.00  0.00    +0.000 A 
ATOM      4  C   UNL     1      45.320   4.479  12.204  0.00  0.00    +0.000 A 
ATOM      5  C   UNL     1      46.260   4.317  13.230  0.00  0.00    +0.000 A 
ATOM      6  C   UNL     1      46.943   5.421  13.751  0.00  0.00    +0.000 A 
ENDROOT
BRANCH   1   7
ATOM      7  C   UNL     1      47.430   7.905  13.804  0.00  0.00    +0.000 C 
BRANCH   7  10
ATOM      8  O   UNL     1      49.262  10.013  14.182  0.00  0.00    +0.000 OA
ATOM      9  C   UNL     1      49.664   8.952  13.713  0.00  0.00    +0.000 C 
ATOM     10  N   UNL     1      48.825   7.902  13.441  0.00  0.00    +0.000 N 
ATOM     11  H   UNL     1      49.223   6.995  13.234  0.00  0.00    +0.000 HD
BRANCH   9  12
ATOM     12  C   UNL     1      51.077   8.758  13.361  0.00  0.00    +0.000 A 
ATOM     13  C   UNL     1      52.067   9.109  14.270  0.00  0.00    +0.000 A 
ATOM     14  S   UNL     1      53.650   8.845  13.694  0.00  0.00    +0.000 S 
ATOM     15  C   UNL     1      53.070   8.208  12.227  0.00  0.00    +0.000 A 
ATOM     16  N   UNL     1      53.928   7.757  11.273  0.00  0.00    +0.000 NA
ATOM     17  C   UNL     1      53.353   7.256  10.231  0.00  0.00    +0.000 A 
ATOM     18  N   UNL     1      51.995   7.177  10.052  0.00  0.00    +0.000 N 
ATOM     19  C   UNL     1      51.094   7.686  10.954  0.00  0.00    +0.000 A 
ATOM     20  O   UNL     1      49.893   7.710  10.703  0.00  0.00    +0.000 OA
ATOM     21  C   UNL     1      51.687   8.219  12.166  0.00  0.00    +0.000 A 
ATOM     22  H   UNL     1      51.608   6.800   9.199  0.00  0.00    +0.000 HD
ENDBRANCH   9  12
ENDBRANCH   7  10
ENDBRANCH   1   7
BRANCH   4  23
ATOM     23  C   UNL     1      44.538   3.297  11.678  0.00  0.00    +0.000 C 
BRANCH  23  24
ATOM     24  N   UNL     1      44.088   3.536  10.315  0.00  0.00    +0.000 N 
ATOM     25  H   UNL     1      43.106   3.312  10.169  0.00  0.00    +0.000 HD
BRANCH  24  26
ATOM     26  C   UNL     1      44.890   3.150   9.235  0.00  0.00    +0.000 A 
ATOM     27  C   UNL     1      45.340   1.841   9.028  0.00  0.00    +0.000 A 
ATOM     28  C   UNL     1      46.211   1.522   7.976  0.00  0.00    +0.000 A 
ATOM     29  C   UNL     1      46.687   2.516   7.118  0.00  0.00    +0.000 A 
ATOM     30  C   UNL     1      46.270   3.833   7.333  0.00  0.00    +0.000 A 
ATOM     31  C   UNL     1      45.392   4.142   8.381  0.00  0.00    +0.000 A 
BRANCH  29  32
ATOM     32  C   UNL     1      47.667   2.190   6.023  0.00  0.00    +0.000 C 
BRANCH  32  33
ATOM     33  O   UNL     1      48.972   2.640   6.359  0.00  0.00    +0.000 OA
ATOM     34  H   UNL     1      49.434   2.812   5.522  0.00  0.00    +0.000 HD
ENDBRANCH  32  33
ENDBRANCH  29  32
ENDBRANCH  24  26
ENDBRANCH  23  24
ENDBRANCH   4  23
TORSDOF 8
ENDMDL
MODEL 8
REMARK VINA RESULT:    -6.767      4.079      8.881
REMARK INTER + INTRA:         -10.862
REMARK INTER:                  -9.748
REMARK INTRA:                  -1.114
REMARK UNBOUND:                -1.128
REMARK  Name = 
REMARK  8 active torsions:
REMARK  status: ('A' for Active; 'I' for Inactive)
REMARK    1  A    between atoms: C_2  and  C_21
REMARK    2  A    between atoms: N_3  and  C_4
REMARK    3  A    between atoms: C_4  and  C_5
REMARK    4  A    between atoms: C_8  and  C_9
REMARK    5  A    between atoms: C_9  and  N_10
REMARK    6  A    between atoms: N_10  and  C_11
REMARK    7  A    between atoms: C_14  and  C_15
REMARK    8  A    between atoms: C_15  and  O_16
REMARK                            x       y       z     vdW  Elec       q    Type
REMARK                         _______ _______ _______ _____ _____    ______ ____
ROOT
ATOM      1  C   UNL     1      48.723   6.479  15.511  0.00  0.00    +0.000 A 
ATOM      2  C   UNL     1      49.970   6.652  16.123  0.00  0.00    +0.000 A 
ATOM      3  C   UNL     1      50.417   5.750  17.093  0.00  0.00    +0.000 A 
ATOM      4  C   UNL     1      49.633   4.647  17.455  0.00  0.00    +0.000 A 
ATOM      5  C   UNL     1      48.380   4.479  16.849  0.00  0.00    +0.000 A 
ATOM      6  C   UNL     1      47.936   5.379  15.874  0.00  0.00    +0.000 A 
ENDROOT
BRANCH   1   7
ATOM      7  C   UNL     1      48.265   7.440  14.442  0.00  0.00    +0.000 C 
BRANCH   7  10
ATOM      8  O   UNL     1      47.777   6.904  11.719  0.00  0.00    +0.000 OA
ATOM      9  C   UNL     1      46.877   6.719  12.533  0.00  0.00    +0.000 C 
ATOM     10  N   UNL     1      47.015   7.014  13.864  0.00  0.00    +0.000 N 
ATOM     11  H   UNL     1      46.322   6.674  14.518  0.00  0.00    +0.000 HD
BRANCH   9  12
ATOM     12  C   UNL     1      45.562   6.212  12.116  0.00  0.00    +0.000 A 
ATOM     13  C   UNL     1      44.650   7.072  11.519  0.00  0.00    +0.000 A 
ATOM     14  S   UNL     1      43.167   6.330  11.123  0.00  0.00    +0.000 S 
ATOM     15  C   UNL     1      43.707   4.820  11.690  0.00  0.00    +0.000 A 
ATOM     16  N   UNL     1      42.911   3.719  11.616  0.00  0.00    +0.000 NA
ATOM     17  C   UNL     1      43.463   2.631  12.038  0.00  0.00    +0.000 A 
ATOM     18  N   UNL     1      44.737   2.546  12.538  0.00  0.00    +0.000 N 
ATOM     19  C   UNL     1      45.549   3.643  12.700  0.00  0.00    +0.000 A 
ATOM     20  O   UNL     1      46.633   3.549  13.267  0.00  0.00    +0.000 OA
ATOM     21  C   UNL     1      44.993   4.885  12.198  0.00  0.00    +0.000 A 
ATOM     22  H   UNL     1      45.100   1.669  12.880  0.00  0.00    +0.000 HD
ENDBRANCH   9  12
ENDBRANCH   7  10
ENDBRANCH   1   7
BRANCH   4  23
ATOM     23  C   UNL     1      50.142   3.646  18.466  0.00  0.00    +0.000 C 
BRANCH  23  24
ATOM     24  N   UNL     1      51.576   3.791  18.666  0.00  0.00    +0.000 N 
ATOM     25  H   UNL     1      51.916   4.733  18.481  0.00  0.00    +0.000 HD
BRANCH  24  26
ATOM     26  C   UNL     1      52.452   2.806  18.198  0.00  0.00    +0.000 A 
ATOM     27  C   UNL     1      53.823   3.010  18.005  0.00  0.00    +0.000 A 
ATOM     28  C   UNL     1      54.643   2.015  17.454  0.00  0.00    +0.000 A 
ATOM     29  C   UNL     1      54.105   0.793  17.044  0.00  0.00    +0.000 A 
ATOM     30  C   UNL     1      52.730   0.587  17.202  0.00  0.00    +0.000 A 
ATOM     31  C   UNL     1      51.919   1.584  17.763  0.00  0.00    +0.000 A 
BRANCH  29  32
ATOM     32  C   UNL     1      54.969  -0.257  16.399  0.00  0.00    +0.000 C 
BRANCH  32  33
ATOM     33  O   UNL     1      54.181  -1.181  15.664  0.00  0.00    +0.000 OA
ATOM     34  H   UNL     1      54.115  -0.836  14.757  0.00  0.00    +0.000 HD
ENDBRANCH  32  33
ENDBRANCH  29  32
ENDBRANCH  24  26
ENDBRANCH  23  24
ENDBRANCH   4  23
TORSDOF 8
ENDMDL
MODEL 9
REMARK VINA RESULT:    -6.426      3.653      8.759
REMARK INTER + INTRA:         -10.372
REMARK INTER:                  -9.664
REMARK INTRA:                  -0.708
REMARK UNBOUND:                -1.128
REMARK  Name = 
REMARK  8 active torsions:
REMARK  status: ('A' for Active; 'I' for Inactive)
REMARK    1  A    between atoms: C_2  and  C_21
REMARK    2  A    between atoms: N_3  and  C_4
REMARK    3  A    between atoms: C_4  and  C_5
REMARK    4  A    between atoms: C_8  and  C_9
REMARK    5  A    between atoms: C_9  and  N_10
REMARK    6  A    between atoms: N_10  and  C_11
REMARK    7  A    between atoms: C_14  and  C_15
REMARK    8  A    between atoms: C_15  and  O_16
REMARK                            x       y       z     vdW  Elec       q    Type
REMARK                         _______ _______ _______ _____ _____    ______ ____
ROOT
ATOM      1  C   UNL     1      47.673   8.040  14.164  0.00  0.00    +0.000 A 
ATOM      2  C   UNL     1      47.982   6.675  14.213  0.00  0.00    +0.000 A 
ATOM      3  C   UNL     1      48.672   6.141  15.305  0.00  0.00    +0.000 A 
ATOM      4  C   UNL     1      49.050   6.959  16.378  0.00  0.00    +0.000 A 
ATOM      5  C   UNL     1      48.749   8.327  16.324  0.00  0.00    +0.000 A 
ATOM      6  C   UNL     1      48.053   8.860  15.234  0.00  0.00    +0.000 A 
ENDROOT
BRANCH   1   7
ATOM      7  C   UNL     1      46.899   8.598  12.996  0.00  0.00    +0.000 C 
BRANCH   7  10
ATOM      8  O   UNL     1      47.851   7.009  10.872  0.00  0.00    +0.000 OA
ATOM      9  C   UNL     1      46.730   6.791  11.323  0.00  0.00    +0.000 C 
ATOM     10  N   UNL     1      46.172   7.558  12.312  0.00  0.00    +0.000 N 
ATOM     11  H   UNL     1      45.334   7.230  12.776  0.00  0.00    +0.000 HD
BRANCH   9  12
ATOM     12  C   UNL     1      45.888   5.713  10.787  0.00  0.00    +0.000 A 
ATOM     13  C   UNL     1      45.834   5.498   9.416  0.00  0.00    +0.000 A 
ATOM     14  S   UNL     1      44.791   4.227   8.963  0.00  0.00    +0.000 S 
ATOM     15  C   UNL     1      44.410   3.887  10.586  0.00  0.00    +0.000 A 
ATOM     16  N   UNL     1      43.567   2.869  10.907  0.00  0.00    +0.000 NA
ATOM     17  C   UNL     1      43.403   2.692  12.176  0.00  0.00    +0.000 A 
ATOM     18  N   UNL     1      43.997   3.449  13.152  0.00  0.00    +0.000 N 
ATOM     19  C   UNL     1      44.796   4.531  12.873  0.00  0.00    +0.000 A 
ATOM     20  O   UNL     1      45.208   5.260  13.770  0.00  0.00    +0.000 OA
ATOM     21  C   UNL     1      45.050   4.746  11.461  0.00  0.00    +0.000 A 
ATOM     22  H   UNL     1      43.804   3.278  14.128  0.00  0.00    +0.000 HD
ENDBRANCH   9  12
ENDBRANCH   7  10
ENDBRANCH   1   7
BRANCH   4  23
ATOM     23  C   UNL     1      49.751   6.369  17.580  0.00  0.00    +0.000 C 
BRANCH  23  24
ATOM     24  N   UNL     1      49.341   4.990  17.795  0.00  0.00    +0.000 N 
ATOM     25  H   UNL     1      48.714   4.873  18.588  0.00  0.00    +0.000 HD
BRANCH  24  26
ATOM     26  C   UNL     1      50.282   3.957  17.704  0.00  0.00    +0.000 A 
ATOM     27  C   UNL     1      49.956   2.631  17.400  0.00  0.00    +0.000 A 
ATOM     28  C   UNL     1      50.925   1.617  17.402  0.00  0.00    +0.000 A 
ATOM     29  C   UNL     1      52.249   1.898  17.748  0.00  0.00    +0.000 A 
ATOM     30  C   UNL     1      52.583   3.213  18.084  0.00  0.00    +0.000 A 
ATOM     31  C   UNL     1      51.610   4.222  18.070  0.00  0.00    +0.000 A 
BRANCH  29  32
ATOM     32  C   UNL     1      53.281   0.804  17.809  0.00  0.00    +0.000 C 
BRANCH  32  33
ATOM     33  O   UNL     1      52.709  -0.407  18.284  0.00  0.00    +0.000 OA
ATOM     34  H   UNL     1      53.301  -1.126  18.004  0.00  0.00    +0.000 HD
ENDBRANCH  32  33
ENDBRANCH  29  32
ENDBRANCH  24  26
ENDBRANCH  23  24
ENDBRANCH   4  23
TORSDOF 8
ENDMDL
