MODEL 1
REMARK VINA RESULT:    -7.178      0.000      0.000
REMARK INTER + INTRA:         -11.143
REMARK INTER:                 -10.115
REMARK INTRA:                  -1.028
REMARK UNBOUND:                -1.028
REMARK  Name = 
REMARK  9 active torsions:
REMARK  status: ('A' for Active; 'I' for Inactive)
REMARK    1  A    between atoms: C_1  and  O_2
REMARK    2  A    between atoms: O_2  and  C_3
REMARK    3  A    between atoms: C_10  and  C_11
REMARK    4  A    between atoms: N_13  and  C_14
REMARK    5  A    between atoms: C_14  and  C_15
REMARK    6  A    between atoms: C_18  and  N_19
REMARK    7  A    between atoms: N_19  and  C_20
REMARK    8  A    between atoms: C_20  and  C_21
REMARK    9  A    between atoms: C_21  and  C_22
REMARK                            x       y       z     vdW  Elec       q    Type
REMARK                         _______ _______ _______ _____ _____    ______ ____
ROOT
ATOM      1  C   UNL     1      47.178   3.379  17.000  0.00  0.00    +0.000 C 
ENDROOT
BRANCH   1   2
ATOM      2  C   UNL     1      48.647   3.301  17.341  0.00  0.00    +0.000 A 
ATOM      3  C   UNL     1      49.394   2.162  17.025  0.00  0.00    +0.000 A 
ATOM      4  C   UNL     1      50.785   2.135  17.216  0.00  0.00    +0.000 A 
ATOM      5  C   UNL     1      51.465   3.212  17.790  0.00  0.00    +0.000 A 
ATOM      6  C   UNL     1      50.695   4.321  18.175  0.00  0.00    +0.000 A 
ATOM      7  C   UNL     1      49.308   4.369  17.956  0.00  0.00    +0.000 A 
BRANCH   5   8
ATOM      8  N   UNL     1      52.855   3.303  17.872  0.00  0.00    +0.000 N 
ATOM      9  H   UNL     1      53.218   4.189  17.532  0.00  0.00    +0.000 HD
BRANCH   8  10
ATOM     10  C   UNL     1      53.612   2.756  19.004  0.00  0.00    +0.000 C 
BRANCH  10  11
ATOM     11  C   UNL     1      54.446   1.504  18.588  0.00  0.00    +0.000 C 
ATOM     12  C   UNL     1      55.670   1.358  19.514  0.00  0.00    +0.000 C 
ATOM     13  C   UNL     1      54.890   1.591  17.116  0.00  0.00    +0.000 C 
ATOM     14  C   UNL     1      54.793   0.171  16.560  0.00  0.00    +0.000 C 
ATOM     15  C   UNL     1      54.272  -0.679  17.701  0.00  0.00    +0.000 C 
ATOM     16  N   UNL     1      53.628   0.269  18.611  0.00  0.00    +0.000 NA
ATOM     17  H   UNL     1      53.590  -0.122  19.547  0.00  0.00    +0.000 HD
ENDBRANCH  10  11
ENDBRANCH   8  10
ENDBRANCH   5   8
ENDBRANCH   1   2
BRANCH   1  20
ATOM     18  C   UNL     1      47.042   4.175  14.668  0.00  0.00    +0.000 C 
ATOM     19  O   UNL     1      47.394   3.082  14.227  0.00  0.00    +0.000 OA
ATOM     20  N   UNL     1      46.905   4.389  16.012  0.00  0.00    +0.000 N 
ATOM     21  H   UNL     1      46.605   5.292  16.350  0.00  0.00    +0.000 HD
BRANCH  18  29
ATOM     22  C   UNL     1      44.338   5.024  12.713  0.00  0.00    +0.000 A 
ATOM     23  N   UNL     1      43.415   5.609  11.932  0.00  0.00    +0.000 NA
ATOM     24  C   UNL     1      43.718   6.781  11.372  0.00  0.00    +0.000 A 
ATOM     25  N   UNL     1      44.861   7.454  11.493  0.00  0.00    +0.000 NA
ATOM     26  C   UNL     1      45.748   6.842  12.296  0.00  0.00    +0.000 A 
ATOM     27  S   UNL     1      47.271   7.551  12.558  0.00  0.00    +0.000 S 
ATOM     28  C   UNL     1      47.737   6.284  13.593  0.00  0.00    +0.000 A 
ATOM     29  C   UNL     1      46.761   5.309  13.768  0.00  0.00    +0.000 A 
ATOM     30  C   UNL     1      45.579   5.636  12.968  0.00  0.00    +0.000 A 
BRANCH  22  32
ATOM     31  C   UNL     1      43.617   2.834  12.330  0.00  0.00    +0.000 C 
ATOM     32  O   UNL     1      44.031   3.808  13.284  0.00  0.00    +0.000 OA
ENDBRANCH  22  32
ENDBRANCH  18  29
ENDBRANCH   1  20
TORSDOF 7
ENDMDL
MODEL 2
REMARK VINA RESULT:    -6.764      2.976      9.351
REMARK INTER + INTRA:         -10.560
REMARK INTER:                  -9.436
REMARK INTRA:                  -1.125
REMARK UNBOUND:                -1.028
REMARK  Name = 
REMARK  9 active torsions:
REMARK  status: ('A' for Active; 'I' for Inactive)
REMARK    1  A    between atoms: C_1  and  O_2
REMARK    2  A    between atoms: O_2  and  C_3
REMARK    3  A    between atoms: C_10  and  C_11
REMARK    4  A    between atoms: N_13  and  C_14
REMARK    5  A    between atoms: C_14  and  C_15
REMARK    6  A    between atoms: C_18  and  N_19
REMARK    7  A    between atoms: N_19  and  C_20
REMARK    8  A    between atoms: C_20  and  C_21
REMARK    9  A    between atoms: C_21  and  C_22
REMARK                            x       y       z     vdW  Elec       q    Type
REMARK                         _______ _______ _______ _____ _____    ______ ____
ROOT
ATOM      1  C   UNL     1      50.180   7.643  15.700  0.00  0.00    +0.000 C 
ENDROOT
BRANCH   1   2
ATOM      2  C   UNL     1      49.319   7.184  14.548  0.00  0.00    +0.000 A 
ATOM      3  C   UNL     1      48.278   6.274  14.754  0.00  0.00    +0.000 A 
ATOM      4  C   UNL     1      47.389   5.947  13.715  0.00  0.00    +0.000 A 
ATOM      5  C   UNL     1      47.550   6.463  12.427  0.00  0.00    +0.000 A 
ATOM      6  C   UNL     1      48.643   7.316  12.212  0.00  0.00    +0.000 A 
ATOM      7  C   UNL     1      49.516   7.674  13.253  0.00  0.00    +0.000 A 
BRANCH   5   8
ATOM      8  N   UNL     1      46.624   6.292  11.397  0.00  0.00    +0.000 N 
ATOM      9  H   UNL     1      46.889   5.567  10.737  0.00  0.00    +0.000 HD
BRANCH   8  10
ATOM     10  C   UNL     1      45.176   6.377  11.621  0.00  0.00    +0.000 C 
BRANCH  10  11
ATOM     11  C   UNL     1      44.421   5.173  10.974  0.00  0.00    +0.000 C 
ATOM     12  C   UNL     1      42.911   5.283  11.267  0.00  0.00    +0.000 C 
ATOM     13  C   UNL     1      44.973   3.829  11.481  0.00  0.00    +0.000 C 
ATOM     14  C   UNL     1      44.954   2.883  10.280  0.00  0.00    +0.000 C 
ATOM     15  C   UNL     1      44.429   3.707   9.121  0.00  0.00    +0.000 C 
ATOM     16  N   UNL     1      44.661   5.097   9.514  0.00  0.00    +0.000 NA
ATOM     17  H   UNL     1      44.027   5.709   9.011  0.00  0.00    +0.000 HD
ENDBRANCH  10  11
ENDBRANCH   8  10
ENDBRANCH   5   8
ENDBRANCH   1   2
BRANCH   1  20
ATOM     18  C   UNL     1      50.716   5.984  17.446  0.00  0.00    +0.000 C 
ATOM     19  O   UNL     1      49.758   6.333  18.134  0.00  0.00    +0.000 OA
ATOM     20  N   UNL     1      50.978   6.574  16.240  0.00  0.00    +0.000 N 
ATOM     21  H   UNL     1      51.764   6.265  15.687  0.00  0.00    +0.000 HD
BRANCH  18  29
ATOM     22  C   UNL     1      50.651   2.550  17.203  0.00  0.00    +0.000 A 
ATOM     23  N   UNL     1      50.899   1.230  17.189  0.00  0.00    +0.000 NA
ATOM     24  C   UNL     1      52.036   0.799  17.740  0.00  0.00    +0.000 A 
ATOM     25  N   UNL     1      52.975   1.544  18.323  0.00  0.00    +0.000 NA
ATOM     26  C   UNL     1      52.694   2.857  18.299  0.00  0.00    +0.000 A 
ATOM     27  S   UNL     1      53.775   3.959  19.010  0.00  0.00    +0.000 S 
ATOM     28  C   UNL     1      52.790   5.278  18.582  0.00  0.00    +0.000 A 
ATOM     29  C   UNL     1      51.635   4.921  17.894  0.00  0.00    +0.000 A 
ATOM     30  C   UNL     1      51.570   3.466  17.749  0.00  0.00    +0.000 A 
BRANCH  22  32
ATOM     31  C   UNL     1      48.398   3.042  17.578  0.00  0.00    +0.000 C 
ATOM     32  O   UNL     1      49.472   2.996  16.644  0.00  0.00    +0.000 OA
ENDBRANCH  22  32
ENDBRANCH  18  29
ENDBRANCH   1  20
TORSDOF 7
ENDMDL
MODEL 3
REMARK VINA RESULT:    -6.763      3.911      8.732
REMARK INTER + INTRA:         -10.559
REMARK INTER:                  -8.946
REMARK INTRA:                  -1.613
REMARK UNBOUND:                -1.028
REMARK  Name = 
REMARK  9 active torsions:
REMARK  status: ('A' for Active; 'I' for Inactive)
REMARK    1  A    between atoms: C_1  and  O_2
REMARK    2  A    between atoms: O_2  and  C_3
REMARK    3  A    between atoms: C_10  and  C_11
REMARK    4  A    between atoms: N_13  and  C_14
REMARK    5  A    between atoms: C_14  and  C_15
REMARK    6  A    between atoms: C_18  and  N_19
REMARK    7  A    between atoms: N_19  and  C_20
REMARK    8  A    between atoms: C_20  and  C_21
REMARK    9  A    between atoms: C_21  and  C_22
REMARK                            x       y       z     vdW  Elec       q    Type
REMARK                         _______ _______ _______ _____ _____    ______ ____
ROOT
ATOM      1  C   UNL     1      48.115   8.773  14.538  0.00  0.00    +0.000 C 
ENDROOT
BRANCH   1   2
ATOM      2  C   UNL     1      47.372   8.236  13.338  0.00  0.00    +0.000 A 
ATOM      3  C   UNL     1      48.036   7.486  12.363  0.00  0.00    +0.000 A 
ATOM      4  C   UNL     1      47.327   6.871  11.318  0.00  0.00    +0.000 A 
ATOM      5  C   UNL     1      45.948   7.040  11.172  0.00  0.00    +0.000 A 
ATOM      6  C   UNL     1      45.302   7.858  12.112  0.00  0.00    +0.000 A 
ATOM      7  C   UNL     1      45.998   8.449  13.179  0.00  0.00    +0.000 A 
BRANCH   5   8
ATOM      8  N   UNL     1      45.170   6.343  10.247  0.00  0.00    +0.000 N 
ATOM      9  H   UNL     1      44.697   6.951   9.584  0.00  0.00    +0.000 HD
BRANCH   8  10
ATOM     10  C   UNL     1      45.597   5.065   9.666  0.00  0.00    +0.000 C 
BRANCH  10  11
ATOM     11  C   UNL     1      44.730   3.877  10.188  0.00  0.00    +0.000 C 
ATOM     12  C   UNL     1      44.509   2.851   9.056  0.00  0.00    +0.000 C 
ATOM     13  C   UNL     1      43.380   4.369  10.740  0.00  0.00    +0.000 C 
ATOM     14  C   UNL     1      43.080   3.501  11.962  0.00  0.00    +0.000 C 
ATOM     15  C   UNL     1      44.265   2.565  12.098  0.00  0.00    +0.000 C 
ATOM     16  N   UNL     1      45.347   3.223  11.365  0.00  0.00    +0.000 NA
ATOM     17  H   UNL     1      46.037   2.537  11.078  0.00  0.00    +0.000 HD
ENDBRANCH  10  11
ENDBRANCH   8  10
ENDBRANCH   5   8
ENDBRANCH   1   2
BRANCH   1  20
ATOM     18  C   UNL     1      49.398   6.984  15.652  0.00  0.00    +0.000 C 
ATOM     19  O   UNL     1      50.333   7.100  14.861  0.00  0.00    +0.000 OA
ATOM     20  N   UNL     1      48.286   7.775  15.560  0.00  0.00    +0.000 N 
ATOM     21  H   UNL     1      47.534   7.668  16.226  0.00  0.00    +0.000 HD
BRANCH  18  29
ATOM     22  C   UNL     1      47.365   4.322  16.449  0.00  0.00    +0.000 A 
ATOM     23  N   UNL     1      46.787   3.211  16.935  0.00  0.00    +0.000 NA
ATOM     24  C   UNL     1      47.344   2.627  17.999  0.00  0.00    +0.000 A 
ATOM     25  N   UNL     1      48.429   3.032  18.657  0.00  0.00    +0.000 NA
ATOM     26  C   UNL     1      48.984   4.135  18.128  0.00  0.00    +0.000 A 
ATOM     27  S   UNL     1      50.372   4.803  18.846  0.00  0.00    +0.000 S 
ATOM     28  C   UNL     1      50.438   6.042  17.682  0.00  0.00    +0.000 A 
ATOM     29  C   UNL     1      49.427   5.977  16.729  0.00  0.00    +0.000 A 
ATOM     30  C   UNL     1      48.542   4.846  17.016  0.00  0.00    +0.000 A 
BRANCH  22  32
ATOM     31  C   UNL     1      47.087   4.274  14.130  0.00  0.00    +0.000 C 
ATOM     32  O   UNL     1      46.787   4.932  15.357  0.00  0.00    +0.000 OA
ENDBRANCH  22  32
ENDBRANCH  18  29
ENDBRANCH   1  20
TORSDOF 7
ENDMDL
MODEL 4
REMARK VINA RESULT:    -6.694      1.771      2.453
REMARK INTER + INTRA:         -10.462
REMARK INTER:                  -9.379
REMARK INTRA:                  -1.083
REMARK UNBOUND:                -1.028
REMARK  Name = 
REMARK  9 active torsions:
REMARK  status: ('A' for Active; 'I' for Inactive)
REMARK    1  A    between atoms: C_1  and  O_2
REMARK    2  A    between atoms: O_2  and  C_3
REMARK    3  A    between atoms: C_10  and  C_11
REMARK    4  A    between atoms: N_13  and  C_14
REMARK    5  A    between atoms: C_14  and  C_15
REMARK    6  A    between atoms: C_18  and  N_19
REMARK    7  A    between atoms: N_19  and  C_20
REMARK    8  A    between atoms: C_20  and  C_21
REMARK    9  A    between atoms: C_21  and  C_22
REMARK                            x       y       z     vdW  Elec       q    Type
REMARK                         _______ _______ _______ _____ _____    ______ ____
ROOT
ATOM      1  C   UNL     1      47.215   3.352  17.009  0.00  0.00    +0.000 C 
ENDROOT
BRANCH   1   2
ATOM      2  C   UNL     1      48.685   3.302  17.351  0.00  0.00    +0.000 A 
ATOM      3  C   UNL     1      49.456   2.182  17.028  0.00  0.00    +0.000 A 
ATOM      4  C   UNL     1      50.848   2.184  17.220  0.00  0.00    +0.000 A 
ATOM      5  C   UNL     1      51.504   3.271  17.802  0.00  0.00    +0.000 A 
ATOM      6  C   UNL     1      50.711   4.361  18.194  0.00  0.00    +0.000 A 
ATOM      7  C   UNL     1      49.323   4.380  17.974  0.00  0.00    +0.000 A 
BRANCH   5   8
ATOM      8  N   UNL     1      52.892   3.391  17.886  0.00  0.00    +0.000 N 
ATOM      9  H   UNL     1      53.365   3.179  17.012  0.00  0.00    +0.000 HD
BRANCH   8  10
ATOM     10  C   UNL     1      53.543   4.454  18.661  0.00  0.00    +0.000 C 
BRANCH  10  11
ATOM     11  C   UNL     1      54.446   5.353  17.760  0.00  0.00    +0.000 C 
ATOM     12  C   UNL     1      55.454   6.127  18.634  0.00  0.00    +0.000 C 
ATOM     13  C   UNL     1      53.604   6.326  16.917  0.00  0.00    +0.000 C 
ATOM     14  C   UNL     1      54.294   6.415  15.555  0.00  0.00    +0.000 C 
ATOM     15  C   UNL     1      55.482   5.477  15.639  0.00  0.00    +0.000 C 
ATOM     16  N   UNL     1      55.158   4.558  16.731  0.00  0.00    +0.000 NA
ATOM     17  H   UNL     1      56.009   4.156  17.109  0.00  0.00    +0.000 HD
ENDBRANCH  10  11
ENDBRANCH   8  10
ENDBRANCH   5   8
ENDBRANCH   1   2
BRANCH   1  20
ATOM     18  C   UNL     1      47.018   4.164  14.687  0.00  0.00    +0.000 C 
ATOM     19  O   UNL     1      47.354   3.072  14.230  0.00  0.00    +0.000 OA
ATOM     20  N   UNL     1      46.920   4.370  16.036  0.00  0.00    +0.000 N 
ATOM     21  H   UNL     1      46.633   5.272  16.389  0.00  0.00    +0.000 HD
BRANCH  18  29
ATOM     22  C   UNL     1      44.340   4.947  12.671  0.00  0.00    +0.000 A 
ATOM     23  N   UNL     1      43.417   5.512  11.876  0.00  0.00    +0.000 NA
ATOM     24  C   UNL     1      43.688   6.708  11.349  0.00  0.00    +0.000 A 
ATOM     25  N   UNL     1      44.800   7.422  11.518  0.00  0.00    +0.000 NA
ATOM     26  C   UNL     1      45.687   6.829  12.333  0.00  0.00    +0.000 A 
ATOM     27  S   UNL     1      47.172   7.592  12.655  0.00  0.00    +0.000 S 
ATOM     28  C   UNL     1      47.659   6.322  13.677  0.00  0.00    +0.000 A 
ATOM     29  C   UNL     1      46.718   5.305  13.804  0.00  0.00    +0.000 A 
ATOM     30  C   UNL     1      45.548   5.602  12.975  0.00  0.00    +0.000 A 
BRANCH  22  32
ATOM     31  C   UNL     1      43.564   2.785  12.246  0.00  0.00    +0.000 C 
ATOM     32  O   UNL     1      44.066   3.708  13.208  0.00  0.00    +0.000 OA
ENDBRANCH  22  32
ENDBRANCH  18  29
ENDBRANCH   1  20
TORSDOF 7
ENDMDL
MODEL 5
REMARK VINA RESULT:    -6.488      2.018      3.028
REMARK INTER + INTRA:         -10.171
REMARK INTER:                  -8.924
REMARK INTRA:                  -1.247
REMARK UNBOUND:                -1.028
REMARK  Name = 
REMARK  9 active torsions:
REMARK  status: ('A' for Active; 'I' for Inactive)
REMARK    1  A    between atoms: C_1  and  O_2
REMARK    2  A    between atoms: O_2  and  C_3
REMARK    3  A    between atoms: C_10  and  C_11
REMARK    4  A    between atoms: N_13  and  C_14
REMARK    5  A    between atoms: C_14  and  C_15
REMARK    6  A    between atoms: C_18  and  N_19
REMARK    7  A    between atoms: N_19  and  C_20
REMARK    8  A    between atoms: C_20  and  C_21
REMARK    9  A    between atoms: C_21  and  C_22
REMARK                            x       y       z     vdW  Elec       q    Type
REMARK                         _______ _______ _______ _____ _____    ______ ____
ROOT
ATOM      1  C   UNL     1      49.043   8.159  15.560  0.00  0.00    +0.000 C 
ENDROOT
BRANCH   1   2
ATOM      2  C   UNL     1      49.621   7.071  16.434  0.00  0.00    +0.000 A 
ATOM      3  C   UNL     1      48.836   6.442  17.405  0.00  0.00    +0.000 A 
ATOM      4  C   UNL     1      49.326   5.340  18.126  0.00  0.00    +0.000 A 
ATOM      5  C   UNL     1      50.632   4.876  17.954  0.00  0.00    +0.000 A 
ATOM      6  C   UNL     1      51.438   5.563  17.033  0.00  0.00    +0.000 A 
ATOM      7  C   UNL     1      50.945   6.644  16.283  0.00  0.00    +0.000 A 
BRANCH   5   8
ATOM      8  N   UNL     1      51.127   3.706  18.531  0.00  0.00    +0.000 N 
ATOM      9  H   UNL     1      50.918   2.873  17.988  0.00  0.00    +0.000 HD
BRANCH   8  10
ATOM     10  C   UNL     1      52.427   3.653  19.207  0.00  0.00    +0.000 C 
BRANCH  10  11
ATOM     11  C   UNL     1      53.405   2.662  18.499  0.00  0.00    +0.000 C 
ATOM     12  C   UNL     1      54.401   3.446  17.620  0.00  0.00    +0.000 C 
ATOM     13  C   UNL     1      52.639   1.627  17.656  0.00  0.00    +0.000 C 
ATOM     14  C   UNL     1      53.392   0.307  17.818  0.00  0.00    +0.000 C 
ATOM     15  C   UNL     1      54.538   0.606  18.764  0.00  0.00    +0.000 C 
ATOM     16  N   UNL     1      54.130   1.817  19.476  0.00  0.00    +0.000 NA
ATOM     17  H   UNL     1      54.948   2.299  19.835  0.00  0.00    +0.000 HD
ENDBRANCH  10  11
ENDBRANCH   8  10
ENDBRANCH   5   8
ENDBRANCH   1   2
BRANCH   1  20
ATOM     18  C   UNL     1      48.061   6.962  13.638  0.00  0.00    +0.000 C 
ATOM     19  O   UNL     1      49.170   6.647  13.211  0.00  0.00    +0.000 OA
ATOM     20  N   UNL     1      47.923   7.693  14.787  0.00  0.00    +0.000 N 
ATOM     21  H   UNL     1      47.001   7.932  15.124  0.00  0.00    +0.000 HD
BRANCH  18  29
ATOM     22  C   UNL     1      46.439   3.961  13.178  0.00  0.00    +0.000 A 
ATOM     23  N   UNL     1      45.591   2.955  12.907  0.00  0.00    +0.000 NA
ATOM     24  C   UNL     1      44.487   3.235  12.210  0.00  0.00    +0.000 A 
ATOM     25  N   UNL     1      44.122   4.424  11.734  0.00  0.00    +0.000 NA
ATOM     26  C   UNL     1      44.989   5.403  12.043  0.00  0.00    +0.000 A 
ATOM     27  S   UNL     1      44.691   6.988  11.506  0.00  0.00    +0.000 S 
ATOM     28  C   UNL     1      46.107   7.560  12.255  0.00  0.00    +0.000 A 
ATOM     29  C   UNL     1      46.828   6.579  12.926  0.00  0.00    +0.000 A 
ATOM     30  C   UNL     1      46.166   5.281  12.775  0.00  0.00    +0.000 A 
BRANCH  22  32
ATOM     31  C   UNL     1      47.394   3.737  15.299  0.00  0.00    +0.000 C 
ATOM     32  O   UNL     1      47.584   3.672  13.889  0.00  0.00    +0.000 OA
ENDBRANCH  22  32
ENDBRANCH  18  29
ENDBRANCH   1  20
TORSDOF 7
ENDMDL
MODEL 6
REMARK VINA RESULT:    -6.119      4.458      9.237
REMARK INTER + INTRA:          -9.651
REMARK INTER:                  -8.786
REMARK INTRA:                  -0.865
REMARK UNBOUND:                -1.028
REMARK  Name = 
REMARK  9 active torsions:
REMARK  status: ('A' for Active; 'I' for Inactive)
REMARK    1  A    between atoms: C_1  and  O_2
REMARK    2  A    between atoms: O_2  and  C_3
REMARK    3  A    between atoms: C_10  and  C_11
REMARK    4  A    between atoms: N_13  and  C_14
REMARK    5  A    between atoms: C_14  and  C_15
REMARK    6  A    between atoms: C_18  and  N_19
REMARK    7  A    between atoms: N_19  and  C_20
REMARK    8  A    between atoms: C_20  and  C_21
REMARK    9  A    between atoms: C_21  and  C_22
REMARK                            x       y       z     vdW  Elec       q    Type
REMARK                         _______ _______ _______ _____ _____    ______ ____
ROOT
ATOM      1  C   UNL     1      49.229   7.647  14.187  0.00  0.00    +0.000 C 
ENDROOT
BRANCH   1   2
ATOM      2  C   UNL     1      47.914   7.148  13.635  0.00  0.00    +0.000 A 
ATOM      3  C   UNL     1      47.511   5.824  13.837  0.00  0.00    +0.000 A 
ATOM      4  C   UNL     1      46.233   5.392  13.445  0.00  0.00    +0.000 A 
ATOM      5  C   UNL     1      45.345   6.242  12.781  0.00  0.00    +0.000 A 
ATOM      6  C   UNL     1      45.788   7.547  12.515  0.00  0.00    +0.000 A 
ATOM      7  C   UNL     1      47.052   7.997  12.934  0.00  0.00    +0.000 A 
BRANCH   5   8
ATOM      8  N   UNL     1      44.018   5.917  12.498  0.00  0.00    +0.000 N 
ATOM      9  H   UNL     1      43.357   6.338  13.144  0.00  0.00    +0.000 HD
BRANCH   8  10
ATOM     10  C   UNL     1      43.511   5.814  11.125  0.00  0.00    +0.000 C 
BRANCH  10  11
ATOM     11  C   UNL     1      44.243   4.694  10.322  0.00  0.00    +0.000 C 
ATOM     12  C   UNL     1      44.288   3.395  11.153  0.00  0.00    +0.000 C 
ATOM     13  C   UNL     1      45.665   5.130   9.925  0.00  0.00    +0.000 C 
ATOM     14  C   UNL     1      45.904   4.569   8.523  0.00  0.00    +0.000 C 
ATOM     15  C   UNL     1      44.618   3.862   8.142  0.00  0.00    +0.000 C 
ATOM     16  N   UNL     1      43.597   4.448   9.011  0.00  0.00    +0.000 NA
ATOM     17  H   UNL     1      42.816   3.808   9.108  0.00  0.00    +0.000 HD
ENDBRANCH  10  11
ENDBRANCH   8  10
ENDBRANCH   5   8
ENDBRANCH   1   2
BRANCH   1  20
ATOM     18  C   UNL     1      48.702   8.252  16.521  0.00  0.00    +0.000 C 
ATOM     19  O   UNL     1      47.994   9.192  16.163  0.00  0.00    +0.000 OA
ATOM     20  N   UNL     1      49.329   7.448  15.608  0.00  0.00    +0.000 N 
ATOM     21  H   UNL     1      49.898   6.676  15.924  0.00  0.00    +0.000 HD
BRANCH  18  29
ATOM     22  C   UNL     1      48.524   5.362  18.382  0.00  0.00    +0.000 A 
ATOM     23  N   UNL     1      48.586   4.391  19.309  0.00  0.00    +0.000 NA
ATOM     24  C   UNL     1      48.936   4.730  20.551  0.00  0.00    +0.000 A 
ATOM     25  N   UNL     1      49.231   5.952  20.994  0.00  0.00    +0.000 NA
ATOM     26  C   UNL     1      49.172   6.888  20.032  0.00  0.00    +0.000 A 
ATOM     27  S   UNL     1      49.506   8.509  20.418  0.00  0.00    +0.000 S 
ATOM     28  C   UNL     1      49.252   8.996  18.808  0.00  0.00    +0.000 A 
ATOM     29  C   UNL     1      48.919   7.955  17.948  0.00  0.00    +0.000 A 
ATOM     30  C   UNL     1      48.848   6.696  18.693  0.00  0.00    +0.000 A 
BRANCH  22  32
ATOM     31  C   UNL     1      47.271   3.897  17.061  0.00  0.00    +0.000 C 
ATOM     32  O   UNL     1      48.153   5.016  17.101  0.00  0.00    +0.000 OA
ENDBRANCH  22  32
ENDBRANCH  18  29
ENDBRANCH   1  20
TORSDOF 7
ENDMDL
MODEL 7
REMARK VINA RESULT:    -6.094      3.018      9.567
REMARK INTER + INTRA:          -9.616
REMARK INTER:                  -8.690
REMARK INTRA:                  -0.926
REMARK UNBOUND:                -1.028
REMARK  Name = 
REMARK  9 active torsions:
REMARK  status: ('A' for Active; 'I' for Inactive)
REMARK    1  A    between atoms: C_1  and  O_2
REMARK    2  A    between atoms: O_2  and  C_3
REMARK    3  A    between atoms: C_10  and  C_11
REMARK    4  A    between atoms: N_13  and  C_14
REMARK    5  A    between atoms: C_14  and  C_15
REMARK    6  A    between atoms: C_18  and  N_19
REMARK    7  A    between atoms: N_19  and  C_20
REMARK    8  A    between atoms: C_20  and  C_21
REMARK    9  A    between atoms: C_21  and  C_22
REMARK                            x       y       z     vdW  Elec       q    Type
REMARK                         _______ _______ _______ _____ _____    ______ ____
ROOT
ATOM      1  C   UNL     1      48.218   3.313  17.836  0.00  0.00    +0.000 C 
ENDROOT
BRANCH   1   2
ATOM      2  C   UNL     1      47.916   4.162  16.625  0.00  0.00    +0.000 A 
ATOM      3  C   UNL     1      48.407   5.468  16.527  0.00  0.00    +0.000 A 
ATOM      4  C   UNL     1      48.244   6.213  15.347  0.00  0.00    +0.000 A 
ATOM      5  C   UNL     1      47.531   5.710  14.257  0.00  0.00    +0.000 A 
ATOM      6  C   UNL     1      46.976   4.428  14.393  0.00  0.00    +0.000 A 
ATOM      7  C   UNL     1      47.163   3.663  15.557  0.00  0.00    +0.000 A 
BRANCH   5   8
ATOM      8  N   UNL     1      47.459   6.340  13.014  0.00  0.00    +0.000 N 
ATOM      9  H   UNL     1      48.358   6.680  12.685  0.00  0.00    +0.000 HD
BRANCH   8  10
ATOM     10  C   UNL     1      46.588   5.855  11.937  0.00  0.00    +0.000 C 
BRANCH  10  11
ATOM     11  C   UNL     1      45.142   6.429  12.062  0.00  0.00    +0.000 C 
ATOM     12  C   UNL     1      45.199   7.897  12.534  0.00  0.00    +0.000 C 
ATOM     13  C   UNL     1      44.287   5.586  13.024  0.00  0.00    +0.000 C 
ATOM     14  C   UNL     1      42.883   5.544  12.418  0.00  0.00    +0.000 C 
ATOM     15  C   UNL     1      42.976   6.328  11.124  0.00  0.00    +0.000 C 
ATOM     16  N   UNL     1      44.399   6.325  10.784  0.00  0.00    +0.000 NA
ATOM     17  H   UNL     1      44.611   7.110  10.177  0.00  0.00    +0.000 HD
ENDBRANCH  10  11
ENDBRANCH   8  10
ENDBRANCH   5   8
ENDBRANCH   1   2
BRANCH   1  20
ATOM     18  C   UNL     1      50.362   2.247  17.238  0.00  0.00    +0.000 C 
ATOM     19  O   UNL     1      49.841   1.611  16.323  0.00  0.00    +0.000 OA
ATOM     20  N   UNL     1      49.631   3.106  18.013  0.00  0.00    +0.000 N 
ATOM     21  H   UNL     1      50.082   3.625  18.752  0.00  0.00    +0.000 HD
BRANCH  18  29
ATOM     22  C   UNL     1      52.891   4.516  17.790  0.00  0.00    +0.000 A 
ATOM     23  N   UNL     1      54.021   5.172  18.101  0.00  0.00    +0.000 NA
ATOM     24  C   UNL     1      55.108   4.451  18.388  0.00  0.00    +0.000 A 
ATOM     25  N   UNL     1      55.207   3.123  18.395  0.00  0.00    +0.000 NA
ATOM     26  C   UNL     1      54.051   2.508  18.096  0.00  0.00    +0.000 A 
ATOM     27  S   UNL     1      53.993   0.810  18.045  0.00  0.00    +0.000 S 
ATOM     28  C   UNL     1      52.339   0.829  17.647  0.00  0.00    +0.000 A 
ATOM     29  C   UNL     1      51.796   2.106  17.550  0.00  0.00    +0.000 A 
ATOM     30  C   UNL     1      52.833   3.110  17.796  0.00  0.00    +0.000 A 
BRANCH  22  32
ATOM     31  C   UNL     1      52.046   6.333  16.589  0.00  0.00    +0.000 C 
ATOM     32  O   UNL     1      51.771   5.258  17.483  0.00  0.00    +0.000 OA
ENDBRANCH  22  32
ENDBRANCH  18  29
ENDBRANCH   1  20
TORSDOF 7
ENDMDL
MODEL 8
REMARK VINA RESULT:    -6.086      6.216     10.000
REMARK INTER + INTRA:          -9.604
REMARK INTER:                  -8.429
REMARK INTRA:                  -1.175
REMARK UNBOUND:                -1.028
REMARK  Name = 
REMARK  9 active torsions:
REMARK  status: ('A' for Active; 'I' for Inactive)
REMARK    1  A    between atoms: C_1  and  O_2
REMARK    2  A    between atoms: O_2  and  C_3
REMARK    3  A    between atoms: C_10  and  C_11
REMARK    4  A    between atoms: N_13  and  C_14
REMARK    5  A    between atoms: C_14  and  C_15
REMARK    6  A    between atoms: C_18  and  N_19
REMARK    7  A    between atoms: N_19  and  C_20
REMARK    8  A    between atoms: C_20  and  C_21
REMARK    9  A    between atoms: C_21  and  C_22
REMARK                            x       y       z     vdW  Elec       q    Type
REMARK                         _______ _______ _______ _____ _____    ______ ____
ROOT
ATOM      1  C   UNL     1      51.232   8.312  12.258  0.00  0.00    +0.000 C 
ENDROOT
BRANCH   1   2
ATOM      2  C   UNL     1      49.839   7.813  12.559  0.00  0.00    +0.000 A 
ATOM      3  C   UNL     1      48.871   7.743  11.552  0.00  0.00    +0.000 A 
ATOM      4  C   UNL     1      47.618   7.156  11.794  0.00  0.00    +0.000 A 
ATOM      5  C   UNL     1      47.266   6.682  13.061  0.00  0.00    +0.000 A 
ATOM      6  C   UNL     1      48.215   6.827  14.084  0.00  0.00    +0.000 A 
ATOM      7  C   UNL     1      49.483   7.383  13.842  0.00  0.00    +0.000 A 
BRANCH   5   8
ATOM      8  N   UNL     1      46.100   5.963  13.328  0.00  0.00    +0.000 N 
ATOM      9  H   UNL     1      46.077   5.573  14.266  0.00  0.00    +0.000 HD
BRANCH   8  10
ATOM     10  C   UNL     1      44.785   6.389  12.838  0.00  0.00    +0.000 C 
BRANCH  10  11
ATOM     11  C   UNL     1      44.128   5.303  11.929  0.00  0.00    +0.000 C 
ATOM     12  C   UNL     1      42.621   5.199  12.240  0.00  0.00    +0.000 C 
ATOM     13  C   UNL     1      44.811   3.935  12.109  0.00  0.00    +0.000 C 
ATOM     14  C   UNL     1      44.852   3.296  10.721  0.00  0.00    +0.000 C 
ATOM     15  C   UNL     1      44.229   4.313   9.786  0.00  0.00    +0.000 C 
ATOM     16  N   UNL     1      44.342   5.590  10.491  0.00  0.00    +0.000 NA
ATOM     17  H   UNL     1      43.644   6.239  10.145  0.00  0.00    +0.000 HD
ENDBRANCH  10  11
ENDBRANCH   8  10
ENDBRANCH   5   8
ENDBRANCH   1   2
BRANCH   1  20
ATOM     18  C   UNL     1      52.652   8.695  10.276  0.00  0.00    +0.000 C 
ATOM     19  O   UNL     1      53.325   9.538  10.866  0.00  0.00    +0.000 OA
ATOM     20  N   UNL     1      51.618   8.047  10.897  0.00  0.00    +0.000 N 
ATOM     21  H   UNL     1      51.085   7.352  10.396  0.00  0.00    +0.000 HD
BRANCH  18  29
ATOM     22  C   UNL     1      53.529   5.768   8.689  0.00  0.00    +0.000 A 
ATOM     23  N   UNL     1      53.804   4.772   7.831  0.00  0.00    +0.000 NA
ATOM     24  C   UNL     1      53.861   5.061   6.529  0.00  0.00    +0.000 A 
ATOM     25  N   UNL     1      53.680   6.254   5.966  0.00  0.00    +0.000 NA
ATOM     26  C   UNL     1      53.390   7.217   6.857  0.00  0.00    +0.000 A 
ATOM     27  S   UNL     1      53.138   8.810   6.320  0.00  0.00    +0.000 S 
ATOM     28  C   UNL     1      52.841   9.351   7.905  0.00  0.00    +0.000 A 
ATOM     29  C   UNL     1      52.918   8.350   8.868  0.00  0.00    +0.000 A 
ATOM     30  C   UNL     1      53.273   7.077   8.237  0.00  0.00    +0.000 A 
BRANCH  22  32
ATOM     31  C   UNL     1      54.753   5.559  10.668  0.00  0.00    +0.000 C 
ATOM     32  O   UNL     1      53.479   5.474  10.034  0.00  0.00    +0.000 OA
ENDBRANCH  22  32
ENDBRANCH  18  29
ENDBRANCH   1  20
TORSDOF 7
ENDMDL
MODEL 9
REMARK VINA RESULT:    -5.841      1.733      2.942
REMARK INTER + INTRA:          -9.259
REMARK INTER:                  -7.821
REMARK INTRA:                  -1.438
REMARK UNBOUND:                -1.028
REMARK  Name = 
REMARK  9 active torsions:
REMARK  status: ('A' for Active; 'I' for Inactive)
REMARK    1  A    between atoms: C_1  and  O_2
REMARK    2  A    between atoms: O_2  and  C_3
REMARK    3  A    between atoms: C_10  and  C_11
REMARK    4  A    between atoms: N_13  and  C_14
REMARK    5  A    between atoms: C_14  and  C_15
REMARK    6  A    between atoms: C_18  and  N_19
REMARK    7  A    between atoms: N_19  and  C_20
REMARK    8  A    between atoms: C_20  and  C_21
REMARK    9  A    between atoms: C_21  and  C_22
REMARK                            x       y       z     vdW  Elec       q    Type
REMARK                         _______ _______ _______ _____ _____    ______ ____
ROOT
ATOM      1  C   UNL     1      47.583   3.997  17.591  0.00  0.00    +0.000 C 
ENDROOT
BRANCH   1   2
ATOM      2  C   UNL     1      49.050   4.182  17.898  0.00  0.00    +0.000 A 
ATOM      3  C   UNL     1      49.479   5.214  18.739  0.00  0.00    +0.000 A 
ATOM      4  C   UNL     1      50.824   5.309  19.136  0.00  0.00    +0.000 A 
ATOM      5  C   UNL     1      51.792   4.424  18.656  0.00  0.00    +0.000 A 
ATOM      6  C   UNL     1      51.365   3.438  17.753  0.00  0.00    +0.000 A 
ATOM      7  C   UNL     1      50.017   3.315  17.377  0.00  0.00    +0.000 A 
BRANCH   5   8
ATOM      8  N   UNL     1      53.107   4.378  19.122  0.00  0.00    +0.000 N 
ATOM      9  H   UNL     1      53.498   5.297  19.306  0.00  0.00    +0.000 HD
BRANCH   8  10
ATOM     10  C   UNL     1      53.573   3.347  20.056  0.00  0.00    +0.000 C 
BRANCH  10  11
ATOM     11  C   UNL     1      54.492   2.302  19.348  0.00  0.00    +0.000 C 
ATOM     12  C   UNL     1      55.633   1.879  20.297  0.00  0.00    +0.000 C 
ATOM     13  C   UNL     1      55.064   2.860  18.032  0.00  0.00    +0.000 C 
ATOM     14  C   UNL     1      55.076   1.691  17.046  0.00  0.00    +0.000 C 
ATOM     15  C   UNL     1      54.489   0.515  17.802  0.00  0.00    +0.000 C 
ATOM     16  N   UNL     1      53.727   1.116  18.897  0.00  0.00    +0.000 NA
ATOM     17  H   UNL     1      53.620   0.446  19.652  0.00  0.00    +0.000 HD
ENDBRANCH  10  11
ENDBRANCH   8  10
ENDBRANCH   5   8
ENDBRANCH   1   2
BRANCH   1  20
ATOM     18  C   UNL     1      47.232   4.119  15.152  0.00  0.00    +0.000 C 
ATOM     19  O   UNL     1      47.599   2.955  14.996  0.00  0.00    +0.000 OA
ATOM     20  N   UNL     1      47.189   4.690  16.395  0.00  0.00    +0.000 N 
ATOM     21  H   UNL     1      46.874   5.644  16.500  0.00  0.00    +0.000 HD
BRANCH  18  29
ATOM     22  C   UNL     1      48.004   7.334  14.194  0.00  0.00    +0.000 A 
ATOM     23  N   UNL     1      48.186   8.510  13.572  0.00  0.00    +0.000 NA
ATOM     24  C   UNL     1      47.557   8.711  12.411  0.00  0.00    +0.000 A 
ATOM     25  N   UNL     1      46.744   7.861  11.785  0.00  0.00    +0.000 NA
ATOM     26  C   UNL     1      46.605   6.693  12.432  0.00  0.00    +0.000 A 
ATOM     27  S   UNL     1      45.593   5.491  11.785  0.00  0.00    +0.000 S 
ATOM     28  C   UNL     1      45.944   4.433  13.071  0.00  0.00    +0.000 A 
ATOM     29  C   UNL     1      46.831   4.956  14.007  0.00  0.00    +0.000 A 
ATOM     30  C   UNL     1      47.204   6.321  13.632  0.00  0.00    +0.000 A 
BRANCH  22  32
ATOM     31  C   UNL     1      50.061   7.064  15.269  0.00  0.00    +0.000 C 
ATOM     32  O   UNL     1      48.644   7.129  15.397  0.00  0.00    +0.000 OA
ENDBRANCH  22  32
ENDBRANCH  18  29
ENDBRANCH   1  20
TORSDOF 7
ENDMDL
