MODEL 1
REMARK VINA RESULT:    -7.832      0.000      0.000
REMARK INTER + INTRA:         -12.360
REMARK INTER:                 -11.494
REMARK INTRA:                  -0.866
REMARK UNBOUND:                -0.866
REMARK  Name = 
REMARK  8 active torsions:
REMARK  status: ('A' for Active; 'I' for Inactive)
REMARK    1  A    between atoms: C_2  and  C_21
REMARK    2  A    between atoms: N_3  and  C_4
REMARK    3  A    between atoms: C_4  and  C_5
REMARK    4  A    between atoms: C_8  and  C_9
REMARK    5  A    between atoms: C_9  and  C_10
REMARK    6  A    between atoms: C_10  and  N_11
REMARK    7  A    between atoms: N_11  and  C_12
REMARK    8  A    between atoms: C_12  and  C_13
REMARK                            x       y       z     vdW  Elec       q    Type
REMARK                         _______ _______ _______ _____ _____    ______ ____
ROOT
ATOM      1  C   UNL     1      47.241   6.160  13.171  0.00  0.00    +0.000 A 
ATOM      2  C   UNL     1      46.527   5.115  13.765  0.00  0.00    +0.000 A 
ATOM      3  C   UNL     1      45.402   4.576  13.139  0.00  0.00    +0.000 A 
ATOM      4  C   UNL     1      44.963   5.073  11.904  0.00  0.00    +0.000 A 
ATOM      5  C   UNL     1      45.700   6.094  11.292  0.00  0.00    +0.000 A 
ATOM      6  C   UNL     1      46.834   6.628  11.914  0.00  0.00    +0.000 A 
ENDROOT
BRANCH   1   7
ATOM      7  C   UNL     1      48.448   6.737  13.865  0.00  0.00    +0.000 C 
BRANCH   7  10
ATOM      8  O   UNL     1      50.349   6.261  15.903  0.00  0.00    +0.000 OA
ATOM      9  C   UNL     1      49.228   6.662  16.207  0.00  0.00    +0.000 C 
ATOM     10  N   UNL     1      48.234   6.855  15.283  0.00  0.00    +0.000 N 
ATOM     11  H   UNL     1      47.401   7.361  15.558  0.00  0.00    +0.000 HD
BRANCH   9  12
ATOM     12  C   UNL     1      48.855   6.905  17.606  0.00  0.00    +0.000 A 
ATOM     13  C   UNL     1      48.532   8.188  18.028  0.00  0.00    +0.000 A 
ATOM     14  S   UNL     1      48.165   8.288  19.691  0.00  0.00    +0.000 S 
ATOM     15  C   UNL     1      48.373   6.611  19.895  0.00  0.00    +0.000 A 
ATOM     16  N   UNL     1      48.185   6.023  21.108  0.00  0.00    +0.000 NA
ATOM     17  C   UNL     1      48.331   4.740  21.107  0.00  0.00    +0.000 A 
ATOM     18  N   UNL     1      48.656   3.993  20.006  0.00  0.00    +0.000 N 
ATOM     19  C   UNL     1      48.932   4.550  18.782  0.00  0.00    +0.000 A 
ATOM     20  O   UNL     1      49.355   3.864  17.858  0.00  0.00    +0.000 OA
ATOM     21  C   UNL     1      48.739   5.987  18.716  0.00  0.00    +0.000 A 
ATOM     22  H   UNL     1      48.784   2.993  20.077  0.00  0.00    +0.000 HD
ENDBRANCH   9  12
ENDBRANCH   7  10
ENDBRANCH   1   7
BRANCH   4  23
ATOM     23  C   UNL     1      43.740   4.495  11.229  0.00  0.00    +0.000 C 
BRANCH  23  24
ATOM     24  C   UNL     1      43.742   2.958  11.200  0.00  0.00    +0.000 C 
BRANCH  24  25
ATOM     25  N   UNL     1      44.810   2.455  10.325  0.00  0.00    +0.000 NA
ATOM     26  H   UNL     1      44.870   1.439  10.422  0.00  0.00    +0.000 HD
BRANCH  25  27
ATOM     27  C   UNL     1      44.501   2.754   8.918  0.00  0.00    +0.000 C 
BRANCH  27  28
ATOM     28  C   UNL     1      45.690   2.563   8.006  0.00  0.00    +0.000 A 
ATOM     29  C   UNL     1      46.386   1.358   7.985  0.00  0.00    +0.000 A 
ATOM     30  N   UNL     1      47.479   1.149   7.205  0.00  0.00    +0.000 NA
ATOM     31  C   UNL     1      47.845   2.198   6.439  0.00  0.00    +0.000 A 
ATOM     32  C   UNL     1      47.159   3.398   6.447  0.00  0.00    +0.000 A 
ATOM     33  N   UNL     1      46.069   3.609   7.223  0.00  0.00    +0.000 NA
ENDBRANCH  27  28
ENDBRANCH  25  27
ENDBRANCH  24  25
ENDBRANCH  23  24
ENDBRANCH   4  23
TORSDOF 8
ENDMDL
MODEL 2
REMARK VINA RESULT:    -7.660      1.844      2.240
REMARK INTER + INTRA:         -12.108
REMARK INTER:                 -11.014
REMARK INTRA:                  -1.094
REMARK UNBOUND:                -0.866
REMARK  Name = 
REMARK  8 active torsions:
REMARK  status: ('A' for Active; 'I' for Inactive)
REMARK    1  A    between atoms: C_2  and  C_21
REMARK    2  A    between atoms: N_3  and  C_4
REMARK    3  A    between atoms: C_4  and  C_5
REMARK    4  A    between atoms: C_8  and  C_9
REMARK    5  A    between atoms: C_9  and  C_10
REMARK    6  A    between atoms: C_10  and  N_11
REMARK    7  A    between atoms: N_11  and  C_12
REMARK    8  A    between atoms: C_12  and  C_13
REMARK                            x       y       z     vdW  Elec       q    Type
REMARK                         _______ _______ _______ _____ _____    ______ ____
ROOT
ATOM      1  C   UNL     1      47.155   7.244  12.550  0.00  0.00    +0.000 A 
ATOM      2  C   UNL     1      46.962   5.877  12.327  0.00  0.00    +0.000 A 
ATOM      3  C   UNL     1      45.751   5.401  11.824  0.00  0.00    +0.000 A 
ATOM      4  C   UNL     1      44.701   6.283  11.535  0.00  0.00    +0.000 A 
ATOM      5  C   UNL     1      44.906   7.655  11.724  0.00  0.00    +0.000 A 
ATOM      6  C   UNL     1      46.124   8.133  12.218  0.00  0.00    +0.000 A 
ENDROOT
BRANCH   1   7
ATOM      7  C   UNL     1      48.466   7.740  13.103  0.00  0.00    +0.000 C 
BRANCH   7  10
ATOM      8  O   UNL     1      48.284   8.613  15.786  0.00  0.00    +0.000 OA
ATOM      9  C   UNL     1      48.680   7.475  15.549  0.00  0.00    +0.000 C 
ATOM     10  N   UNL     1      48.856   7.001  14.275  0.00  0.00    +0.000 N 
ATOM     11  H   UNL     1      49.000   6.008  14.137  0.00  0.00    +0.000 HD
BRANCH   9  12
ATOM     12  C   UNL     1      49.057   6.554  16.630  0.00  0.00    +0.000 A 
ATOM     13  C   UNL     1      50.025   6.925  17.554  0.00  0.00    +0.000 A 
ATOM     14  S   UNL     1      50.365   5.717  18.709  0.00  0.00    +0.000 S 
ATOM     15  C   UNL     1      49.192   4.676  18.047  0.00  0.00    +0.000 A 
ATOM     16  N   UNL     1      48.954   3.451  18.591  0.00  0.00    +0.000 NA
ATOM     17  C   UNL     1      48.007   2.787  18.017  0.00  0.00    +0.000 A 
ATOM     18  N   UNL     1      47.282   3.233  16.943  0.00  0.00    +0.000 N 
ATOM     19  C   UNL     1      47.540   4.425  16.314  0.00  0.00    +0.000 A 
ATOM     20  O   UNL     1      46.965   4.726  15.274  0.00  0.00    +0.000 OA
ATOM     21  C   UNL     1      48.566   5.233  16.947  0.00  0.00    +0.000 A 
ATOM     22  H   UNL     1      46.571   2.653  16.521  0.00  0.00    +0.000 HD
ENDBRANCH   9  12
ENDBRANCH   7  10
ENDBRANCH   1   7
BRANCH   4  23
ATOM     23  C   UNL     1      43.385   5.768  10.998  0.00  0.00    +0.000 C 
BRANCH  23  24
ATOM     24  C   UNL     1      43.339   4.234  10.896  0.00  0.00    +0.000 C 
BRANCH  24  25
ATOM     25  N   UNL     1      43.710   3.791   9.545  0.00  0.00    +0.000 NA
ATOM     26  H   UNL     1      44.302   4.504   9.111  0.00  0.00    +0.000 HD
BRANCH  25  27
ATOM     27  C   UNL     1      44.487   2.543   9.612  0.00  0.00    +0.000 C 
BRANCH  27  28
ATOM     28  C   UNL     1      45.511   2.433   8.507  0.00  0.00    +0.000 A 
ATOM     29  C   UNL     1      45.758   3.505   7.654  0.00  0.00    +0.000 A 
ATOM     30  N   UNL     1      46.646   3.444   6.628  0.00  0.00    +0.000 NA
ATOM     31  C   UNL     1      47.285   2.263   6.493  0.00  0.00    +0.000 A 
ATOM     32  C   UNL     1      47.052   1.192   7.337  0.00  0.00    +0.000 A 
ATOM     33  N   UNL     1      46.168   1.251   8.360  0.00  0.00    +0.000 NA
ENDBRANCH  27  28
ENDBRANCH  25  27
ENDBRANCH  24  25
ENDBRANCH  23  24
ENDBRANCH   4  23
TORSDOF 8
ENDMDL
MODEL 3
REMARK VINA RESULT:    -7.553      1.839      3.051
REMARK INTER + INTRA:         -11.952
REMARK INTER:                 -10.964
REMARK INTRA:                  -0.988
REMARK UNBOUND:                -0.866
REMARK  Name = 
REMARK  8 active torsions:
REMARK  status: ('A' for Active; 'I' for Inactive)
REMARK    1  A    between atoms: C_2  and  C_21
REMARK    2  A    between atoms: N_3  and  C_4
REMARK    3  A    between atoms: C_4  and  C_5
REMARK    4  A    between atoms: C_8  and  C_9
REMARK    5  A    between atoms: C_9  and  C_10
REMARK    6  A    between atoms: C_10  and  N_11
REMARK    7  A    between atoms: N_11  and  C_12
REMARK    8  A    between atoms: C_12  and  C_13
REMARK                            x       y       z     vdW  Elec       q    Type
REMARK                         _______ _______ _______ _____ _____    ______ ____
ROOT
ATOM      1  C   UNL     1      47.002   4.522  14.365  0.00  0.00    +0.000 A 
ATOM      2  C   UNL     1      46.173   3.653  13.648  0.00  0.00    +0.000 A 
ATOM      3  C   UNL     1      45.596   4.053  12.441  0.00  0.00    +0.000 A 
ATOM      4  C   UNL     1      45.833   5.335  11.926  0.00  0.00    +0.000 A 
ATOM      5  C   UNL     1      46.692   6.191  12.626  0.00  0.00    +0.000 A 
ATOM      6  C   UNL     1      47.278   5.787  13.829  0.00  0.00    +0.000 A 
ENDROOT
BRANCH   1   7
ATOM      7  C   UNL     1      47.609   4.077  15.671  0.00  0.00    +0.000 C 
BRANCH   7  10
ATOM      8  O   UNL     1      49.742   5.732  16.509  0.00  0.00    +0.000 OA
ATOM      9  C   UNL     1      48.619   5.919  16.969  0.00  0.00    +0.000 C 
ATOM     10  N   UNL     1      47.549   5.119  16.661  0.00  0.00    +0.000 N 
ATOM     11  H   UNL     1      46.618   5.427  16.914  0.00  0.00    +0.000 HD
BRANCH   9  12
ATOM     12  C   UNL     1      48.357   6.987  17.943  0.00  0.00    +0.000 A 
ATOM     13  C   UNL     1      48.261   6.687  19.296  0.00  0.00    +0.000 A 
ATOM     14  S   UNL     1      47.913   8.042  20.272  0.00  0.00    +0.000 S 
ATOM     15  C   UNL     1      47.930   9.086  18.927  0.00  0.00    +0.000 A 
ATOM     16  N   UNL     1      47.717  10.421  19.074  0.00  0.00    +0.000 NA
ATOM     17  C   UNL     1      47.805  11.099  17.978  0.00  0.00    +0.000 A 
ATOM     18  N   UNL     1      48.077  10.561  16.748  0.00  0.00    +0.000 N 
ATOM     19  C   UNL     1      48.221   9.211  16.540  0.00  0.00    +0.000 A 
ATOM     20  O   UNL     1      48.325   8.755  15.407  0.00  0.00    +0.000 OA
ATOM     21  C   UNL     1      48.176   8.407  17.747  0.00  0.00    +0.000 A 
ATOM     22  H   UNL     1      48.105  11.141  15.922  0.00  0.00    +0.000 HD
ENDBRANCH   9  12
ENDBRANCH   7  10
ENDBRANCH   1   7
BRANCH   4  23
ATOM     23  C   UNL     1      45.202   5.772  10.624  0.00  0.00    +0.000 C 
BRANCH  23  24
ATOM     24  C   UNL     1      43.911   5.004  10.295  0.00  0.00    +0.000 C 
BRANCH  24  25
ATOM     25  N   UNL     1      44.036   4.301   9.011  0.00  0.00    +0.000 NA
ATOM     26  H   UNL     1      44.781   4.737   8.463  0.00  0.00    +0.000 HD
BRANCH  25  27
ATOM     27  C   UNL     1      44.407   2.894   9.233  0.00  0.00    +0.000 C 
BRANCH  27  28
ATOM     28  C   UNL     1      45.596   2.467   8.405  0.00  0.00    +0.000 A 
ATOM     29  C   UNL     1      46.308   3.393   7.648  0.00  0.00    +0.000 A 
ATOM     30  N   UNL     1      47.363   3.052   6.864  0.00  0.00    +0.000 NA
ATOM     31  C   UNL     1      47.683   1.741   6.873  0.00  0.00    +0.000 A 
ATOM     32  C   UNL     1      46.988   0.811   7.625  0.00  0.00    +0.000 A 
ATOM     33  N   UNL     1      45.936   1.149   8.407  0.00  0.00    +0.000 NA
ENDBRANCH  27  28
ENDBRANCH  25  27
ENDBRANCH  24  25
ENDBRANCH  23  24
ENDBRANCH   4  23
TORSDOF 8
ENDMDL
MODEL 4
REMARK VINA RESULT:    -7.511      2.764      3.440
REMARK INTER + INTRA:         -11.889
REMARK INTER:                 -10.907
REMARK INTRA:                  -0.982
REMARK UNBOUND:                -0.866
REMARK  Name = 
REMARK  8 active torsions:
REMARK  status: ('A' for Active; 'I' for Inactive)
REMARK    1  A    between atoms: C_2  and  C_21
REMARK    2  A    between atoms: N_3  and  C_4
REMARK    3  A    between atoms: C_4  and  C_5
REMARK    4  A    between atoms: C_8  and  C_9
REMARK    5  A    between atoms: C_9  and  C_10
REMARK    6  A    between atoms: C_10  and  N_11
REMARK    7  A    between atoms: N_11  and  C_12
REMARK    8  A    between atoms: C_12  and  C_13
REMARK                            x       y       z     vdW  Elec       q    Type
REMARK                         _______ _______ _______ _____ _____    ______ ____
ROOT
ATOM      1  C   UNL     1      48.298   6.182  15.149  0.00  0.00    +0.000 A 
ATOM      2  C   UNL     1      47.614   5.034  15.559  0.00  0.00    +0.000 A 
ATOM      3  C   UNL     1      46.780   4.347  14.676  0.00  0.00    +0.000 A 
ATOM      4  C   UNL     1      46.608   4.798  13.360  0.00  0.00    +0.000 A 
ATOM      5  C   UNL     1      47.321   5.927  12.938  0.00  0.00    +0.000 A 
ATOM      6  C   UNL     1      48.166   6.608  13.821  0.00  0.00    +0.000 A 
ENDROOT
BRANCH   1   7
ATOM      7  C   UNL     1      49.188   6.916  16.119  0.00  0.00    +0.000 C 
BRANCH   7  10
ATOM      8  O   UNL     1      49.583   6.142  18.810  0.00  0.00    +0.000 OA
ATOM      9  C   UNL     1      50.320   5.688  17.938  0.00  0.00    +0.000 C 
ATOM     10  N   UNL     1      50.233   6.064  16.623  0.00  0.00    +0.000 N 
ATOM     11  H   UNL     1      50.730   5.524  15.925  0.00  0.00    +0.000 HD
BRANCH   9  12
ATOM     12  C   UNL     1      51.400   4.747  18.263  0.00  0.00    +0.000 A 
ATOM     13  C   UNL     1      52.501   5.176  18.993  0.00  0.00    +0.000 A 
ATOM     14  S   UNL     1      53.673   3.961  19.238  0.00  0.00    +0.000 S 
ATOM     15  C   UNL     1      52.727   2.805  18.422  0.00  0.00    +0.000 A 
ATOM     16  N   UNL     1      53.152   1.519  18.287  0.00  0.00    +0.000 NA
ATOM     17  C   UNL     1      52.314   0.741  17.687  0.00  0.00    +0.000 A 
ATOM     18  N   UNL     1      51.094   1.133  17.202  0.00  0.00    +0.000 N 
ATOM     19  C   UNL     1      50.659   2.434  17.245  0.00  0.00    +0.000 A 
ATOM     20  O   UNL     1      49.626   2.772  16.677  0.00  0.00    +0.000 OA
ATOM     21  C   UNL     1      51.544   3.344  17.949  0.00  0.00    +0.000 A 
ATOM     22  H   UNL     1      50.495   0.481  16.716  0.00  0.00    +0.000 HD
ENDBRANCH   9  12
ENDBRANCH   7  10
ENDBRANCH   1   7
BRANCH   4  23
ATOM     23  C   UNL     1      45.698   4.060  12.404  0.00  0.00    +0.000 C 
BRANCH  23  24
ATOM     24  C   UNL     1      44.616   4.963  11.790  0.00  0.00    +0.000 C 
BRANCH  24  25
ATOM     25  N   UNL     1      44.918   5.252  10.381  0.00  0.00    +0.000 NA
ATOM     26  H   UNL     1      45.923   5.143  10.226  0.00  0.00    +0.000 HD
BRANCH  25  27
ATOM     27  C   UNL     1      44.222   4.298   9.503  0.00  0.00    +0.000 C 
BRANCH  27  28
ATOM     28  C   UNL     1      45.173   3.459   8.683  0.00  0.00    +0.000 A 
ATOM     29  C   UNL     1      45.347   2.105   8.956  0.00  0.00    +0.000 A 
ATOM     30  N   UNL     1      46.214   1.317   8.267  0.00  0.00    +0.000 NA
ATOM     31  C   UNL     1      46.898   1.941   7.285  0.00  0.00    +0.000 A 
ATOM     32  C   UNL     1      46.730   3.284   7.000  0.00  0.00    +0.000 A 
ATOM     33  N   UNL     1      45.868   4.071   7.685  0.00  0.00    +0.000 NA
ENDBRANCH  27  28
ENDBRANCH  25  27
ENDBRANCH  24  25
ENDBRANCH  23  24
ENDBRANCH   4  23
TORSDOF 8
ENDMDL
MODEL 5
REMARK VINA RESULT:    -7.285      2.017      2.715
REMARK INTER + INTRA:         -11.558
REMARK INTER:                 -10.581
REMARK INTRA:                  -0.978
REMARK UNBOUND:                -0.866
REMARK  Name = 
REMARK  8 active torsions:
REMARK  status: ('A' for Active; 'I' for Inactive)
REMARK    1  A    between atoms: C_2  and  C_21
REMARK    2  A    between atoms: N_3  and  C_4
REMARK    3  A    between atoms: C_4  and  C_5
REMARK    4  A    between atoms: C_8  and  C_9
REMARK    5  A    between atoms: C_9  and  C_10
REMARK    6  A    between atoms: C_10  and  N_11
REMARK    7  A    between atoms: N_11  and  C_12
REMARK    8  A    between atoms: C_12  and  C_13
REMARK                            x       y       z     vdW  Elec       q    Type
REMARK                         _______ _______ _______ _____ _____    ______ ____
ROOT
ATOM      1  C   UNL     1      46.873   6.539  12.772  0.00  0.00    +0.000 A 
ATOM      2  C   UNL     1      46.657   6.715  11.402  0.00  0.00    +0.000 A 
ATOM      3  C   UNL     1      45.568   6.113  10.769  0.00  0.00    +0.000 A 
ATOM      4  C   UNL     1      44.672   5.316  11.493  0.00  0.00    +0.000 A 
ATOM      5  C   UNL     1      44.867   5.169  12.872  0.00  0.00    +0.000 A 
ATOM      6  C   UNL     1      45.952   5.782  13.508  0.00  0.00    +0.000 A 
ENDROOT
BRANCH   1   7
ATOM      7  C   UNL     1      48.058   7.190  13.437  0.00  0.00    +0.000 C 
BRANCH   7  10
ATOM      8  O   UNL     1      48.823   8.086  16.008  0.00  0.00    +0.000 OA
ATOM      9  C   UNL     1      48.861   6.885  15.753  0.00  0.00    +0.000 C 
ATOM     10  N   UNL     1      48.568   6.380  14.512  0.00  0.00    +0.000 N 
ATOM     11  H   UNL     1      48.432   5.382  14.409  0.00  0.00    +0.000 HD
BRANCH   9  12
ATOM     12  C   UNL     1      49.291   5.902  16.756  0.00  0.00    +0.000 A 
ATOM     13  C   UNL     1      48.346   5.187  17.480  0.00  0.00    +0.000 A 
ATOM     14  S   UNL     1      49.027   4.124  18.627  0.00  0.00    +0.000 S 
ATOM     15  C   UNL     1      50.609   4.543  18.160  0.00  0.00    +0.000 A 
ATOM     16  N   UNL     1      51.691   3.965  18.750  0.00  0.00    +0.000 NA
ATOM     17  C   UNL     1      52.827   4.342  18.267  0.00  0.00    +0.000 A 
ATOM     18  N   UNL     1      52.981   5.251  17.252  0.00  0.00    +0.000 N 
ATOM     19  C   UNL     1      51.924   5.916  16.683  0.00  0.00    +0.000 A 
ATOM     20  O   UNL     1      52.110   6.821  15.877  0.00  0.00    +0.000 OA
ATOM     21  C   UNL     1      50.619   5.497  17.159  0.00  0.00    +0.000 A 
ATOM     22  H   UNL     1      53.900   5.526  16.937  0.00  0.00    +0.000 HD
ENDBRANCH   9  12
ENDBRANCH   7  10
ENDBRANCH   1   7
BRANCH   4  23
ATOM     23  C   UNL     1      43.497   4.656  10.807  0.00  0.00    +0.000 C 
BRANCH  23  24
ATOM     24  C   UNL     1      43.419   3.144  11.075  0.00  0.00    +0.000 C 
BRANCH  24  25
ATOM     25  N   UNL     1      44.667   2.480  10.675  0.00  0.00    +0.000 NA
ATOM     26  H   UNL     1      44.881   1.740  11.348  0.00  0.00    +0.000 HD
BRANCH  25  27
ATOM     27  C   UNL     1      44.512   1.854   9.352  0.00  0.00    +0.000 C 
BRANCH  27  28
ATOM     28  C   UNL     1      45.628   2.217   8.401  0.00  0.00    +0.000 A 
ATOM     29  C   UNL     1      45.778   3.522   7.943  0.00  0.00    +0.000 A 
ATOM     30  N   UNL     1      46.746   3.890   7.063  0.00  0.00    +0.000 NA
ATOM     31  C   UNL     1      47.566   2.895   6.664  0.00  0.00    +0.000 A 
ATOM     32  C   UNL     1      47.430   1.595   7.117  0.00  0.00    +0.000 A 
ATOM     33  N   UNL     1      46.467   1.226   7.993  0.00  0.00    +0.000 NA
ENDBRANCH  27  28
ENDBRANCH  25  27
ENDBRANCH  24  25
ENDBRANCH  23  24
ENDBRANCH   4  23
TORSDOF 8
ENDMDL
MODEL 6
REMARK VINA RESULT:    -7.221      3.043      3.789
REMARK INTER + INTRA:         -11.465
REMARK INTER:                 -11.064
REMARK INTRA:                  -0.400
REMARK UNBOUND:                -0.866
REMARK  Name = 
REMARK  8 active torsions:
REMARK  status: ('A' for Active; 'I' for Inactive)
REMARK    1  A    between atoms: C_2  and  C_21
REMARK    2  A    between atoms: N_3  and  C_4
REMARK    3  A    between atoms: C_4  and  C_5
REMARK    4  A    between atoms: C_8  and  C_9
REMARK    5  A    between atoms: C_9  and  C_10
REMARK    6  A    between atoms: C_10  and  N_11
REMARK    7  A    between atoms: N_11  and  C_12
REMARK    8  A    between atoms: C_12  and  C_13
REMARK                            x       y       z     vdW  Elec       q    Type
REMARK                         _______ _______ _______ _____ _____    ______ ____
ROOT
ATOM      1  C   UNL     1      47.150   4.393  15.160  0.00  0.00    +0.000 A 
ATOM      2  C   UNL     1      46.426   3.775  14.135  0.00  0.00    +0.000 A 
ATOM      3  C   UNL     1      46.243   4.413  12.908  0.00  0.00    +0.000 A 
ATOM      4  C   UNL     1      46.777   5.688  12.678  0.00  0.00    +0.000 A 
ATOM      5  C   UNL     1      47.532   6.292  13.691  0.00  0.00    +0.000 A 
ATOM      6  C   UNL     1      47.725   5.648  14.917  0.00  0.00    +0.000 A 
ENDROOT
BRANCH   1   7
ATOM      7  C   UNL     1      47.331   3.694  16.483  0.00  0.00    +0.000 C 
BRANCH   7  10
ATOM      8  O   UNL     1      49.623   2.049  16.292  0.00  0.00    +0.000 OA
ATOM      9  C   UNL     1      49.707   3.137  16.857  0.00  0.00    +0.000 C 
ATOM     10  N   UNL     1      48.628   3.960  17.046  0.00  0.00    +0.000 N 
ATOM     11  H   UNL     1      48.787   4.915  17.343  0.00  0.00    +0.000 HD
BRANCH   9  12
ATOM     12  C   UNL     1      50.975   3.604  17.433  0.00  0.00    +0.000 A 
ATOM     13  C   UNL     1      51.206   4.964  17.595  0.00  0.00    +0.000 A 
ATOM     14  S   UNL     1      52.745   5.324  18.238  0.00  0.00    +0.000 S 
ATOM     15  C   UNL     1      53.136   3.672  18.371  0.00  0.00    +0.000 A 
ATOM     16  N   UNL     1      54.334   3.274  18.880  0.00  0.00    +0.000 NA
ATOM     17  C   UNL     1      54.478   1.994  18.967  0.00  0.00    +0.000 A 
ATOM     18  N   UNL     1      53.537   1.075  18.583  0.00  0.00    +0.000 N 
ATOM     19  C   UNL     1      52.349   1.428  17.992  0.00  0.00    +0.000 A 
ATOM     20  O   UNL     1      51.595   0.577  17.535  0.00  0.00    +0.000 OA
ATOM     21  C   UNL     1      52.117   2.858  17.911  0.00  0.00    +0.000 A 
ATOM     22  H   UNL     1      53.722   0.084  18.649  0.00  0.00    +0.000 HD
ENDBRANCH   9  12
ENDBRANCH   7  10
ENDBRANCH   1   7
BRANCH   4  23
ATOM     23  C   UNL     1      46.571   6.384  11.352  0.00  0.00    +0.000 C 
BRANCH  23  24
ATOM     24  C   UNL     1      45.279   5.950  10.641  0.00  0.00    +0.000 C 
BRANCH  24  25
ATOM     25  N   UNL     1      45.567   5.478   9.280  0.00  0.00    +0.000 NA
ATOM     26  H   UNL     1      46.568   5.285   9.198  0.00  0.00    +0.000 HD
BRANCH  25  27
ATOM     27  C   UNL     1      44.845   4.224   9.010  0.00  0.00    +0.000 C 
BRANCH  27  28
ATOM     28  C   UNL     1      45.712   3.184   8.340  0.00  0.00    +0.000 A 
ATOM     29  C   UNL     1      45.598   1.838   8.676  0.00  0.00    +0.000 A 
ATOM     30  N   UNL     1      46.377   0.871   8.124  0.00  0.00    +0.000 NA
ATOM     31  C   UNL     1      47.273   1.307   7.214  0.00  0.00    +0.000 A 
ATOM     32  C   UNL     1      47.391   2.641   6.868  0.00  0.00    +0.000 A 
ATOM     33  N   UNL     1      46.617   3.606   7.416  0.00  0.00    +0.000 NA
ENDBRANCH  27  28
ENDBRANCH  25  27
ENDBRANCH  24  25
ENDBRANCH  23  24
ENDBRANCH   4  23
TORSDOF 8
ENDMDL
MODEL 7
REMARK VINA RESULT:    -7.099      5.079      9.769
REMARK INTER + INTRA:         -11.285
REMARK INTER:                 -10.447
REMARK INTRA:                  -0.838
REMARK UNBOUND:                -0.866
REMARK  Name = 
REMARK  8 active torsions:
REMARK  status: ('A' for Active; 'I' for Inactive)
REMARK    1  A    between atoms: C_2  and  C_21
REMARK    2  A    between atoms: N_3  and  C_4
REMARK    3  A    between atoms: C_4  and  C_5
REMARK    4  A    between atoms: C_8  and  C_9
REMARK    5  A    between atoms: C_9  and  C_10
REMARK    6  A    between atoms: C_10  and  N_11
REMARK    7  A    between atoms: N_11  and  C_12
REMARK    8  A    between atoms: C_12  and  C_13
REMARK                            x       y       z     vdW  Elec       q    Type
REMARK                         _______ _______ _______ _____ _____    ______ ____
ROOT
ATOM      1  C   UNL     1      48.658   3.474  17.107  0.00  0.00    +0.000 A 
ATOM      2  C   UNL     1      49.364   4.643  17.409  0.00  0.00    +0.000 A 
ATOM      3  C   UNL     1      50.740   4.606  17.635  0.00  0.00    +0.000 A 
ATOM      4  C   UNL     1      51.443   3.396  17.567  0.00  0.00    +0.000 A 
ATOM      5  C   UNL     1      50.744   2.231  17.229  0.00  0.00    +0.000 A 
ATOM      6  C   UNL     1      49.366   2.270  16.992  0.00  0.00    +0.000 A 
ENDROOT
BRANCH   1   7
ATOM      7  C   UNL     1      47.170   3.530  16.876  0.00  0.00    +0.000 C 
BRANCH   7  10
ATOM      8  O   UNL     1      47.280   3.111  14.082  0.00  0.00    +0.000 OA
ATOM      9  C   UNL     1      46.857   4.181  14.514  0.00  0.00    +0.000 C 
ATOM     10  N   UNL     1      46.833   4.483  15.851  0.00  0.00    +0.000 N 
ATOM     11  H   UNL     1      46.306   5.289  16.161  0.00  0.00    +0.000 HD
BRANCH   9  12
ATOM     12  C   UNL     1      46.403   5.246  13.611  0.00  0.00    +0.000 A 
ATOM     13  C   UNL     1      47.236   6.320  13.326  0.00  0.00    +0.000 A 
ATOM     14  S   UNL     1      46.527   7.480  12.295  0.00  0.00    +0.000 S 
ATOM     15  C   UNL     1      45.101   6.562  12.151  0.00  0.00    +0.000 A 
ATOM     16  N   UNL     1      44.068   6.988  11.375  0.00  0.00    +0.000 NA
ATOM     17  C   UNL     1      43.069   6.172  11.321  0.00  0.00    +0.000 A 
ATOM     18  N   UNL     1      43.005   4.972  11.978  0.00  0.00    +0.000 N 
ATOM     19  C   UNL     1      43.988   4.538  12.833  0.00  0.00    +0.000 A 
ATOM     20  O   UNL     1      43.834   3.528  13.510  0.00  0.00    +0.000 OA
ATOM     21  C   UNL     1      45.156   5.398  12.897  0.00  0.00    +0.000 A 
ATOM     22  H   UNL     1      42.182   4.390  11.918  0.00  0.00    +0.000 HD
ENDBRANCH   9  12
ENDBRANCH   7  10
ENDBRANCH   1   7
BRANCH   4  23
ATOM     23  C   UNL     1      52.934   3.353  17.820  0.00  0.00    +0.000 C 
BRANCH  23  24
ATOM     24  C   UNL     1      53.286   2.976  19.268  0.00  0.00    +0.000 C 
BRANCH  24  25
ATOM     25  N   UNL     1      54.174   1.806  19.300  0.00  0.00    +0.000 NA
ATOM     26  H   UNL     1      53.806   1.126  19.969  0.00  0.00    +0.000 HD
BRANCH  25  27
ATOM     27  C   UNL     1      54.215   1.159  17.979  0.00  0.00    +0.000 C 
BRANCH  27  28
ATOM     28  C   UNL     1      54.371  -0.341  18.069  0.00  0.00    +0.000 A 
ATOM     29  C   UNL     1      55.113  -1.039  17.120  0.00  0.00    +0.000 A 
ATOM     30  N   UNL     1      55.256  -2.390  17.141  0.00  0.00    +0.000 NA
ATOM     31  C   UNL     1      54.629  -3.016  18.159  0.00  0.00    +0.000 A 
ATOM     32  C   UNL     1      53.894  -2.334  19.111  0.00  0.00    +0.000 A 
ATOM     33  N   UNL     1      53.750  -0.988  19.092  0.00  0.00    +0.000 NA
ENDBRANCH  27  28
ENDBRANCH  25  27
ENDBRANCH  24  25
ENDBRANCH  23  24
ENDBRANCH   4  23
TORSDOF 8
ENDMDL
MODEL 8
REMARK VINA RESULT:    -6.947      3.296      9.136
REMARK INTER + INTRA:         -11.062
REMARK INTER:                  -9.624
REMARK INTRA:                  -1.438
REMARK UNBOUND:                -0.866
REMARK  Name = 
REMARK  8 active torsions:
REMARK  status: ('A' for Active; 'I' for Inactive)
REMARK    1  A    between atoms: C_2  and  C_21
REMARK    2  A    between atoms: N_3  and  C_4
REMARK    3  A    between atoms: C_4  and  C_5
REMARK    4  A    between atoms: C_8  and  C_9
REMARK    5  A    between atoms: C_9  and  C_10
REMARK    6  A    between atoms: C_10  and  N_11
REMARK    7  A    between atoms: N_11  and  C_12
REMARK    8  A    between atoms: C_12  and  C_13
REMARK                            x       y       z     vdW  Elec       q    Type
REMARK                         _______ _______ _______ _____ _____    ______ ____
ROOT
ATOM      1  C   UNL     1      48.721   7.618  13.071  0.00  0.00    +0.000 A 
ATOM      2  C   UNL     1      50.005   8.169  13.025  0.00  0.00    +0.000 A 
ATOM      3  C   UNL     1      50.845   8.112  14.138  0.00  0.00    +0.000 A 
ATOM      4  C   UNL     1      50.416   7.505  15.326  0.00  0.00    +0.000 A 
ATOM      5  C   UNL     1      49.144   6.920  15.360  0.00  0.00    +0.000 A 
ATOM      6  C   UNL     1      48.306   6.968  14.241  0.00  0.00    +0.000 A 
ENDROOT
BRANCH   1   7
ATOM      7  C   UNL     1      47.824   7.697  11.862  0.00  0.00    +0.000 C 
BRANCH   7  10
ATOM      8  O   UNL     1      45.015   7.504  12.121  0.00  0.00    +0.000 OA
ATOM      9  C   UNL     1      45.660   6.508  11.802  0.00  0.00    +0.000 C 
ATOM     10  N   UNL     1      47.028   6.506  11.719  0.00  0.00    +0.000 N 
ATOM     11  H   UNL     1      47.490   5.724  11.273  0.00  0.00    +0.000 HD
BRANCH   9  12
ATOM     12  C   UNL     1      45.003   5.219  11.548  0.00  0.00    +0.000 A 
ATOM     13  C   UNL     1      44.257   4.608  12.547  0.00  0.00    +0.000 A 
ATOM     14  S   UNL     1      43.605   3.100  12.087  0.00  0.00    +0.000 S 
ATOM     15  C   UNL     1      44.253   3.235  10.519  0.00  0.00    +0.000 A 
ATOM     16  N   UNL     1      44.044   2.265   9.588  0.00  0.00    +0.000 NA
ATOM     17  C   UNL     1      44.553   2.520   8.429  0.00  0.00    +0.000 A 
ATOM     18  N   UNL     1      45.260   3.651   8.119  0.00  0.00    +0.000 N 
ATOM     19  C   UNL     1      45.563   4.618   9.045  0.00  0.00    +0.000 A 
ATOM     20  O   UNL     1      46.314   5.546   8.766  0.00  0.00    +0.000 OA
ATOM     21  C   UNL     1      44.976   4.403  10.355  0.00  0.00    +0.000 A 
ATOM     22  H   UNL     1      45.658   3.779   7.199  0.00  0.00    +0.000 HD
ENDBRANCH   9  12
ENDBRANCH   7  10
ENDBRANCH   1   7
BRANCH   4  23
ATOM     23  C   UNL     1      51.322   7.449  16.536  0.00  0.00    +0.000 C 
BRANCH  23  24
ATOM     24  C   UNL     1      50.574   7.694  17.856  0.00  0.00    +0.000 C 
BRANCH  24  25
ATOM     25  N   UNL     1      50.679   6.524  18.739  0.00  0.00    +0.000 NA
ATOM     26  H   UNL     1      51.152   6.799  19.602  0.00  0.00    +0.000 HD
BRANCH  25  27
ATOM     27  C   UNL     1      49.339   6.032  19.098  0.00  0.00    +0.000 C 
BRANCH  27  28
ATOM     28  C   UNL     1      48.870   4.912  18.199  0.00  0.00    +0.000 A 
ATOM     29  C   UNL     1      49.774   4.000  17.663  0.00  0.00    +0.000 A 
ATOM     30  N   UNL     1      49.404   2.996  16.827  0.00  0.00    +0.000 NA
ATOM     31  C   UNL     1      48.084   2.937  16.552  0.00  0.00    +0.000 A 
ATOM     32  C   UNL     1      47.174   3.833  17.083  0.00  0.00    +0.000 A 
ATOM     33  N   UNL     1      47.541   4.834  17.917  0.00  0.00    +0.000 NA
ENDBRANCH  27  28
ENDBRANCH  25  27
ENDBRANCH  24  25
ENDBRANCH  23  24
ENDBRANCH   4  23
TORSDOF 8
ENDMDL
MODEL 9
REMARK VINA RESULT:    -6.900      2.465      2.985
REMARK INTER + INTRA:         -10.994
REMARK INTER:                 -10.142
REMARK INTRA:                  -0.851
REMARK UNBOUND:                -0.866
REMARK  Name = 
REMARK  8 active torsions:
REMARK  status: ('A' for Active; 'I' for Inactive)
REMARK    1  A    between atoms: C_2  and  C_21
REMARK    2  A    between atoms: N_3  and  C_4
REMARK    3  A    between atoms: C_4  and  C_5
REMARK    4  A    between atoms: C_8  and  C_9
REMARK    5  A    between atoms: C_9  and  C_10
REMARK    6  A    between atoms: C_10  and  N_11
REMARK    7  A    between atoms: N_11  and  C_12
REMARK    8  A    between atoms: C_12  and  C_13
REMARK                            x       y       z     vdW  Elec       q    Type
REMARK                         _______ _______ _______ _____ _____    ______ ____
ROOT
ATOM      1  C   UNL     1      47.953   6.805  13.848  0.00  0.00    +0.000 A 
ATOM      2  C   UNL     1      47.709   5.651  14.600  0.00  0.00    +0.000 A 
ATOM      3  C   UNL     1      46.726   4.741  14.210  0.00  0.00    +0.000 A 
ATOM      4  C   UNL     1      45.960   4.967  13.058  0.00  0.00    +0.000 A 
ATOM      5  C   UNL     1      46.229   6.103  12.285  0.00  0.00    +0.000 A 
ATOM      6  C   UNL     1      47.222   7.010  12.670  0.00  0.00    +0.000 A 
ENDROOT
BRANCH   1   7
ATOM      7  C   UNL     1      49.013   7.782  14.289  0.00  0.00    +0.000 C 
BRANCH   7  10
ATOM      8  O   UNL     1      50.061   8.122  16.893  0.00  0.00    +0.000 OA
ATOM      9  C   UNL     1      50.562   7.283  16.147  0.00  0.00    +0.000 C 
ATOM     10  N   UNL     1      50.152   7.104  14.852  0.00  0.00    +0.000 N 
ATOM     11  H   UNL     1      50.463   6.282  14.349  0.00  0.00    +0.000 HD
BRANCH   9  12
ATOM     12  C   UNL     1      51.691   6.449  16.580  0.00  0.00    +0.000 A 
ATOM     13  C   UNL     1      52.987   6.942  16.510  0.00  0.00    +0.000 A 
ATOM     14  S   UNL     1      54.171   5.822  17.013  0.00  0.00    +0.000 S 
ATOM     15  C   UNL     1      52.989   4.657  17.393  0.00  0.00    +0.000 A 
ATOM     16  N   UNL     1      53.337   3.445  17.902  0.00  0.00    +0.000 NA
ATOM     17  C   UNL     1      52.337   2.679  18.186  0.00  0.00    +0.000 A 
ATOM     18  N   UNL     1      51.021   3.011  17.999  0.00  0.00    +0.000 N 
ATOM     19  C   UNL     1      50.627   4.190  17.416  0.00  0.00    +0.000 A 
ATOM     20  O   UNL     1      49.450   4.393  17.138  0.00  0.00    +0.000 OA
ATOM     21  C   UNL     1      51.710   5.108  17.118  0.00  0.00    +0.000 A 
ATOM     22  H   UNL     1      50.285   2.355  18.216  0.00  0.00    +0.000 HD
ENDBRANCH   9  12
ENDBRANCH   7  10
ENDBRANCH   1   7
BRANCH   4  23
ATOM     23  C   UNL     1      44.888   3.986  12.639  0.00  0.00    +0.000 C 
BRANCH  23  24
ATOM     24  C   UNL     1      44.765   3.850  11.113  0.00  0.00    +0.000 C 
BRANCH  24  25
ATOM     25  N   UNL     1      44.910   2.447  10.702  0.00  0.00    +0.000 NA
ATOM     26  H   UNL     1      44.297   1.866  11.278  0.00  0.00    +0.000 HD
BRANCH  25  27
ATOM     27  C   UNL     1      44.499   2.280   9.299  0.00  0.00    +0.000 C 
BRANCH  27  28
ATOM     28  C   UNL     1      45.672   2.257   8.346  0.00  0.00    +0.000 A 
ATOM     29  C   UNL     1      46.047   3.402   7.650  0.00  0.00    +0.000 A 
ATOM     30  N   UNL     1      47.074   3.423   6.760  0.00  0.00    +0.000 NA
ATOM     31  C   UNL     1      47.717   2.247   6.600  0.00  0.00    +0.000 A 
ATOM     32  C   UNL     1      47.358   1.104   7.291  0.00  0.00    +0.000 A 
ATOM     33  N   UNL     1      46.335   1.081   8.178  0.00  0.00    +0.000 NA
ENDBRANCH  27  28
ENDBRANCH  25  27
ENDBRANCH  24  25
ENDBRANCH  23  24
ENDBRANCH   4  23
TORSDOF 8
ENDMDL
