MODEL 1
REMARK VINA RESULT:    -7.853      0.000      0.000
REMARK INTER + INTRA:          -9.687
REMARK INTER:                  -9.689
REMARK INTRA:                   0.002
REMARK UNBOUND:                 0.002
REMARK  Name = 
REMARK  6 active torsions:
REMARK  status: ('A' for Active; 'I' for Inactive)
REMARK    1  A    between atoms: C_1  and  N_2
REMARK    2  A    between atoms: C_3  and  C_5
REMARK    3  A    between atoms: C_8  and  N_9
REMARK    4  A    between atoms: N_9  and  C_10
REMARK    5  A    between atoms: C_10  and  C_11
REMARK    6  A    between atoms: C_10  and  C_12
REMARK                            x       y       z     vdW  Elec       q    Type
REMARK                         _______ _______ _______ _____ _____    ______ ____
ROOT
ATOM      1  C   UNL     1      46.314   4.484  13.821  0.00  0.00    +0.000 A 
ATOM      2  C   UNL     1      45.578   5.514  13.254  0.00  0.00    +0.000 A 
ATOM      3  C   UNL     1      44.862   5.266  12.078  0.00  0.00    +0.000 A 
ATOM      4  C   UNL     1      44.888   4.004  11.484  0.00  0.00    +0.000 A 
ATOM      5  C   UNL     1      45.676   3.047  12.145  0.00  0.00    +0.000 A 
ATOM      6  N   UNL     1      46.378   3.234  13.294  0.00  0.00    +0.000 NA
ENDROOT
BRANCH   1   9
ATOM      7  C   UNL     1      47.348   4.194  17.456  0.00  0.00    +0.000 C 
ATOM      8  N   UNL     1      46.687   4.042  16.188  0.00  0.00    +0.000 N 
ATOM      9  C   UNL     1      47.107   4.730  15.071  0.00  0.00    +0.000 C 
ATOM     10  O   UNL     1      48.071   5.495  15.070  0.00  0.00    +0.000 OA
ATOM     11  H   UNL     1      45.942   3.362  16.059  0.00  0.00    +0.000 HD
ENDBRANCH   1   9
BRANCH   4  12
ATOM     12  N   UNL     1      44.333   3.710  10.238  0.00  0.00    +0.000 N 
ATOM     13  H   UNL     1      43.316   3.716  10.258  0.00  0.00    +0.000 HD
BRANCH  12  14
ATOM     14  C   UNL     1      44.860   4.249   8.977  0.00  0.00    +0.000 C 
ATOM     15  C   UNL     1      45.769   5.450   9.289  0.00  0.00    +0.000 C 
BRANCH  14  16
ATOM     16  C   UNL     1      45.656   3.184   8.230  0.00  0.00    +0.000 A 
ATOM     17  C   UNL     1      46.471   3.523   7.141  0.00  0.00    +0.000 A 
ATOM     18  C   UNL     1      47.233   2.544   6.492  0.00  0.00    +0.000 A 
ATOM     19  C   UNL     1      47.177   1.216   6.914  0.00  0.00    +0.000 A 
ATOM     20  C   UNL     1      46.363   0.863   7.985  0.00  0.00    +0.000 A 
ATOM     21  C   UNL     1      45.614   1.838   8.641  0.00  0.00    +0.000 A 
ENDBRANCH  14  16
ENDBRANCH  12  14
ENDBRANCH   4  12
TORSDOF 4
ENDMDL
MODEL 2
REMARK VINA RESULT:    -7.238      3.037      6.755
REMARK INTER + INTRA:          -8.928
REMARK INTER:                  -8.331
REMARK INTRA:                  -0.597
REMARK UNBOUND:                 0.002
REMARK  Name = 
REMARK  6 active torsions:
REMARK  status: ('A' for Active; 'I' for Inactive)
REMARK    1  A    between atoms: C_1  and  N_2
REMARK    2  A    between atoms: C_3  and  C_5
REMARK    3  A    between atoms: C_8  and  N_9
REMARK    4  A    between atoms: N_9  and  C_10
REMARK    5  A    between atoms: C_10  and  C_11
REMARK    6  A    between atoms: C_10  and  C_12
REMARK                            x       y       z     vdW  Elec       q    Type
REMARK                         _______ _______ _______ _____ _____    ______ ____
ROOT
ATOM      1  C   UNL     1      46.121   2.628   7.825  0.00  0.00    +0.000 A 
ATOM      2  C   UNL     1      45.576   1.733   8.734  0.00  0.00    +0.000 A 
ATOM      3  C   UNL     1      44.616   2.192   9.642  0.00  0.00    +0.000 A 
ATOM      4  C   UNL     1      44.211   3.527   9.634  0.00  0.00    +0.000 A 
ATOM      5  C   UNL     1      44.841   4.338   8.675  0.00  0.00    +0.000 A 
ATOM      6  N   UNL     1      45.769   3.938   7.764  0.00  0.00    +0.000 NA
ENDROOT
BRANCH   1   9
ATOM      7  C   UNL     1      48.159   2.498   4.631  0.00  0.00    +0.000 C 
ATOM      8  N   UNL     1      47.212   2.845   5.657  0.00  0.00    +0.000 N 
ATOM      9  C   UNL     1      47.169   2.166   6.855  0.00  0.00    +0.000 C 
ATOM     10  O   UNL     1      47.933   1.244   7.138  0.00  0.00    +0.000 OA
ATOM     11  H   UNL     1      46.602   3.653   5.561  0.00  0.00    +0.000 HD
ENDBRANCH   1   9
BRANCH   4  12
ATOM     12  N   UNL     1      43.379   4.102  10.595  0.00  0.00    +0.000 N 
ATOM     13  H   UNL     1      43.155   3.455  11.347  0.00  0.00    +0.000 HD
BRANCH  12  14
ATOM     14  C   UNL     1      43.548   5.477  11.085  0.00  0.00    +0.000 C 
ATOM     15  C   UNL     1      42.324   5.858  11.935  0.00  0.00    +0.000 C 
BRANCH  14  16
ATOM     16  C   UNL     1      44.814   5.593  11.927  0.00  0.00    +0.000 A 
ATOM     17  C   UNL     1      45.002   4.794  13.063  0.00  0.00    +0.000 A 
ATOM     18  C   UNL     1      46.188   4.876  13.801  0.00  0.00    +0.000 A 
ATOM     19  C   UNL     1      47.192   5.767  13.422  0.00  0.00    +0.000 A 
ATOM     20  C   UNL     1      47.015   6.576  12.304  0.00  0.00    +0.000 A 
ATOM     21  C   UNL     1      45.840   6.486  11.560  0.00  0.00    +0.000 A 
ENDBRANCH  14  16
ENDBRANCH  12  14
ENDBRANCH   4  12
TORSDOF 4
ENDMDL
MODEL 3
REMARK VINA RESULT:    -7.200      1.934      2.221
REMARK INTER + INTRA:          -8.882
REMARK INTER:                  -9.304
REMARK INTRA:                   0.423
REMARK UNBOUND:                 0.002
REMARK  Name = 
REMARK  6 active torsions:
REMARK  status: ('A' for Active; 'I' for Inactive)
REMARK    1  A    between atoms: C_1  and  N_2
REMARK    2  A    between atoms: C_3  and  C_5
REMARK    3  A    between atoms: C_8  and  N_9
REMARK    4  A    between atoms: N_9  and  C_10
REMARK    5  A    between atoms: C_10  and  C_11
REMARK    6  A    between atoms: C_10  and  C_12
REMARK                            x       y       z     vdW  Elec       q    Type
REMARK                         _______ _______ _______ _____ _____    ______ ____
ROOT
ATOM      1  C   UNL     1      47.244   5.831  13.443  0.00  0.00    +0.000 A 
ATOM      2  C   UNL     1      46.375   6.236  12.440  0.00  0.00    +0.000 A 
ATOM      3  C   UNL     1      45.548   5.281  11.838  0.00  0.00    +0.000 A 
ATOM      4  C   UNL     1      45.594   3.946  12.240  0.00  0.00    +0.000 A 
ATOM      5  C   UNL     1      46.520   3.658  13.256  0.00  0.00    +0.000 A 
ATOM      6  N   UNL     1      47.336   4.549  13.880  0.00  0.00    +0.000 NA
ENDROOT
BRANCH   1   9
ATOM      7  C   UNL     1      48.308   9.022  15.192  0.00  0.00    +0.000 C 
ATOM      8  N   UNL     1      47.550   7.974  14.561  0.00  0.00    +0.000 N 
ATOM      9  C   UNL     1      48.158   6.831  14.089  0.00  0.00    +0.000 C 
ATOM     10  O   UNL     1      49.366   6.617  14.187  0.00  0.00    +0.000 OA
ATOM     11  H   UNL     1      46.535   8.010  14.518  0.00  0.00    +0.000 HD
ENDBRANCH   1   9
BRANCH   4  12
ATOM     12  N   UNL     1      44.920   2.908  11.595  0.00  0.00    +0.000 N 
ATOM     13  H   UNL     1      44.407   2.319  12.247  0.00  0.00    +0.000 HD
BRANCH  12  14
ATOM     14  C   UNL     1      44.197   3.084  10.328  0.00  0.00    +0.000 C 
ATOM     15  C   UNL     1      43.539   4.475  10.319  0.00  0.00    +0.000 C 
BRANCH  14  16
ATOM     16  C   UNL     1      45.151   2.959   9.145  0.00  0.00    +0.000 A 
ATOM     17  C   UNL     1      45.559   4.090   8.424  0.00  0.00    +0.000 A 
ATOM     18  C   UNL     1      46.471   3.968   7.369  0.00  0.00    +0.000 A 
ATOM     19  C   UNL     1      46.974   2.717   7.015  0.00  0.00    +0.000 A 
ATOM     20  C   UNL     1      46.569   1.584   7.714  0.00  0.00    +0.000 A 
ATOM     21  C   UNL     1      45.671   1.705   8.773  0.00  0.00    +0.000 A 
ENDBRANCH  14  16
ENDBRANCH  12  14
ENDBRANCH   4  12
TORSDOF 4
ENDMDL
MODEL 4
REMARK VINA RESULT:    -7.060      1.558      2.145
REMARK INTER + INTRA:          -8.710
REMARK INTER:                  -8.227
REMARK INTRA:                  -0.483
REMARK UNBOUND:                 0.002
REMARK  Name = 
REMARK  6 active torsions:
REMARK  status: ('A' for Active; 'I' for Inactive)
REMARK    1  A    between atoms: C_1  and  N_2
REMARK    2  A    between atoms: C_3  and  C_5
REMARK    3  A    between atoms: C_8  and  N_9
REMARK    4  A    between atoms: N_9  and  C_10
REMARK    5  A    between atoms: C_10  and  C_11
REMARK    6  A    between atoms: C_10  and  C_12
REMARK                            x       y       z     vdW  Elec       q    Type
REMARK                         _______ _______ _______ _____ _____    ______ ____
ROOT
ATOM      1  C   UNL     1      47.516   5.189  15.119  0.00  0.00    +0.000 A 
ATOM      2  C   UNL     1      47.894   6.236  14.291  0.00  0.00    +0.000 A 
ATOM      3  C   UNL     1      47.237   6.401  13.067  0.00  0.00    +0.000 A 
ATOM      4  C   UNL     1      46.218   5.529  12.684  0.00  0.00    +0.000 A 
ATOM      5  C   UNL     1      45.932   4.503  13.600  0.00  0.00    +0.000 A 
ATOM      6  N   UNL     1      46.532   4.308  14.805  0.00  0.00    +0.000 NA
ENDROOT
BRANCH   1   9
ATOM      7  C   UNL     1      48.549   5.824  18.710  0.00  0.00    +0.000 C 
ATOM      8  N   UNL     1      47.935   5.900  17.411  0.00  0.00    +0.000 N 
ATOM      9  C   UNL     1      48.219   4.978  16.427  0.00  0.00    +0.000 C 
ATOM     10  O   UNL     1      48.989   4.030  16.589  0.00  0.00    +0.000 OA
ATOM     11  H   UNL     1      47.213   6.586  17.207  0.00  0.00    +0.000 HD
ENDBRANCH   1   9
BRANCH   4  12
ATOM     12  N   UNL     1      45.618   5.526  11.424  0.00  0.00    +0.000 N 
ATOM     13  H   UNL     1      46.264   5.802  10.689  0.00  0.00    +0.000 HD
BRANCH  12  14
ATOM     14  C   UNL     1      44.696   4.472  10.977  0.00  0.00    +0.000 C 
ATOM     15  C   UNL     1      43.317   5.099  10.707  0.00  0.00    +0.000 C 
BRANCH  14  16
ATOM     16  C   UNL     1      45.216   3.809   9.707  0.00  0.00    +0.000 A 
ATOM     17  C   UNL     1      45.757   4.573   8.662  0.00  0.00    +0.000 A 
ATOM     18  C   UNL     1      46.275   3.949   7.521  0.00  0.00    +0.000 A 
ATOM     19  C   UNL     1      46.244   2.560   7.404  0.00  0.00    +0.000 A 
ATOM     20  C   UNL     1      45.700   1.790   8.426  0.00  0.00    +0.000 A 
ATOM     21  C   UNL     1      45.197   2.408   9.569  0.00  0.00    +0.000 A 
ENDBRANCH  14  16
ENDBRANCH  12  14
ENDBRANCH   4  12
TORSDOF 4
ENDMDL
MODEL 5
REMARK VINA RESULT:    -6.970      3.096      6.535
REMARK INTER + INTRA:          -8.598
REMARK INTER:                  -8.036
REMARK INTRA:                  -0.562
REMARK UNBOUND:                 0.002
REMARK  Name = 
REMARK  6 active torsions:
REMARK  status: ('A' for Active; 'I' for Inactive)
REMARK    1  A    between atoms: C_1  and  N_2
REMARK    2  A    between atoms: C_3  and  C_5
REMARK    3  A    between atoms: C_8  and  N_9
REMARK    4  A    between atoms: N_9  and  C_10
REMARK    5  A    between atoms: C_10  and  C_11
REMARK    6  A    between atoms: C_10  and  C_12
REMARK                            x       y       z     vdW  Elec       q    Type
REMARK                         _______ _______ _______ _____ _____    ______ ____
ROOT
ATOM      1  C   UNL     1      45.757   2.871   8.435  0.00  0.00    +0.000 A 
ATOM      2  C   UNL     1      45.802   4.258   8.449  0.00  0.00    +0.000 A 
ATOM      3  C   UNL     1      44.967   4.951   9.332  0.00  0.00    +0.000 A 
ATOM      4  C   UNL     1      44.105   4.262  10.185  0.00  0.00    +0.000 A 
ATOM      5  C   UNL     1      44.143   2.862  10.071  0.00  0.00    +0.000 A 
ATOM      6  N   UNL     1      44.943   2.142   9.240  0.00  0.00    +0.000 NA
ENDROOT
BRANCH   1   9
ATOM      7  C   UNL     1      48.000   2.225   5.448  0.00  0.00    +0.000 C 
ATOM      8  N   UNL     1      47.159   2.836   6.442  0.00  0.00    +0.000 N 
ATOM      9  C   UNL     1      46.627   2.105   7.482  0.00  0.00    +0.000 C 
ATOM     10  O   UNL     1      46.843   0.904   7.644  0.00  0.00    +0.000 OA
ATOM     11  H   UNL     1      46.998   3.840   6.453  0.00  0.00    +0.000 HD
ENDBRANCH   1   9
BRANCH   4  12
ATOM     12  N   UNL     1      43.136   4.870  10.983  0.00  0.00    +0.000 N 
ATOM     13  H   UNL     1      42.208   4.487  10.821  0.00  0.00    +0.000 HD
BRANCH  12  14
ATOM     14  C   UNL     1      43.353   5.202  12.398  0.00  0.00    +0.000 C 
ATOM     15  C   UNL     1      43.263   3.913  13.232  0.00  0.00    +0.000 C 
BRANCH  14  16
ATOM     16  C   UNL     1      44.722   5.845  12.593  0.00  0.00    +0.000 A 
ATOM     17  C   UNL     1      44.952   7.179  12.229  0.00  0.00    +0.000 A 
ATOM     18  C   UNL     1      46.199   7.772  12.456  0.00  0.00    +0.000 A 
ATOM     19  C   UNL     1      47.233   7.036  13.034  0.00  0.00    +0.000 A 
ATOM     20  C   UNL     1      47.023   5.708  13.390  0.00  0.00    +0.000 A 
ATOM     21  C   UNL     1      45.778   5.119  13.178  0.00  0.00    +0.000 A 
ENDBRANCH  14  16
ENDBRANCH  12  14
ENDBRANCH   4  12
TORSDOF 4
ENDMDL
MODEL 6
REMARK VINA RESULT:    -6.569      2.554      3.231
REMARK INTER + INTRA:          -8.103
REMARK INTER:                  -7.564
REMARK INTRA:                  -0.539
REMARK UNBOUND:                 0.002
REMARK  Name = 
REMARK  6 active torsions:
REMARK  status: ('A' for Active; 'I' for Inactive)
REMARK    1  A    between atoms: C_1  and  N_2
REMARK    2  A    between atoms: C_3  and  C_5
REMARK    3  A    between atoms: C_8  and  N_9
REMARK    4  A    between atoms: N_9  and  C_10
REMARK    5  A    between atoms: C_10  and  C_11
REMARK    6  A    between atoms: C_10  and  C_12
REMARK                            x       y       z     vdW  Elec       q    Type
REMARK                         _______ _______ _______ _____ _____    ______ ____
ROOT
ATOM      1  C   UNL     1      48.293   6.611  14.115  0.00  0.00    +0.000 A 
ATOM      2  C   UNL     1      48.038   7.686  13.275  0.00  0.00    +0.000 A 
ATOM      3  C   UNL     1      47.000   7.584  12.343  0.00  0.00    +0.000 A 
ATOM      4  C   UNL     1      46.234   6.422  12.257  0.00  0.00    +0.000 A 
ATOM      5  C   UNL     1      46.593   5.400  13.152  0.00  0.00    +0.000 A 
ATOM      6  N   UNL     1      47.583   5.455  14.083  0.00  0.00    +0.000 NA
ENDROOT
BRANCH   1   9
ATOM      7  C   UNL     1      51.673   7.548  15.553  0.00  0.00    +0.000 C 
ATOM      8  N   UNL     1      50.520   7.405  14.705  0.00  0.00    +0.000 N 
ATOM      9  C   UNL     1      49.415   6.687  15.109  0.00  0.00    +0.000 C 
ATOM     10  O   UNL     1      49.326   6.144  16.209  0.00  0.00    +0.000 OA
ATOM     11  H   UNL     1      50.453   7.895  13.816  0.00  0.00    +0.000 HD
ENDBRANCH   1   9
BRANCH   4  12
ATOM     12  N   UNL     1      45.286   6.177  11.262  0.00  0.00    +0.000 N 
ATOM     13  H   UNL     1      45.595   6.500  10.349  0.00  0.00    +0.000 HD
BRANCH  12  14
ATOM     14  C   UNL     1      44.523   4.924  11.172  0.00  0.00    +0.000 C 
ATOM     15  C   UNL     1      43.031   5.261  11.007  0.00  0.00    +0.000 C 
BRANCH  14  16
ATOM     16  C   UNL     1      44.996   4.093   9.985  0.00  0.00    +0.000 A 
ATOM     17  C   UNL     1      44.755   2.713   9.928  0.00  0.00    +0.000 A 
ATOM     18  C   UNL     1      45.153   1.968   8.812  0.00  0.00    +0.000 A 
ATOM     19  C   UNL     1      45.807   2.589   7.749  0.00  0.00    +0.000 A 
ATOM     20  C   UNL     1      46.064   3.956   7.797  0.00  0.00    +0.000 A 
ATOM     21  C   UNL     1      45.657   4.702   8.901  0.00  0.00    +0.000 A 
ENDBRANCH  14  16
ENDBRANCH  12  14
ENDBRANCH   4  12
TORSDOF 4
ENDMDL
MODEL 7
REMARK VINA RESULT:    -6.371      2.067      3.400
REMARK INTER + INTRA:          -7.859
REMARK INTER:                  -7.306
REMARK INTRA:                  -0.554
REMARK UNBOUND:                 0.002
REMARK  Name = 
REMARK  6 active torsions:
REMARK  status: ('A' for Active; 'I' for Inactive)
REMARK    1  A    between atoms: C_1  and  N_2
REMARK    2  A    between atoms: C_3  and  C_5
REMARK    3  A    between atoms: C_8  and  N_9
REMARK    4  A    between atoms: N_9  and  C_10
REMARK    5  A    between atoms: C_10  and  C_11
REMARK    6  A    between atoms: C_10  and  C_12
REMARK                            x       y       z     vdW  Elec       q    Type
REMARK                         _______ _______ _______ _____ _____    ______ ____
ROOT
ATOM      1  C   UNL     1      48.247   5.409  15.991  0.00  0.00    +0.000 A 
ATOM      2  C   UNL     1      47.264   4.499  15.629  0.00  0.00    +0.000 A 
ATOM      3  C   UNL     1      46.721   4.567  14.342  0.00  0.00    +0.000 A 
ATOM      4  C   UNL     1      47.160   5.534  13.436  0.00  0.00    +0.000 A 
ATOM      5  C   UNL     1      48.150   6.404  13.921  0.00  0.00    +0.000 A 
ATOM      6  N   UNL     1      48.718   6.371  15.157  0.00  0.00    +0.000 NA
ENDROOT
BRANCH   1   9
ATOM      7  C   UNL     1      48.711   4.325  19.594  0.00  0.00    +0.000 C 
ATOM      8  N   UNL     1      48.258   4.460  18.235  0.00  0.00    +0.000 N 
ATOM      9  C   UNL     1      48.830   5.370  17.373  0.00  0.00    +0.000 C 
ATOM     10  O   UNL     1      49.764   6.107  17.690  0.00  0.00    +0.000 OA
ATOM     11  H   UNL     1      47.559   3.832  17.847  0.00  0.00    +0.000 HD
ENDBRANCH   1   9
BRANCH   4  12
ATOM     12  N   UNL     1      46.571   5.771  12.193  0.00  0.00    +0.000 N 
ATOM     13  H   UNL     1      47.184   5.520  11.422  0.00  0.00    +0.000 HD
BRANCH  12  14
ATOM     14  C   UNL     1      45.164   5.463  11.899  0.00  0.00    +0.000 C 
ATOM     15  C   UNL     1      44.422   6.773  11.585  0.00  0.00    +0.000 C 
BRANCH  14  16
ATOM     16  C   UNL     1      45.061   4.516  10.709  0.00  0.00    +0.000 A 
ATOM     17  C   UNL     1      44.566   3.214  10.862  0.00  0.00    +0.000 A 
ATOM     18  C   UNL     1      44.431   2.370   9.754  0.00  0.00    +0.000 A 
ATOM     19  C   UNL     1      44.804   2.811   8.485  0.00  0.00    +0.000 A 
ATOM     20  C   UNL     1      45.309   4.097   8.319  0.00  0.00    +0.000 A 
ATOM     21  C   UNL     1      45.430   4.944   9.419  0.00  0.00    +0.000 A 
ENDBRANCH  14  16
ENDBRANCH  12  14
ENDBRANCH   4  12
TORSDOF 4
ENDMDL
MODEL 8
REMARK VINA RESULT:    -5.866      3.860      6.575
REMARK INTER + INTRA:          -7.236
REMARK INTER:                  -6.787
REMARK INTRA:                  -0.449
REMARK UNBOUND:                 0.002
REMARK  Name = 
REMARK  6 active torsions:
REMARK  status: ('A' for Active; 'I' for Inactive)
REMARK    1  A    between atoms: C_1  and  N_2
REMARK    2  A    between atoms: C_3  and  C_5
REMARK    3  A    between atoms: C_8  and  N_9
REMARK    4  A    between atoms: N_9  and  C_10
REMARK    5  A    between atoms: C_10  and  C_11
REMARK    6  A    between atoms: C_10  and  C_12
REMARK                            x       y       z     vdW  Elec       q    Type
REMARK                         _______ _______ _______ _____ _____    ______ ____
ROOT
ATOM      1  C   UNL     1      45.059   4.428  11.356  0.00  0.00    +0.000 A 
ATOM      2  C   UNL     1      45.501   5.535  10.646  0.00  0.00    +0.000 A 
ATOM      3  C   UNL     1      46.034   6.620  11.349  0.00  0.00    +0.000 A 
ATOM      4  C   UNL     1      46.121   6.591  12.741  0.00  0.00    +0.000 A 
ATOM      5  C   UNL     1      45.632   5.422  13.348  0.00  0.00    +0.000 A 
ATOM      6  N   UNL     1      45.117   4.337  12.709  0.00  0.00    +0.000 NA
ENDROOT
BRANCH   1   9
ATOM      7  C   UNL     1      44.791   1.608   8.836  0.00  0.00    +0.000 C 
ATOM      8  N   UNL     1      45.243   2.723   9.625  0.00  0.00    +0.000 N 
ATOM      9  C   UNL     1      44.463   3.260  10.626  0.00  0.00    +0.000 C 
ATOM     10  O   UNL     1      43.353   2.823  10.927  0.00  0.00    +0.000 OA
ATOM     11  H   UNL     1      46.184   3.096   9.522  0.00  0.00    +0.000 HD
ENDBRANCH   1   9
BRANCH   4  12
ATOM     12  N   UNL     1      46.494   7.681  13.529  0.00  0.00    +0.000 N 
ATOM     13  H   UNL     1      45.795   7.905  14.233  0.00  0.00    +0.000 HD
BRANCH  12  14
ATOM     14  C   UNL     1      47.861   7.879  14.031  0.00  0.00    +0.000 C 
ATOM     15  C   UNL     1      48.401   6.535  14.550  0.00  0.00    +0.000 C 
BRANCH  14  16
ATOM     16  C   UNL     1      48.768   8.403  12.923  0.00  0.00    +0.000 A 
ATOM     17  C   UNL     1      48.658   9.723  12.464  0.00  0.00    +0.000 A 
ATOM     18  C   UNL     1      49.527  10.207  11.480  0.00  0.00    +0.000 A 
ATOM     19  C   UNL     1      50.503   9.375  10.933  0.00  0.00    +0.000 A 
ATOM     20  C   UNL     1      50.616   8.059  11.369  0.00  0.00    +0.000 A 
ATOM     21  C   UNL     1      49.761   7.579  12.359  0.00  0.00    +0.000 A 
ENDBRANCH  14  16
ENDBRANCH  12  14
ENDBRANCH   4  12
TORSDOF 4
ENDMDL
MODEL 9
REMARK VINA RESULT:    -5.575      3.447      8.548
REMARK INTER + INTRA:          -6.877
REMARK INTER:                  -6.369
REMARK INTRA:                  -0.508
REMARK UNBOUND:                 0.002
REMARK  Name = 
REMARK  6 active torsions:
REMARK  status: ('A' for Active; 'I' for Inactive)
REMARK    1  A    between atoms: C_1  and  N_2
REMARK    2  A    between atoms: C_3  and  C_5
REMARK    3  A    between atoms: C_8  and  N_9
REMARK    4  A    between atoms: N_9  and  C_10
REMARK    5  A    between atoms: C_10  and  C_11
REMARK    6  A    between atoms: C_10  and  C_12
REMARK                            x       y       z     vdW  Elec       q    Type
REMARK                         _______ _______ _______ _____ _____    ______ ____
ROOT
ATOM      1  C   UNL     1      46.077   4.727  12.955  0.00  0.00    +0.000 A 
ATOM      2  C   UNL     1      46.697   5.919  12.609  0.00  0.00    +0.000 A 
ATOM      3  C   UNL     1      47.580   6.511  13.519  0.00  0.00    +0.000 A 
ATOM      4  C   UNL     1      47.834   5.913  14.753  0.00  0.00    +0.000 A 
ATOM      5  C   UNL     1      47.139   4.716  14.993  0.00  0.00    +0.000 A 
ATOM      6  N   UNL     1      46.283   4.095  14.138  0.00  0.00    +0.000 NA
ENDROOT
BRANCH   1   9
ATOM      7  C   UNL     1      43.396   2.344  11.728  0.00  0.00    +0.000 C 
ATOM      8  N   UNL     1      44.354   3.057  12.530  0.00  0.00    +0.000 N 
ATOM      9  C   UNL     1      45.109   4.084  12.005  0.00  0.00    +0.000 C 
ATOM     10  O   UNL     1      45.009   4.471  10.841  0.00  0.00    +0.000 OA
ATOM     11  H   UNL     1      44.445   2.880  13.527  0.00  0.00    +0.000 HD
ENDBRANCH   1   9
BRANCH   4  12
ATOM     12  N   UNL     1      48.575   6.506  15.776  0.00  0.00    +0.000 N 
ATOM     13  H   UNL     1      48.092   7.297  16.193  0.00  0.00    +0.000 HD
BRANCH  12  14
ATOM     14  C   UNL     1      49.326   5.733  16.776  0.00  0.00    +0.000 C 
ATOM     15  C   UNL     1      50.792   6.199  16.769  0.00  0.00    +0.000 C 
BRANCH  14  16
ATOM     16  C   UNL     1      48.730   5.932  18.165  0.00  0.00    +0.000 A 
ATOM     17  C   UNL     1      48.774   4.910  19.123  0.00  0.00    +0.000 A 
ATOM     18  C   UNL     1      48.266   5.120  20.410  0.00  0.00    +0.000 A 
ATOM     19  C   UNL     1      47.695   6.346  20.749  0.00  0.00    +0.000 A 
ATOM     20  C   UNL     1      47.633   7.366  19.804  0.00  0.00    +0.000 A 
ATOM     21  C   UNL     1      48.151   7.163  18.527  0.00  0.00    +0.000 A 
ENDBRANCH  14  16
ENDBRANCH  12  14
ENDBRANCH   4  12
TORSDOF 4
ENDMDL
