MODEL 1
REMARK VINA RESULT:    -8.402      0.000      0.000
REMARK INTER + INTRA:         -12.147
REMARK INTER:                 -11.349
REMARK INTRA:                  -0.798
REMARK UNBOUND:                -0.798
REMARK  Name = 
REMARK  7 active torsions:
REMARK  status: ('A' for Active; 'I' for Inactive)
REMARK    1  A    between atoms: C_1  and  C_2
REMARK    2  A    between atoms: C_4  and  C_5
REMARK    3  A    between atoms: C_10  and  N_11
REMARK    4  A    between atoms: N_11  and  C_12
REMARK    5  A    between atoms: C_12  and  C_13
REMARK    6  A    between atoms: C_16  and  O_17
REMARK    7  A    between atoms: O_17  and  C_18
REMARK                            x       y       z     vdW  Elec       q    Type
REMARK                         _______ _______ _______ _____ _____    ______ ____
ROOT
ATOM      1  N   UNL     1      43.839   4.881   9.775  0.00  0.00    +0.000 N 
ATOM      2  H   UNL     1      42.929   4.858   9.334  0.00  0.00    +0.000 HD
ENDROOT
BRANCH   1   9
ATOM      3  C   UNL     1      43.946   1.993  10.099  0.00  0.00    +0.000 C 
ATOM      4  C   UNL     1      44.893   2.762   9.222  0.00  0.00    +0.000 A 
ATOM      5  C   UNL     1      45.871   2.045   8.510  0.00  0.00    +0.000 A 
ATOM      6  C   UNL     1      46.735   2.699   7.635  0.00  0.00    +0.000 A 
ATOM      7  C   UNL     1      46.562   4.064   7.503  0.00  0.00    +0.000 A 
ATOM      8  N   UNL     1      45.638   4.793   8.191  0.00  0.00    +0.000 NA
ATOM      9  C   UNL     1      44.823   4.156   9.066  0.00  0.00    +0.000 A 
BRANCH   6  10
ATOM     10  C   UNL     1      47.761   1.896   6.923  0.00  0.00    +0.000 C 
ATOM     11  N   UNL     1      48.730   2.530   6.200  0.00  0.00    +0.000 N 
ATOM     12  O   UNL     1      47.759   0.671   6.983  0.00  0.00    +0.000 OA
ATOM     13  H   UNL     1      48.838   3.525   6.089  0.00  0.00    +0.000 HD
ATOM     14  H   UNL     1      49.415   1.931   5.753  0.00  0.00    +0.000 HD
ENDBRANCH   6  10
ENDBRANCH   1   9
BRANCH   1  15
ATOM     15  C   UNL     1      43.866   5.035  11.240  0.00  0.00    +0.000 C 
ATOM     16  C   UNL     1      42.864   4.310  12.121  0.00  0.00    +0.000 C 
ATOM     17  C   UNL     1      42.725   5.781  11.933  0.00  0.00    +0.000 C 
BRANCH  15  18
ATOM     18  C   UNL     1      45.252   5.368  11.775  0.00  0.00    +0.000 A 
ATOM     19  C   UNL     1      45.980   6.471  11.283  0.00  0.00    +0.000 A 
ATOM     20  C   UNL     1      47.232   6.820  11.813  0.00  0.00    +0.000 A 
ATOM     21  C   UNL     1      47.765   6.088  12.864  0.00  0.00    +0.000 A 
ATOM     22  C   UNL     1      47.090   4.952  13.316  0.00  0.00    +0.000 A 
ATOM     23  C   UNL     1      45.852   4.596  12.775  0.00  0.00    +0.000 A 
BRANCH  21  24
ATOM     24  O   UNL     1      48.943   6.330  13.500  0.00  0.00    +0.000 OA
BRANCH  24  25
ATOM     25  C   UNL     1      48.935   6.980  14.764  0.00  0.00    +0.000 C 
ATOM     26  F   UNL     1      48.779   6.153  15.817  0.00  0.00    +0.000 F 
ATOM     27  F   UNL     1      50.116   7.625  14.917  0.00  0.00    +0.000 F 
ATOM     28  F   UNL     1      47.950   7.903  14.782  0.00  0.00    +0.000 F 
ENDBRANCH  24  25
ENDBRANCH  21  24
ENDBRANCH  15  18
ENDBRANCH   1  15
TORSDOF 6
ENDMDL
MODEL 2
REMARK VINA RESULT:    -7.644      1.758      2.434
REMARK INTER + INTRA:         -11.123
REMARK INTER:                 -10.909
REMARK INTRA:                  -0.214
REMARK UNBOUND:                -0.798
REMARK  Name = 
REMARK  7 active torsions:
REMARK  status: ('A' for Active; 'I' for Inactive)
REMARK    1  A    between atoms: C_1  and  C_2
REMARK    2  A    between atoms: C_4  and  C_5
REMARK    3  A    between atoms: C_10  and  N_11
REMARK    4  A    between atoms: N_11  and  C_12
REMARK    5  A    between atoms: C_12  and  C_13
REMARK    6  A    between atoms: C_16  and  O_17
REMARK    7  A    between atoms: O_17  and  C_18
REMARK                            x       y       z     vdW  Elec       q    Type
REMARK                         _______ _______ _______ _____ _____    ______ ____
ROOT
ATOM      1  N   UNL     1      44.259   5.008  10.055  0.00  0.00    +0.000 N 
ATOM      2  H   UNL     1      43.390   4.514  10.207  0.00  0.00    +0.000 HD
ENDROOT
BRANCH   1   9
ATOM      3  C   UNL     1      44.055   2.118   9.797  0.00  0.00    +0.000 C 
ATOM      4  C   UNL     1      45.051   2.947   9.038  0.00  0.00    +0.000 A 
ATOM      5  C   UNL     1      45.919   2.293   8.146  0.00  0.00    +0.000 A 
ATOM      6  C   UNL     1      46.820   3.018   7.371  0.00  0.00    +0.000 A 
ATOM      7  C   UNL     1      46.797   4.392   7.521  0.00  0.00    +0.000 A 
ATOM      8  N   UNL     1      45.983   5.058   8.388  0.00  0.00    +0.000 NA
ATOM      9  C   UNL     1      45.132   4.344   9.164  0.00  0.00    +0.000 A 
BRANCH   6  10
ATOM     10  C   UNL     1      47.726   2.274   6.459  0.00  0.00    +0.000 C 
ATOM     11  N   UNL     1      48.021   2.795   5.231  0.00  0.00    +0.000 N 
ATOM     12  O   UNL     1      48.224   1.205   6.795  0.00  0.00    +0.000 OA
ATOM     13  H   UNL     1      47.684   3.666   4.854  0.00  0.00    +0.000 HD
ATOM     14  H   UNL     1      48.662   2.254   4.661  0.00  0.00    +0.000 HD
ENDBRANCH   6  10
ENDBRANCH   1   9
BRANCH   1  15
ATOM     15  C   UNL     1      44.743   5.859  11.156  0.00  0.00    +0.000 C 
ATOM     16  C   UNL     1      43.950   7.070  11.616  0.00  0.00    +0.000 C 
ATOM     17  C   UNL     1      45.208   7.284  10.848  0.00  0.00    +0.000 C 
BRANCH  15  18
ATOM     18  C   UNL     1      45.627   5.107  12.141  0.00  0.00    +0.000 A 
ATOM     19  C   UNL     1      46.680   5.754  12.820  0.00  0.00    +0.000 A 
ATOM     20  C   UNL     1      47.461   5.082  13.774  0.00  0.00    +0.000 A 
ATOM     21  C   UNL     1      47.183   3.760  14.086  0.00  0.00    +0.000 A 
ATOM     22  C   UNL     1      46.190   3.085  13.374  0.00  0.00    +0.000 A 
ATOM     23  C   UNL     1      45.425   3.749  12.412  0.00  0.00    +0.000 A 
BRANCH  21  24
ATOM     24  O   UNL     1      47.826   2.997  15.011  0.00  0.00    +0.000 OA
BRANCH  24  25
ATOM     25  C   UNL     1      47.859   3.421  16.366  0.00  0.00    +0.000 C 
ATOM     26  F   UNL     1      48.662   4.477  16.602  0.00  0.00    +0.000 F 
ATOM     27  F   UNL     1      46.603   3.768  16.734  0.00  0.00    +0.000 F 
ATOM     28  F   UNL     1      48.252   2.390  17.145  0.00  0.00    +0.000 F 
ENDBRANCH  24  25
ENDBRANCH  21  24
ENDBRANCH  15  18
ENDBRANCH   1  15
TORSDOF 6
ENDMDL
MODEL 3
REMARK VINA RESULT:    -7.446      4.401      7.198
REMARK INTER + INTRA:         -10.855
REMARK INTER:                 -10.057
REMARK INTRA:                  -0.798
REMARK UNBOUND:                -0.798
REMARK  Name = 
REMARK  7 active torsions:
REMARK  status: ('A' for Active; 'I' for Inactive)
REMARK    1  A    between atoms: C_1  and  C_2
REMARK    2  A    between atoms: C_4  and  C_5
REMARK    3  A    between atoms: C_10  and  N_11
REMARK    4  A    between atoms: N_11  and  C_12
REMARK    5  A    between atoms: C_12  and  C_13
REMARK    6  A    between atoms: C_16  and  O_17
REMARK    7  A    between atoms: O_17  and  C_18
REMARK                            x       y       z     vdW  Elec       q    Type
REMARK                         _______ _______ _______ _____ _____    ______ ____
ROOT
ATOM      1  N   UNL     1      45.910   4.168  13.390  0.00  0.00    +0.000 N 
ATOM      2  H   UNL     1      45.728   3.482  14.110  0.00  0.00    +0.000 HD
ENDROOT
BRANCH   1   9
ATOM      3  C   UNL     1      47.020   4.069  16.077  0.00  0.00    +0.000 C 
ATOM      4  C   UNL     1      47.457   5.062  15.039  0.00  0.00    +0.000 A 
ATOM      5  C   UNL     1      48.466   5.980  15.379  0.00  0.00    +0.000 A 
ATOM      6  C   UNL     1      48.954   6.883  14.437  0.00  0.00    +0.000 A 
ATOM      7  C   UNL     1      48.405   6.808  13.170  0.00  0.00    +0.000 A 
ATOM      8  N   UNL     1      47.414   5.944  12.810  0.00  0.00    +0.000 NA
ATOM      9  C   UNL     1      46.920   5.092  13.740  0.00  0.00    +0.000 A 
BRANCH   6  10
ATOM     10  C   UNL     1      50.006   7.842  14.856  0.00  0.00    +0.000 C 
ATOM     11  N   UNL     1      51.289   7.668  14.421  0.00  0.00    +0.000 N 
ATOM     12  O   UNL     1      49.740   8.798  15.578  0.00  0.00    +0.000 OA
ATOM     13  H   UNL     1      51.620   6.933  13.818  0.00  0.00    +0.000 HD
ATOM     14  H   UNL     1      51.960   8.367  14.721  0.00  0.00    +0.000 HD
ENDBRANCH   6  10
ENDBRANCH   1   9
BRANCH   1  15
ATOM     15  C   UNL     1      44.787   4.517  12.502  0.00  0.00    +0.000 C 
ATOM     16  C   UNL     1      43.853   5.667  12.838  0.00  0.00    +0.000 C 
ATOM     17  C   UNL     1      43.355   4.271  12.981  0.00  0.00    +0.000 C 
BRANCH  15  18
ATOM     18  C   UNL     1      45.040   4.138  11.050  0.00  0.00    +0.000 A 
ATOM     19  C   UNL     1      44.870   2.813  10.600  0.00  0.00    +0.000 A 
ATOM     20  C   UNL     1      45.043   2.468   9.250  0.00  0.00    +0.000 A 
ATOM     21  C   UNL     1      45.360   3.449   8.322  0.00  0.00    +0.000 A 
ATOM     22  C   UNL     1      45.599   4.752   8.762  0.00  0.00    +0.000 A 
ATOM     23  C   UNL     1      45.445   5.090  10.109  0.00  0.00    +0.000 A 
BRANCH  21  24
ATOM     24  O   UNL     1      45.521   3.270   6.983  0.00  0.00    +0.000 OA
BRANCH  24  25
ATOM     25  C   UNL     1      46.721   2.687   6.494  0.00  0.00    +0.000 C 
ATOM     26  F   UNL     1      47.844   3.143   7.084  0.00  0.00    +0.000 F 
ATOM     27  F   UNL     1      46.660   1.351   6.702  0.00  0.00    +0.000 F 
ATOM     28  F   UNL     1      46.807   2.899   5.164  0.00  0.00    +0.000 F 
ENDBRANCH  24  25
ENDBRANCH  21  24
ENDBRANCH  15  18
ENDBRANCH   1  15
TORSDOF 6
ENDMDL
MODEL 4
REMARK VINA RESULT:    -7.224      4.529      7.211
REMARK INTER + INTRA:         -10.555
REMARK INTER:                 -10.288
REMARK INTRA:                  -0.267
REMARK UNBOUND:                -0.798
REMARK  Name = 
REMARK  7 active torsions:
REMARK  status: ('A' for Active; 'I' for Inactive)
REMARK    1  A    between atoms: C_1  and  C_2
REMARK    2  A    between atoms: C_4  and  C_5
REMARK    3  A    between atoms: C_10  and  N_11
REMARK    4  A    between atoms: N_11  and  C_12
REMARK    5  A    between atoms: C_12  and  C_13
REMARK    6  A    between atoms: C_16  and  O_17
REMARK    7  A    between atoms: O_17  and  C_18
REMARK                            x       y       z     vdW  Elec       q    Type
REMARK                         _______ _______ _______ _____ _____    ______ ____
ROOT
ATOM      1  N   UNL     1      45.372   5.255  12.555  0.00  0.00    +0.000 N 
ATOM      2  H   UNL     1      45.530   4.913  13.493  0.00  0.00    +0.000 HD
ENDROOT
BRANCH   1   9
ATOM      3  C   UNL     1      48.043   6.231  13.166  0.00  0.00    +0.000 C 
ATOM      4  C   UNL     1      46.921   7.122  12.712  0.00  0.00    +0.000 A 
ATOM      5  C   UNL     1      47.182   8.495  12.559  0.00  0.00    +0.000 A 
ATOM      6  C   UNL     1      46.198   9.357  12.082  0.00  0.00    +0.000 A 
ATOM      7  C   UNL     1      44.981   8.785  11.761  0.00  0.00    +0.000 A 
ATOM      8  N   UNL     1      44.687   7.462  11.912  0.00  0.00    +0.000 NA
ATOM      9  C   UNL     1      45.638   6.635  12.409  0.00  0.00    +0.000 A 
BRANCH   6  10
ATOM     10  C   UNL     1      46.521  10.800  11.959  0.00  0.00    +0.000 C 
ATOM     11  N   UNL     1      47.506  11.339  12.738  0.00  0.00    +0.000 N 
ATOM     12  O   UNL     1      45.927  11.516  11.160  0.00  0.00    +0.000 OA
ATOM     13  H   UNL     1      48.067  10.849  13.415  0.00  0.00    +0.000 HD
ATOM     14  H   UNL     1      47.697  12.325  12.594  0.00  0.00    +0.000 HD
ENDBRANCH   6  10
ENDBRANCH   1   9
BRANCH   1  15
ATOM     15  C   UNL     1      44.354   4.553  11.752  0.00  0.00    +0.000 C 
ATOM     16  C   UNL     1      42.874   4.828  11.952  0.00  0.00    +0.000 C 
ATOM     17  C   UNL     1      43.437   3.536  12.435  0.00  0.00    +0.000 C 
BRANCH  15  18
ATOM     18  C   UNL     1      44.872   4.118  10.389  0.00  0.00    +0.000 A 
ATOM     19  C   UNL     1      44.744   2.785   9.948  0.00  0.00    +0.000 A 
ATOM     20  C   UNL     1      45.165   2.389   8.669  0.00  0.00    +0.000 A 
ATOM     21  C   UNL     1      45.694   3.329   7.796  0.00  0.00    +0.000 A 
ATOM     22  C   UNL     1      45.891   4.637   8.239  0.00  0.00    +0.000 A 
ATOM     23  C   UNL     1      45.489   5.025   9.520  0.00  0.00    +0.000 A 
BRANCH  21  24
ATOM     24  O   UNL     1      46.106   3.101   6.520  0.00  0.00    +0.000 OA
BRANCH  24  25
ATOM     25  C   UNL     1      47.229   2.262   6.287  0.00  0.00    +0.000 C 
ATOM     26  F   UNL     1      46.965   0.942   6.360  0.00  0.00    +0.000 F 
ATOM     27  F   UNL     1      47.702   2.519   5.044  0.00  0.00    +0.000 F 
ATOM     28  F   UNL     1      48.201   2.564   7.174  0.00  0.00    +0.000 F 
ENDBRANCH  24  25
ENDBRANCH  21  24
ENDBRANCH  15  18
ENDBRANCH   1  15
TORSDOF 6
ENDMDL
MODEL 5
REMARK VINA RESULT:    -6.911      4.193      6.873
REMARK INTER + INTRA:         -10.133
REMARK INTER:                 -10.586
REMARK INTRA:                   0.453
REMARK UNBOUND:                -0.798
REMARK  Name = 
REMARK  7 active torsions:
REMARK  status: ('A' for Active; 'I' for Inactive)
REMARK    1  A    between atoms: C_1  and  C_2
REMARK    2  A    between atoms: C_4  and  C_5
REMARK    3  A    between atoms: C_10  and  N_11
REMARK    4  A    between atoms: N_11  and  C_12
REMARK    5  A    between atoms: C_12  and  C_13
REMARK    6  A    between atoms: C_16  and  O_17
REMARK    7  A    between atoms: O_17  and  C_18
REMARK                            x       y       z     vdW  Elec       q    Type
REMARK                         _______ _______ _______ _____ _____    ______ ____
ROOT
ATOM      1  N   UNL     1      44.545   6.755  11.604  0.00  0.00    +0.000 N 
ATOM      2  H   UNL     1      44.512   7.416  10.840  0.00  0.00    +0.000 HD
ENDROOT
BRANCH   1   9
ATOM      3  C   UNL     1      45.513   9.312  12.595  0.00  0.00    +0.000 C 
ATOM      4  C   UNL     1      46.247   8.018  12.795  0.00  0.00    +0.000 A 
ATOM      5  C   UNL     1      47.456   8.042  13.511  0.00  0.00    +0.000 A 
ATOM      6  C   UNL     1      48.148   6.864  13.780  0.00  0.00    +0.000 A 
ATOM      7  C   UNL     1      47.573   5.693  13.320  0.00  0.00    +0.000 A 
ATOM      8  N   UNL     1      46.413   5.633  12.607  0.00  0.00    +0.000 NA
ATOM      9  C   UNL     1      45.763   6.787  12.320  0.00  0.00    +0.000 A 
BRANCH   6  10
ATOM     10  C   UNL     1      49.430   6.950  14.524  0.00  0.00    +0.000 C 
ATOM     11  N   UNL     1      50.467   7.665  13.998  0.00  0.00    +0.000 N 
ATOM     12  O   UNL     1      49.568   6.398  15.611  0.00  0.00    +0.000 OA
ATOM     13  H   UNL     1      50.465   8.168  13.126  0.00  0.00    +0.000 HD
ATOM     14  H   UNL     1      51.310   7.706  14.561  0.00  0.00    +0.000 HD
ENDBRANCH   6  10
ENDBRANCH   1   9
BRANCH   1  15
ATOM     15  C   UNL     1      43.739   5.529  11.460  0.00  0.00    +0.000 C 
ATOM     16  C   UNL     1      42.248   5.534  11.749  0.00  0.00    +0.000 C 
ATOM     17  C   UNL     1      43.165   4.863  12.712  0.00  0.00    +0.000 C 
BRANCH  15  18
ATOM     18  C   UNL     1      44.315   4.559  10.438  0.00  0.00    +0.000 A 
ATOM     19  C   UNL     1      45.126   5.010   9.377  0.00  0.00    +0.000 A 
ATOM     20  C   UNL     1      45.710   4.116   8.466  0.00  0.00    +0.000 A 
ATOM     21  C   UNL     1      45.516   2.751   8.619  0.00  0.00    +0.000 A 
ATOM     22  C   UNL     1      44.661   2.291   9.622  0.00  0.00    +0.000 A 
ATOM     23  C   UNL     1      44.066   3.184  10.517  0.00  0.00    +0.000 A 
BRANCH  21  24
ATOM     24  O   UNL     1      46.046   1.769   7.841  0.00  0.00    +0.000 OA
BRANCH  24  25
ATOM     25  C   UNL     1      46.887   2.118   6.751  0.00  0.00    +0.000 C 
ATOM     26  F   UNL     1      46.287   2.856   5.796  0.00  0.00    +0.000 F 
ATOM     27  F   UNL     1      47.930   2.836   7.231  0.00  0.00    +0.000 F 
ATOM     28  F   UNL     1      47.379   0.992   6.190  0.00  0.00    +0.000 F 
ENDBRANCH  24  25
ENDBRANCH  21  24
ENDBRANCH  15  18
ENDBRANCH   1  15
TORSDOF 6
ENDMDL
MODEL 6
REMARK VINA RESULT:    -6.746      5.240      7.811
REMARK INTER + INTRA:          -9.910
REMARK INTER:                  -9.164
REMARK INTRA:                  -0.746
REMARK UNBOUND:                -0.798
REMARK  Name = 
REMARK  7 active torsions:
REMARK  status: ('A' for Active; 'I' for Inactive)
REMARK    1  A    between atoms: C_1  and  C_2
REMARK    2  A    between atoms: C_4  and  C_5
REMARK    3  A    between atoms: C_10  and  N_11
REMARK    4  A    between atoms: N_11  and  C_12
REMARK    5  A    between atoms: C_12  and  C_13
REMARK    6  A    between atoms: C_16  and  O_17
REMARK    7  A    between atoms: O_17  and  C_18
REMARK                            x       y       z     vdW  Elec       q    Type
REMARK                         _______ _______ _______ _____ _____    ______ ____
ROOT
ATOM      1  N   UNL     1      46.954   5.379  15.140  0.00  0.00    +0.000 N 
ATOM      2  H   UNL     1      46.428   5.945  15.791  0.00  0.00    +0.000 HD
ENDROOT
BRANCH   1   9
ATOM      3  C   UNL     1      48.833   6.614  16.984  0.00  0.00    +0.000 C 
ATOM      4  C   UNL     1      48.846   5.150  16.648  0.00  0.00    +0.000 A 
ATOM      5  C   UNL     1      49.807   4.334  17.270  0.00  0.00    +0.000 A 
ATOM      6  C   UNL     1      49.827   2.960  17.043  0.00  0.00    +0.000 A 
ATOM      7  C   UNL     1      48.852   2.461  16.199  0.00  0.00    +0.000 A 
ATOM      8  N   UNL     1      47.917   3.224  15.565  0.00  0.00    +0.000 NA
ATOM      9  C   UNL     1      47.925   4.564  15.763  0.00  0.00    +0.000 A 
BRANCH   6  10
ATOM     10  C   UNL     1      50.875   2.148  17.711  0.00  0.00    +0.000 C 
ATOM     11  N   UNL     1      51.775   2.758  18.537  0.00  0.00    +0.000 N 
ATOM     12  O   UNL     1      50.939   0.934  17.541  0.00  0.00    +0.000 OA
ATOM     13  H   UNL     1      51.812   3.738  18.761  0.00  0.00    +0.000 HD
ATOM     14  H   UNL     1      52.454   2.149  18.982  0.00  0.00    +0.000 HD
ENDBRANCH   6  10
ENDBRANCH   1   9
BRANCH   1  15
ATOM     15  C   UNL     1      47.121   5.913  13.776  0.00  0.00    +0.000 C 
ATOM     16  C   UNL     1      48.430   6.548  13.340  0.00  0.00    +0.000 C 
ATOM     17  C   UNL     1      47.249   7.424  13.578  0.00  0.00    +0.000 C 
BRANCH  15  18
ATOM     18  C   UNL     1      46.233   5.217  12.755  0.00  0.00    +0.000 A 
ATOM     19  C   UNL     1      45.992   5.785  11.487  0.00  0.00    +0.000 A 
ATOM     20  C   UNL     1      45.224   5.120  10.518  0.00  0.00    +0.000 A 
ATOM     21  C   UNL     1      44.707   3.863  10.791  0.00  0.00    +0.000 A 
ATOM     22  C   UNL     1      44.877   3.317  12.064  0.00  0.00    +0.000 A 
ATOM     23  C   UNL     1      45.627   3.987  13.034  0.00  0.00    +0.000 A 
BRANCH  21  24
ATOM     24  O   UNL     1      43.980   3.088   9.941  0.00  0.00    +0.000 OA
BRANCH  24  25
ATOM     25  C   UNL     1      44.645   2.347   8.928  0.00  0.00    +0.000 C 
ATOM     26  F   UNL     1      45.966   2.175   9.136  0.00  0.00    +0.000 F 
ATOM     27  F   UNL     1      44.077   1.120   8.855  0.00  0.00    +0.000 F 
ATOM     28  F   UNL     1      44.466   2.962   7.738  0.00  0.00    +0.000 F 
ENDBRANCH  24  25
ENDBRANCH  21  24
ENDBRANCH  15  18
ENDBRANCH   1  15
TORSDOF 6
ENDMDL
MODEL 7
REMARK VINA RESULT:    -6.582      4.407      7.079
REMARK INTER + INTRA:          -9.689
REMARK INTER:                  -9.445
REMARK INTRA:                  -0.244
REMARK UNBOUND:                -0.798
REMARK  Name = 
REMARK  7 active torsions:
REMARK  status: ('A' for Active; 'I' for Inactive)
REMARK    1  A    between atoms: C_1  and  C_2
REMARK    2  A    between atoms: C_4  and  C_5
REMARK    3  A    between atoms: C_10  and  N_11
REMARK    4  A    between atoms: N_11  and  C_12
REMARK    5  A    between atoms: C_12  and  C_13
REMARK    6  A    between atoms: C_16  and  O_17
REMARK    7  A    between atoms: O_17  and  C_18
REMARK                            x       y       z     vdW  Elec       q    Type
REMARK                         _______ _______ _______ _____ _____    ______ ____
ROOT
ATOM      1  N   UNL     1      44.149   6.799  12.397  0.00  0.00    +0.000 N 
ATOM      2  H   UNL     1      43.338   7.217  11.962  0.00  0.00    +0.000 HD
ENDROOT
BRANCH   1   9
ATOM      3  C   UNL     1      44.002   9.362  11.030  0.00  0.00    +0.000 C 
ATOM      4  C   UNL     1      45.200   8.912  11.815  0.00  0.00    +0.000 A 
ATOM      5  C   UNL     1      46.301   9.782  11.905  0.00  0.00    +0.000 A 
ATOM      6  C   UNL     1      47.414   9.443  12.670  0.00  0.00    +0.000 A 
ATOM      7  C   UNL     1      47.361   8.231  13.332  0.00  0.00    +0.000 A 
ATOM      8  N   UNL     1      46.320   7.355  13.253  0.00  0.00    +0.000 NA
ATOM      9  C   UNL     1      45.255   7.675  12.480  0.00  0.00    +0.000 A 
BRANCH   6  10
ATOM     10  C   UNL     1      48.556  10.391  12.716  0.00  0.00    +0.000 C 
ATOM     11  N   UNL     1      48.956  11.020  11.571  0.00  0.00    +0.000 N 
ATOM     12  O   UNL     1      49.140  10.628  13.768  0.00  0.00    +0.000 OA
ATOM     13  H   UNL     1      48.546  10.915  10.658  0.00  0.00    +0.000 HD
ATOM     14  H   UNL     1      49.726  11.672  11.668  0.00  0.00    +0.000 HD
ENDBRANCH   6  10
ENDBRANCH   1   9
BRANCH   1  15
ATOM     15  C   UNL     1      44.301   5.339  12.260  0.00  0.00    +0.000 C 
ATOM     16  C   UNL     1      43.542   4.386  13.166  0.00  0.00    +0.000 C 
ATOM     17  C   UNL     1      45.008   4.556  13.367  0.00  0.00    +0.000 C 
BRANCH  15  18
ATOM     18  C   UNL     1      44.677   4.913  10.848  0.00  0.00    +0.000 A 
ATOM     19  C   UNL     1      45.711   5.560  10.140  0.00  0.00    +0.000 A 
ATOM     20  C   UNL     1      46.105   5.134   8.861  0.00  0.00    +0.000 A 
ATOM     21  C   UNL     1      45.490   4.034   8.282  0.00  0.00    +0.000 A 
ATOM     22  C   UNL     1      44.420   3.425   8.939  0.00  0.00    +0.000 A 
ATOM     23  C   UNL     1      44.017   3.862  10.203  0.00  0.00    +0.000 A 
BRANCH  21  24
ATOM     24  O   UNL     1      45.791   3.487   7.073  0.00  0.00    +0.000 OA
BRANCH  24  25
ATOM     25  C   UNL     1      46.824   2.516   6.982  0.00  0.00    +0.000 C 
ATOM     26  F   UNL     1      46.850   1.835   5.819  0.00  0.00    +0.000 F 
ATOM     27  F   UNL     1      48.014   3.147   7.117  0.00  0.00    +0.000 F 
ATOM     28  F   UNL     1      46.699   1.638   8.000  0.00  0.00    +0.000 F 
ENDBRANCH  24  25
ENDBRANCH  21  24
ENDBRANCH  15  18
ENDBRANCH   1  15
TORSDOF 6
ENDMDL
MODEL 8
REMARK VINA RESULT:    -6.289      4.852      8.064
REMARK INTER + INTRA:          -9.293
REMARK INTER:                  -8.876
REMARK INTRA:                  -0.416
REMARK UNBOUND:                -0.798
REMARK  Name = 
REMARK  7 active torsions:
REMARK  status: ('A' for Active; 'I' for Inactive)
REMARK    1  A    between atoms: C_1  and  C_2
REMARK    2  A    between atoms: C_4  and  C_5
REMARK    3  A    between atoms: C_10  and  N_11
REMARK    4  A    between atoms: N_11  and  C_12
REMARK    5  A    between atoms: C_12  and  C_13
REMARK    6  A    between atoms: C_16  and  O_17
REMARK    7  A    between atoms: O_17  and  C_18
REMARK                            x       y       z     vdW  Elec       q    Type
REMARK                         _______ _______ _______ _____ _____    ______ ____
ROOT
ATOM      1  N   UNL     1      48.336   6.303  13.477  0.00  0.00    +0.000 N 
ATOM      2  H   UNL     1      48.933   5.708  12.918  0.00  0.00    +0.000 HD
ENDROOT
BRANCH   1   9
ATOM      3  C   UNL     1      49.545   8.076  15.440  0.00  0.00    +0.000 C 
ATOM      4  C   UNL     1      48.884   6.776  15.798  0.00  0.00    +0.000 A 
ATOM      5  C   UNL     1      48.834   6.406  17.153  0.00  0.00    +0.000 A 
ATOM      6  C   UNL     1      48.179   5.242  17.548  0.00  0.00    +0.000 A 
ATOM      7  C   UNL     1      47.583   4.500  16.546  0.00  0.00    +0.000 A 
ATOM      8  N   UNL     1      47.627   4.818  15.222  0.00  0.00    +0.000 NA
ATOM      9  C   UNL     1      48.294   5.934  14.840  0.00  0.00    +0.000 A 
BRANCH   6  10
ATOM     10  C   UNL     1      48.173   4.890  18.991  0.00  0.00    +0.000 C 
ATOM     11  N   UNL     1      48.504   3.622  19.375  0.00  0.00    +0.000 N 
ATOM     12  O   UNL     1      47.886   5.723  19.844  0.00  0.00    +0.000 OA
ATOM     13  H   UNL     1      48.768   2.863  18.769  0.00  0.00    +0.000 HD
ATOM     14  H   UNL     1      48.503   3.445  20.374  0.00  0.00    +0.000 HD
ENDBRANCH   6  10
ENDBRANCH   1   9
BRANCH   1  15
ATOM     15  C   UNL     1      47.198   6.939  12.790  0.00  0.00    +0.000 C 
ATOM     16  C   UNL     1      47.272   8.382  12.324  0.00  0.00    +0.000 C 
ATOM     17  C   UNL     1      46.423   8.049  13.502  0.00  0.00    +0.000 C 
BRANCH  15  18
ATOM     18  C   UNL     1      46.324   5.940  12.044  0.00  0.00    +0.000 A 
ATOM     19  C   UNL     1      46.017   6.114  10.679  0.00  0.00    +0.000 A 
ATOM     20  C   UNL     1      45.262   5.166   9.969  0.00  0.00    +0.000 A 
ATOM     21  C   UNL     1      44.827   4.014  10.606  0.00  0.00    +0.000 A 
ATOM     22  C   UNL     1      45.063   3.859  11.973  0.00  0.00    +0.000 A 
ATOM     23  C   UNL     1      45.798   4.812  12.683  0.00  0.00    +0.000 A 
BRANCH  21  24
ATOM     24  O   UNL     1      44.124   2.996  10.040  0.00  0.00    +0.000 OA
BRANCH  24  25
ATOM     25  C   UNL     1      44.705   2.249   8.981  0.00  0.00    +0.000 C 
ATOM     26  F   UNL     1      46.044   2.117   9.059  0.00  0.00    +0.000 F 
ATOM     27  F   UNL     1      44.168   1.006   8.994  0.00  0.00    +0.000 F 
ATOM     28  F   UNL     1      44.389   2.828   7.803  0.00  0.00    +0.000 F 
ENDBRANCH  24  25
ENDBRANCH  21  24
ENDBRANCH  15  18
ENDBRANCH   1  15
TORSDOF 6
ENDMDL
MODEL 9
REMARK VINA RESULT:    -6.194      5.293      8.138
REMARK INTER + INTRA:          -9.165
REMARK INTER:                  -8.972
REMARK INTRA:                  -0.193
REMARK UNBOUND:                -0.798
REMARK  Name = 
REMARK  7 active torsions:
REMARK  status: ('A' for Active; 'I' for Inactive)
REMARK    1  A    between atoms: C_1  and  C_2
REMARK    2  A    between atoms: C_4  and  C_5
REMARK    3  A    between atoms: C_10  and  N_11
REMARK    4  A    between atoms: N_11  and  C_12
REMARK    5  A    between atoms: C_12  and  C_13
REMARK    6  A    between atoms: C_16  and  O_17
REMARK    7  A    between atoms: O_17  and  C_18
REMARK                            x       y       z     vdW  Elec       q    Type
REMARK                         _______ _______ _______ _____ _____    ______ ____
ROOT
ATOM      1  N   UNL     1      47.503   5.884  15.247  0.00  0.00    +0.000 N 
ATOM      2  H   UNL     1      46.787   6.375  15.765  0.00  0.00    +0.000 HD
ENDROOT
BRANCH   1   9
ATOM      3  C   UNL     1      47.432   3.401  16.761  0.00  0.00    +0.000 C 
ATOM      4  C   UNL     1      48.599   4.346  16.778  0.00  0.00    +0.000 A 
ATOM      5  C   UNL     1      49.721   4.005  17.553  0.00  0.00    +0.000 A 
ATOM      6  C   UNL     1      50.856   4.812  17.557  0.00  0.00    +0.000 A 
ATOM      7  C   UNL     1      50.814   5.938  16.756  0.00  0.00    +0.000 A 
ATOM      8  N   UNL     1      49.738   6.310  16.006  0.00  0.00    +0.000 NA
ATOM      9  C   UNL     1      48.625   5.538  16.033  0.00  0.00    +0.000 A 
BRANCH   6  10
ATOM     10  C   UNL     1      52.005   4.413  18.408  0.00  0.00    +0.000 C 
ATOM     11  N   UNL     1      51.784   4.032  19.701  0.00  0.00    +0.000 N 
ATOM     12  O   UNL     1      53.149   4.410  17.966  0.00  0.00    +0.000 OA
ATOM     13  H   UNL     1      50.893   3.984  20.167  0.00  0.00    +0.000 HD
ATOM     14  H   UNL     1      52.604   3.750  20.228  0.00  0.00    +0.000 HD
ENDBRANCH   6  10
ENDBRANCH   1   9
BRANCH   1  15
ATOM     15  C   UNL     1      47.601   6.175  13.805  0.00  0.00    +0.000 C 
ATOM     16  C   UNL     1      48.893   6.695  13.199  0.00  0.00    +0.000 C 
ATOM     17  C   UNL     1      47.741   7.628  13.347  0.00  0.00    +0.000 C 
BRANCH  15  18
ATOM     18  C   UNL     1      46.646   5.339  12.966  0.00  0.00    +0.000 A 
ATOM     19  C   UNL     1      46.024   5.870  11.817  0.00  0.00    +0.000 A 
ATOM     20  C   UNL     1      45.190   5.087  11.004  0.00  0.00    +0.000 A 
ATOM     21  C   UNL     1      44.987   3.749  11.310  0.00  0.00    +0.000 A 
ATOM     22  C   UNL     1      45.539   3.225  12.481  0.00  0.00    +0.000 A 
ATOM     23  C   UNL     1      46.354   4.012  13.299  0.00  0.00    +0.000 A 
BRANCH  21  24
ATOM     24  O   UNL     1      44.240   2.863  10.598  0.00  0.00    +0.000 OA
BRANCH  24  25
ATOM     25  C   UNL     1      44.713   2.402   9.340  0.00  0.00    +0.000 C 
ATOM     26  F   UNL     1      46.055   2.314   9.245  0.00  0.00    +0.000 F 
ATOM     27  F   UNL     1      44.203   1.167   9.120  0.00  0.00    +0.000 F 
ATOM     28  F   UNL     1      44.258   3.221   8.367  0.00  0.00    +0.000 F 
ENDBRANCH  24  25
ENDBRANCH  21  24
ENDBRANCH  15  18
ENDBRANCH   1  15
TORSDOF 6
ENDMDL
