MODEL 1
REMARK VINA RESULT:    -7.515      0.000      0.000
REMARK INTER + INTRA:         -11.791
REMARK INTER:                 -10.590
REMARK INTRA:                  -1.200
REMARK UNBOUND:                -1.200
REMARK  Name = 
REMARK  8 active torsions:
REMARK  status: ('A' for Active; 'I' for Inactive)
REMARK    1  A    between atoms: C_1  and  C_2
REMARK    2  A    between atoms: C_2  and  N_3
REMARK    3  A    between atoms: N_3  and  C_4
REMARK    4  A    between atoms: C_4  and  C_5
REMARK    5  A    between atoms: C_8  and  C_9
REMARK    6  A    between atoms: C_9  and  N_10
REMARK    7  A    between atoms: C_11  and  C_13
REMARK    8  A    between atoms: C_20  and  C_22
REMARK                            x       y       z     vdW  Elec       q    Type
REMARK                         _______ _______ _______ _____ _____    ______ ____
ROOT
ATOM      1  C   UNL     1      47.521   6.083  12.802  0.00  0.00    +0.000 C 
ENDROOT
BRANCH   1   2
ATOM      2  C   UNL     1      47.520   5.625  14.239  0.00  0.00    +0.000 A 
ATOM      3  C   UNL     1      46.877   4.422  14.581  0.00  0.00    +0.000 A 
ATOM      4  C   UNL     1      47.109   3.816  15.816  0.00  0.00    +0.000 A 
ATOM      5  C   UNL     1      47.972   4.411  16.743  0.00  0.00    +0.000 A 
ATOM      6  C   UNL     1      48.554   5.648  16.431  0.00  0.00    +0.000 A 
ATOM      7  C   UNL     1      48.323   6.256  15.193  0.00  0.00    +0.000 A 
BRANCH   5   8
ATOM      8  C   UNL     1      48.339   3.688  18.013  0.00  0.00    +0.000 C 
BRANCH   8   9
ATOM      9  N   UNL     1      49.771   3.526  18.121  0.00  0.00    +0.000 N 
ATOM     10  C   UNL     1      50.449   2.569  17.397  0.00  0.00    +0.000 C 
ATOM     11  O   UNL     1      49.857   1.820  16.622  0.00  0.00    +0.000 OA
ATOM     12  H   UNL     1      50.289   4.123  18.754  0.00  0.00    +0.000 HD
BRANCH  10  13
ATOM     13  C   UNL     1      51.881   2.503  17.609  0.00  0.00    +0.000 A 
ATOM     14  C   UNL     1      52.745   3.561  17.825  0.00  0.00    +0.000 A 
ATOM     15  N   UNL     1      54.080   3.233  17.997  0.00  0.00    +0.000 NA
ATOM     16  C   UNL     1      54.213   1.929  17.910  0.00  0.00    +0.000 A 
ATOM     17  S   UNL     1      52.777   1.038  17.624  0.00  0.00    +0.000 S 
ENDBRANCH  10  13
ENDBRANCH   8   9
ENDBRANCH   5   8
ENDBRANCH   1   2
BRANCH   1  18
ATOM     18  N   UNL     1      46.630   7.132  12.323  0.00  0.00    +0.000 N 
ATOM     19  C   UNL     1      45.359   6.848  11.778  0.00  0.00    +0.000 C 
ATOM     20  O   UNL     1      44.617   7.752  11.398  0.00  0.00    +0.000 OA
BRANCH  19  21
ATOM     21  C   UNL     1      44.878   5.453  11.701  0.00  0.00    +0.000 A 
ATOM     22  C   UNL     1      44.139   4.800  12.677  0.00  0.00    +0.000 A 
ATOM     23  S   UNL     1      43.651   3.223  12.242  0.00  0.00    +0.000 S 
ATOM     24  C   UNL     1      44.268   3.416  10.671  0.00  0.00    +0.000 A 
ATOM     25  N   UNL     1      44.065   2.467   9.719  0.00  0.00    +0.000 NA
ATOM     26  C   UNL     1      44.525   2.785   8.556  0.00  0.00    +0.000 A 
ATOM     27  N   UNL     1      45.215   3.937   8.273  0.00  0.00    +0.000 N 
ATOM     28  C   UNL     1      45.571   4.853   9.241  0.00  0.00    +0.000 A 
ATOM     29  O   UNL     1      46.401   5.725   9.013  0.00  0.00    +0.000 OA
ATOM     30  C   UNL     1      44.946   4.612  10.527  0.00  0.00    +0.000 A 
ATOM     31  H   UNL     1      45.622   4.084   7.362  0.00  0.00    +0.000 HD
ENDBRANCH  19  21
BRANCH  18  33
ATOM     32  C   UNL     1      48.421   8.842  12.104  0.00  0.00    +0.000 C 
ATOM     33  C   UNL     1      46.982   8.544  12.499  0.00  0.00    +0.000 C 
ENDBRANCH  18  33
ENDBRANCH   1  18
TORSDOF 7
ENDMDL
MODEL 2
REMARK VINA RESULT:    -7.489      3.462      8.299
REMARK INTER + INTRA:         -11.754
REMARK INTER:                 -10.286
REMARK INTRA:                  -1.468
REMARK UNBOUND:                -1.200
REMARK  Name = 
REMARK  8 active torsions:
REMARK  status: ('A' for Active; 'I' for Inactive)
REMARK    1  A    between atoms: C_1  and  C_2
REMARK    2  A    between atoms: C_2  and  N_3
REMARK    3  A    between atoms: N_3  and  C_4
REMARK    4  A    between atoms: C_4  and  C_5
REMARK    5  A    between atoms: C_8  and  C_9
REMARK    6  A    between atoms: C_9  and  N_10
REMARK    7  A    between atoms: C_11  and  C_13
REMARK    8  A    between atoms: C_20  and  C_22
REMARK                            x       y       z     vdW  Elec       q    Type
REMARK                         _______ _______ _______ _____ _____    ______ ____
ROOT
ATOM      1  C   UNL     1      47.360   7.620  13.744  0.00  0.00    +0.000 C 
ENDROOT
BRANCH   1   2
ATOM      2  C   UNL     1      46.386   6.536  13.355  0.00  0.00    +0.000 A 
ATOM      3  C   UNL     1      45.426   6.794  12.361  0.00  0.00    +0.000 A 
ATOM      4  C   UNL     1      44.721   5.749  11.763  0.00  0.00    +0.000 A 
ATOM      5  C   UNL     1      44.944   4.427  12.163  0.00  0.00    +0.000 A 
ATOM      6  C   UNL     1      45.847   4.178  13.207  0.00  0.00    +0.000 A 
ATOM      7  C   UNL     1      46.556   5.224  13.806  0.00  0.00    +0.000 A 
BRANCH   5   8
ATOM      8  C   UNL     1      44.294   3.288  11.421  0.00  0.00    +0.000 C 
BRANCH   8   9
ATOM      9  N   UNL     1      45.174   2.768  10.399  0.00  0.00    +0.000 N 
ATOM     10  C   UNL     1      45.060   3.154   9.080  0.00  0.00    +0.000 C 
ATOM     11  O   UNL     1      44.208   3.965   8.727  0.00  0.00    +0.000 OA
ATOM     12  H   UNL     1      45.884   2.093  10.655  0.00  0.00    +0.000 HD
BRANCH  10  13
ATOM     13  C   UNL     1      45.996   2.546   8.155  0.00  0.00    +0.000 A 
ATOM     14  C   UNL     1      46.340   1.209   8.068  0.00  0.00    +0.000 A 
ATOM     15  N   UNL     1      47.267   0.880   7.094  0.00  0.00    +0.000 NA
ATOM     16  C   UNL     1      47.616   1.971   6.451  0.00  0.00    +0.000 A 
ATOM     17  S   UNL     1      46.869   3.426   6.966  0.00  0.00    +0.000 S 
ENDBRANCH  10  13
ENDBRANCH   8   9
ENDBRANCH   5   8
ENDBRANCH   1   2
BRANCH   1  18
ATOM     18  N   UNL     1      48.803   7.441  13.633  0.00  0.00    +0.000 N 
ATOM     19  C   UNL     1      49.673   7.659  14.724  0.00  0.00    +0.000 C 
ATOM     20  O   UNL     1      50.885   7.483  14.611  0.00  0.00    +0.000 OA
BRANCH  19  21
ATOM     21  C   UNL     1      49.130   8.056  16.040  0.00  0.00    +0.000 A 
ATOM     22  C   UNL     1      48.852   9.356  16.438  0.00  0.00    +0.000 A 
ATOM     23  S   UNL     1      48.138   9.472  17.985  0.00  0.00    +0.000 S 
ATOM     24  C   UNL     1      48.024   7.781  18.110  0.00  0.00    +0.000 A 
ATOM     25  N   UNL     1      47.377   7.199  19.154  0.00  0.00    +0.000 NA
ATOM     26  C   UNL     1      47.305   5.913  19.075  0.00  0.00    +0.000 A 
ATOM     27  N   UNL     1      47.866   5.155  18.078  0.00  0.00    +0.000 N 
ATOM     28  C   UNL     1      48.656   5.694  17.083  0.00  0.00    +0.000 A 
ATOM     29  O   UNL     1      49.352   4.980  16.371  0.00  0.00    +0.000 OA
ATOM     30  C   UNL     1      48.637   7.144  17.047  0.00  0.00    +0.000 A 
ATOM     31  H   UNL     1      47.846   4.149  18.123  0.00  0.00    +0.000 HD
ENDBRANCH  19  21
BRANCH  18  33
ATOM     32  C   UNL     1      49.571   7.979  11.331  0.00  0.00    +0.000 C 
ATOM     33  C   UNL     1      49.394   6.911  12.401  0.00  0.00    +0.000 C 
ENDBRANCH  18  33
ENDBRANCH   1  18
TORSDOF 7
ENDMDL
MODEL 3
REMARK VINA RESULT:    -7.372      2.764      8.338
REMARK INTER + INTRA:         -11.589
REMARK INTER:                 -10.274
REMARK INTRA:                  -1.314
REMARK UNBOUND:                -1.200
REMARK  Name = 
REMARK  8 active torsions:
REMARK  status: ('A' for Active; 'I' for Inactive)
REMARK    1  A    between atoms: C_1  and  C_2
REMARK    2  A    between atoms: C_2  and  N_3
REMARK    3  A    between atoms: N_3  and  C_4
REMARK    4  A    between atoms: C_4  and  C_5
REMARK    5  A    between atoms: C_8  and  C_9
REMARK    6  A    between atoms: C_9  and  N_10
REMARK    7  A    between atoms: C_11  and  C_13
REMARK    8  A    between atoms: C_20  and  C_22
REMARK                            x       y       z     vdW  Elec       q    Type
REMARK                         _______ _______ _______ _____ _____    ______ ____
ROOT
ATOM      1  C   UNL     1      48.560   6.358  14.441  0.00  0.00    +0.000 C 
ENDROOT
BRANCH   1   2
ATOM      2  C   UNL     1      47.333   6.101  13.602  0.00  0.00    +0.000 A 
ATOM      3  C   UNL     1      46.953   7.040  12.627  0.00  0.00    +0.000 A 
ATOM      4  C   UNL     1      46.025   6.707  11.639  0.00  0.00    +0.000 A 
ATOM      5  C   UNL     1      45.441   5.436  11.620  0.00  0.00    +0.000 A 
ATOM      6  C   UNL     1      45.764   4.525  12.637  0.00  0.00    +0.000 A 
ATOM      7  C   UNL     1      46.695   4.857  13.627  0.00  0.00    +0.000 A 
BRANCH   5   8
ATOM      8  C   UNL     1      44.553   5.025  10.475  0.00  0.00    +0.000 C 
BRANCH   8   9
ATOM      9  N   UNL     1      45.311   4.338   9.454  0.00  0.00    +0.000 N 
ATOM     10  C   UNL     1      45.170   2.984   9.233  0.00  0.00    +0.000 C 
ATOM     11  O   UNL     1      44.382   2.311   9.895  0.00  0.00    +0.000 OA
ATOM     12  H   UNL     1      45.973   4.861   8.894  0.00  0.00    +0.000 HD
BRANCH  10  13
ATOM     13  C   UNL     1      46.000   2.417   8.189  0.00  0.00    +0.000 A 
ATOM     14  C   UNL     1      46.306   1.082   7.994  0.00  0.00    +0.000 A 
ATOM     15  N   UNL     1      47.130   0.797   6.919  0.00  0.00    +0.000 NA
ATOM     16  C   UNL     1      47.440   1.918   6.309  0.00  0.00    +0.000 A 
ATOM     17  S   UNL     1      46.776   3.352   6.975  0.00  0.00    +0.000 S 
ENDBRANCH  10  13
ENDBRANCH   8   9
ENDBRANCH   5   8
ENDBRANCH   1   2
BRANCH   1  18
ATOM     18  N   UNL     1      48.546   7.276  15.573  0.00  0.00    +0.000 N 
ATOM     19  C   UNL     1      48.474   6.822  16.908  0.00  0.00    +0.000 C 
ATOM     20  O   UNL     1      48.484   7.615  17.847  0.00  0.00    +0.000 OA
BRANCH  19  21
ATOM     21  C   UNL     1      48.436   5.373  17.200  0.00  0.00    +0.000 A 
ATOM     22  C   UNL     1      47.303   4.573  17.165  0.00  0.00    +0.000 A 
ATOM     23  S   UNL     1      47.611   2.919  17.455  0.00  0.00    +0.000 S 
ATOM     24  C   UNL     1      49.289   3.187  17.472  0.00  0.00    +0.000 A 
ATOM     25  N   UNL     1      50.162   2.148  17.548  0.00  0.00    +0.000 NA
ATOM     26  C   UNL     1      51.402   2.498  17.475  0.00  0.00    +0.000 A 
ATOM     27  N   UNL     1      51.847   3.793  17.388  0.00  0.00    +0.000 N 
ATOM     28  C   UNL     1      51.003   4.882  17.459  0.00  0.00    +0.000 A 
ATOM     29  O   UNL     1      51.439   6.011  17.644  0.00  0.00    +0.000 OA
ATOM     30  C   UNL     1      49.597   4.532  17.388  0.00  0.00    +0.000 A 
ATOM     31  H   UNL     1      52.832   4.003  17.421  0.00  0.00    +0.000 HD
ENDBRANCH  19  21
BRANCH  18  33
ATOM     32  C   UNL     1      49.673   9.027  14.215  0.00  0.00    +0.000 C 
ATOM     33  C   UNL     1      48.725   8.716  15.364  0.00  0.00    +0.000 C 
ENDBRANCH  18  33
ENDBRANCH   1  18
TORSDOF 7
ENDMDL
MODEL 4
REMARK VINA RESULT:    -7.179      1.300      1.946
REMARK INTER + INTRA:         -11.317
REMARK INTER:                  -9.901
REMARK INTRA:                  -1.416
REMARK UNBOUND:                -1.200
REMARK  Name = 
REMARK  8 active torsions:
REMARK  status: ('A' for Active; 'I' for Inactive)
REMARK    1  A    between atoms: C_1  and  C_2
REMARK    2  A    between atoms: C_2  and  N_3
REMARK    3  A    between atoms: N_3  and  C_4
REMARK    4  A    between atoms: C_4  and  C_5
REMARK    5  A    between atoms: C_8  and  C_9
REMARK    6  A    between atoms: C_9  and  N_10
REMARK    7  A    between atoms: C_11  and  C_13
REMARK    8  A    between atoms: C_20  and  C_22
REMARK                            x       y       z     vdW  Elec       q    Type
REMARK                         _______ _______ _______ _____ _____    ______ ____
ROOT
ATOM      1  C   UNL     1      47.395   6.239  12.865  0.00  0.00    +0.000 C 
ENDROOT
BRANCH   1   2
ATOM      2  C   UNL     1      47.417   5.611  14.235  0.00  0.00    +0.000 A 
ATOM      3  C   UNL     1      46.776   4.377  14.441  0.00  0.00    +0.000 A 
ATOM      4  C   UNL     1      47.028   3.624  15.589  0.00  0.00    +0.000 A 
ATOM      5  C   UNL     1      47.909   4.102  16.566  0.00  0.00    +0.000 A 
ATOM      6  C   UNL     1      48.490   5.367  16.396  0.00  0.00    +0.000 A 
ATOM      7  C   UNL     1      48.239   6.121  15.245  0.00  0.00    +0.000 A 
BRANCH   5   8
ATOM      8  C   UNL     1      48.295   3.230  17.733  0.00  0.00    +0.000 C 
BRANCH   8   9
ATOM      9  N   UNL     1      49.719   3.287  17.971  0.00  0.00    +0.000 N 
ATOM     10  C   UNL     1      50.596   2.438  17.327  0.00  0.00    +0.000 C 
ATOM     11  O   UNL     1      50.195   1.606  16.517  0.00  0.00    +0.000 OA
ATOM     12  H   UNL     1      50.083   3.957  18.636  0.00  0.00    +0.000 HD
BRANCH  10  13
ATOM     13  C   UNL     1      51.996   2.590  17.668  0.00  0.00    +0.000 A 
ATOM     14  C   UNL     1      52.654   3.758  18.009  0.00  0.00    +0.000 A 
ATOM     15  N   UNL     1      54.005   3.637  18.289  0.00  0.00    +0.000 NA
ATOM     16  C   UNL     1      54.358   2.379  18.158  0.00  0.00    +0.000 A 
ATOM     17  S   UNL     1      53.116   1.288  17.700  0.00  0.00    +0.000 S 
ENDBRANCH  10  13
ENDBRANCH   8   9
ENDBRANCH   5   8
ENDBRANCH   1   2
BRANCH   1  18
ATOM     18  N   UNL     1      46.561   7.394  12.556  0.00  0.00    +0.000 N 
ATOM     19  C   UNL     1      45.523   7.337  11.600  0.00  0.00    +0.000 C 
ATOM     20  O   UNL     1      44.820   8.320  11.371  0.00  0.00    +0.000 OA
BRANCH  19  21
ATOM     21  C   UNL     1      45.231   6.073  10.893  0.00  0.00    +0.000 A 
ATOM     22  C   UNL     1      45.766   5.690   9.672  0.00  0.00    +0.000 A 
ATOM     23  S   UNL     1      45.307   4.123   9.171  0.00  0.00    +0.000 S 
ATOM     24  C   UNL     1      44.511   3.836  10.645  0.00  0.00    +0.000 A 
ATOM     25  N   UNL     1      43.997   2.612  10.934  0.00  0.00    +0.000 NA
ATOM     26  C   UNL     1      43.490   2.522  12.118  0.00  0.00    +0.000 A 
ATOM     27  N   UNL     1      43.403   3.558  13.014  0.00  0.00    +0.000 N 
ATOM     28  C   UNL     1      43.777   4.849  12.705  0.00  0.00    +0.000 A 
ATOM     29  O   UNL     1      43.449   5.791  13.416  0.00  0.00    +0.000 OA
ATOM     30  C   UNL     1      44.489   4.963  11.446  0.00  0.00    +0.000 A 
ATOM     31  H   UNL     1      42.917   3.442  13.890  0.00  0.00    +0.000 HD
ENDBRANCH  19  21
BRANCH  18  33
ATOM     32  C   UNL     1      48.050   9.307  13.106  0.00  0.00    +0.000 C 
ATOM     33  C   UNL     1      46.700   8.637  13.320  0.00  0.00    +0.000 C 
ENDBRANCH  18  33
ENDBRANCH   1  18
TORSDOF 7
ENDMDL
MODEL 5
REMARK VINA RESULT:    -6.661      2.633      8.165
REMARK INTER + INTRA:         -10.588
REMARK INTER:                  -8.898
REMARK INTRA:                  -1.690
REMARK UNBOUND:                -1.200
REMARK  Name = 
REMARK  8 active torsions:
REMARK  status: ('A' for Active; 'I' for Inactive)
REMARK    1  A    between atoms: C_1  and  C_2
REMARK    2  A    between atoms: C_2  and  N_3
REMARK    3  A    between atoms: N_3  and  C_4
REMARK    4  A    between atoms: C_4  and  C_5
REMARK    5  A    between atoms: C_8  and  C_9
REMARK    6  A    between atoms: C_9  and  N_10
REMARK    7  A    between atoms: C_11  and  C_13
REMARK    8  A    between atoms: C_20  and  C_22
REMARK                            x       y       z     vdW  Elec       q    Type
REMARK                         _______ _______ _______ _____ _____    ______ ____
ROOT
ATOM      1  C   UNL     1      49.438   8.287  17.215  0.00  0.00    +0.000 C 
ENDROOT
BRANCH   1   2
ATOM      2  C   UNL     1      49.141   8.264  15.737  0.00  0.00    +0.000 A 
ATOM      3  C   UNL     1      49.747   7.290  14.924  0.00  0.00    +0.000 A 
ATOM      4  C   UNL     1      49.273   7.042  13.634  0.00  0.00    +0.000 A 
ATOM      5  C   UNL     1      48.199   7.779  13.123  0.00  0.00    +0.000 A 
ATOM      6  C   UNL     1      47.644   8.802  13.907  0.00  0.00    +0.000 A 
ATOM      7  C   UNL     1      48.117   9.050  15.199  0.00  0.00    +0.000 A 
BRANCH   5   8
ATOM      8  C   UNL     1      47.593   7.416  11.792  0.00  0.00    +0.000 C 
BRANCH   8   9
ATOM      9  N   UNL     1      46.752   6.246  11.909  0.00  0.00    +0.000 N 
ATOM     10  C   UNL     1      45.389   6.311  11.713  0.00  0.00    +0.000 C 
ATOM     11  O   UNL     1      44.839   7.370  11.420  0.00  0.00    +0.000 OA
ATOM     12  H   UNL     1      47.172   5.358  12.155  0.00  0.00    +0.000 HD
BRANCH  10  13
ATOM     13  C   UNL     1      44.661   5.068  11.875  0.00  0.00    +0.000 A 
ATOM     14  C   UNL     1      44.493   4.342  13.040  0.00  0.00    +0.000 A 
ATOM     15  N   UNL     1      43.753   3.177  12.930  0.00  0.00    +0.000 NA
ATOM     16  C   UNL     1      43.366   3.032  11.683  0.00  0.00    +0.000 A 
ATOM     17  S   UNL     1      43.857   4.259  10.591  0.00  0.00    +0.000 S 
ENDBRANCH  10  13
ENDBRANCH   8   9
ENDBRANCH   5   8
ENDBRANCH   1   2
BRANCH   1  18
ATOM     18  N   UNL     1      48.454   7.880  18.210  0.00  0.00    +0.000 N 
ATOM     19  C   UNL     1      48.476   6.601  18.810  0.00  0.00    +0.000 C 
ATOM     20  O   UNL     1      47.646   6.288  19.661  0.00  0.00    +0.000 OA
BRANCH  19  21
ATOM     21  C   UNL     1      49.535   5.633  18.457  0.00  0.00    +0.000 A 
ATOM     22  C   UNL     1      50.818   5.613  18.985  0.00  0.00    +0.000 A 
ATOM     23  S   UNL     1      51.772   4.304  18.446  0.00  0.00    +0.000 S 
ATOM     24  C   UNL     1      50.454   3.625  17.616  0.00  0.00    +0.000 A 
ATOM     25  N   UNL     1      50.552   2.403  17.030  0.00  0.00    +0.000 NA
ATOM     26  C   UNL     1      49.450   1.984  16.503  0.00  0.00    +0.000 A 
ATOM     27  N   UNL     1      48.279   2.698  16.463  0.00  0.00    +0.000 N 
ATOM     28  C   UNL     1      48.179   3.999  16.913  0.00  0.00    +0.000 A 
ATOM     29  O   UNL     1      47.212   4.695  16.629  0.00  0.00    +0.000 OA
ATOM     30  C   UNL     1      49.346   4.452  17.646  0.00  0.00    +0.000 A 
ATOM     31  H   UNL     1      47.479   2.348  15.961  0.00  0.00    +0.000 HD
ENDBRANCH  19  21
BRANCH  18  33
ATOM     32  C   UNL     1      48.004  10.258  18.775  0.00  0.00    +0.000 C 
ATOM     33  C   UNL     1      47.464   8.837  18.711  0.00  0.00    +0.000 C 
ENDBRANCH  18  33
ENDBRANCH   1  18
TORSDOF 7
ENDMDL
MODEL 6
REMARK VINA RESULT:    -6.436      2.478      8.447
REMARK INTER + INTRA:         -10.271
REMARK INTER:                  -8.884
REMARK INTRA:                  -1.387
REMARK UNBOUND:                -1.200
REMARK  Name = 
REMARK  8 active torsions:
REMARK  status: ('A' for Active; 'I' for Inactive)
REMARK    1  A    between atoms: C_1  and  C_2
REMARK    2  A    between atoms: C_2  and  N_3
REMARK    3  A    between atoms: N_3  and  C_4
REMARK    4  A    between atoms: C_4  and  C_5
REMARK    5  A    between atoms: C_8  and  C_9
REMARK    6  A    between atoms: C_9  and  N_10
REMARK    7  A    between atoms: C_11  and  C_13
REMARK    8  A    between atoms: C_20  and  C_22
REMARK                            x       y       z     vdW  Elec       q    Type
REMARK                         _______ _______ _______ _____ _____    ______ ____
ROOT
ATOM      1  C   UNL     1      49.510   7.215  16.753  0.00  0.00    +0.000 C 
ENDROOT
BRANCH   1   2
ATOM      2  C   UNL     1      48.858   7.467  15.417  0.00  0.00    +0.000 A 
ATOM      3  C   UNL     1      48.632   6.389  14.543  0.00  0.00    +0.000 A 
ATOM      4  C   UNL     1      47.772   6.523  13.453  0.00  0.00    +0.000 A 
ATOM      5  C   UNL     1      47.138   7.745  13.200  0.00  0.00    +0.000 A 
ATOM      6  C   UNL     1      47.422   8.841  14.028  0.00  0.00    +0.000 A 
ATOM      7  C   UNL     1      48.283   8.707  15.122  0.00  0.00    +0.000 A 
BRANCH   5   8
ATOM      8  C   UNL     1      46.099   7.852  12.114  0.00  0.00    +0.000 C 
BRANCH   8   9
ATOM      9  N   UNL     1      45.839   6.561  11.519  0.00  0.00    +0.000 N 
ATOM     10  C   UNL     1      44.554   6.104  11.310  0.00  0.00    +0.000 C 
ATOM     11  O   UNL     1      43.580   6.787  11.617  0.00  0.00    +0.000 OA
ATOM     12  H   UNL     1      46.619   5.970  11.259  0.00  0.00    +0.000 HD
BRANCH  10  13
ATOM     13  C   UNL     1      44.434   4.787  10.719  0.00  0.00    +0.000 A 
ATOM     14  C   UNL     1      43.709   3.713  11.205  0.00  0.00    +0.000 A 
ATOM     15  N   UNL     1      43.759   2.553  10.451  0.00  0.00    +0.000 NA
ATOM     16  C   UNL     1      44.520   2.758   9.401  0.00  0.00    +0.000 A 
ATOM     17  S   UNL     1      45.207   4.323   9.257  0.00  0.00    +0.000 S 
ENDBRANCH  10  13
ENDBRANCH   8   9
ENDBRANCH   5   8
ENDBRANCH   1   2
BRANCH   1  18
ATOM     18  N   UNL     1      48.767   7.289  18.004  0.00  0.00    +0.000 N 
ATOM     19  C   UNL     1      48.136   6.161  18.572  0.00  0.00    +0.000 C 
ATOM     20  O   UNL     1      47.531   6.244  19.639  0.00  0.00    +0.000 OA
BRANCH  19  21
ATOM     21  C   UNL     1      48.236   4.842  17.911  0.00  0.00    +0.000 A 
ATOM     22  C   UNL     1      47.308   4.311  17.028  0.00  0.00    +0.000 A 
ATOM     23  S   UNL     1      47.766   2.807  16.360  0.00  0.00    +0.000 S 
ATOM     24  C   UNL     1      49.293   2.891  17.100  0.00  0.00    +0.000 A 
ATOM     25  N   UNL     1      50.251   1.965  16.833  0.00  0.00    +0.000 NA
ATOM     26  C   UNL     1      51.383   2.199  17.408  0.00  0.00    +0.000 A 
ATOM     27  N   UNL     1      51.626   3.243  18.265  0.00  0.00    +0.000 N 
ATOM     28  C   UNL     1      50.641   4.118  18.677  0.00  0.00    +0.000 A 
ATOM     29  O   UNL     1      50.818   4.866  19.631  0.00  0.00    +0.000 OA
ATOM     30  C   UNL     1      49.398   3.983  17.942  0.00  0.00    +0.000 A 
ATOM     31  H   UNL     1      52.507   3.320  18.747  0.00  0.00    +0.000 HD
ENDBRANCH  19  21
BRANCH  18  33
ATOM     32  C   UNL     1      47.505   9.368  18.519  0.00  0.00    +0.000 C 
ATOM     33  C   UNL     1      48.748   8.530  18.785  0.00  0.00    +0.000 C 
ENDBRANCH  18  33
ENDBRANCH   1  18
TORSDOF 7
ENDMDL
MODEL 7
REMARK VINA RESULT:    -5.905      5.553      8.755
REMARK INTER + INTRA:          -9.522
REMARK INTER:                  -8.287
REMARK INTRA:                  -1.235
REMARK UNBOUND:                -1.200
REMARK  Name = 
REMARK  8 active torsions:
REMARK  status: ('A' for Active; 'I' for Inactive)
REMARK    1  A    between atoms: C_1  and  C_2
REMARK    2  A    between atoms: C_2  and  N_3
REMARK    3  A    between atoms: N_3  and  C_4
REMARK    4  A    between atoms: C_4  and  C_5
REMARK    5  A    between atoms: C_8  and  C_9
REMARK    6  A    between atoms: C_9  and  N_10
REMARK    7  A    between atoms: C_11  and  C_13
REMARK    8  A    between atoms: C_20  and  C_22
REMARK                            x       y       z     vdW  Elec       q    Type
REMARK                         _______ _______ _______ _____ _____    ______ ____
ROOT
ATOM      1  C   UNL     1      51.483   8.284  10.501  0.00  0.00    +0.000 C 
ENDROOT
BRANCH   1   2
ATOM      2  C   UNL     1      50.325   8.457  11.450  0.00  0.00    +0.000 A 
ATOM      3  C   UNL     1      49.531   9.615  11.369  0.00  0.00    +0.000 A 
ATOM      4  C   UNL     1      48.291   9.675  12.006  0.00  0.00    +0.000 A 
ATOM      5  C   UNL     1      47.829   8.587  12.756  0.00  0.00    +0.000 A 
ATOM      6  C   UNL     1      48.654   7.462  12.898  0.00  0.00    +0.000 A 
ATOM      7  C   UNL     1      49.897   7.400  12.259  0.00  0.00    +0.000 A 
BRANCH   5   8
ATOM      8  C   UNL     1      46.432   8.592  13.321  0.00  0.00    +0.000 C 
BRANCH   8   9
ATOM      9  N   UNL     1      45.839   7.276  13.244  0.00  0.00    +0.000 N 
ATOM     10  C   UNL     1      45.012   6.915  12.202  0.00  0.00    +0.000 C 
ATOM     11  O   UNL     1      44.755   7.700  11.292  0.00  0.00    +0.000 OA
ATOM     12  H   UNL     1      46.025   6.606  13.979  0.00  0.00    +0.000 HD
BRANCH  10  13
ATOM     13  C   UNL     1      44.471   5.571  12.252  0.00  0.00    +0.000 A 
ATOM     14  C   UNL     1      44.923   4.515  13.023  0.00  0.00    +0.000 A 
ATOM     15  N   UNL     1      44.233   3.322  12.886  0.00  0.00    +0.000 NA
ATOM     16  C   UNL     1      43.264   3.486  12.015  0.00  0.00    +0.000 A 
ATOM     17  S   UNL     1      43.126   5.048  11.321  0.00  0.00    +0.000 S 
ENDBRANCH  10  13
ENDBRANCH   8   9
ENDBRANCH   5   8
ENDBRANCH   1   2
BRANCH   1  18
ATOM     18  N   UNL     1      52.844   8.660  10.862  0.00  0.00    +0.000 N 
ATOM     19  C   UNL     1      53.911   8.596   9.939  0.00  0.00    +0.000 C 
ATOM     20  O   UNL     1      55.048   8.937  10.263  0.00  0.00    +0.000 OA
BRANCH  19  21
ATOM     21  C   UNL     1      53.667   8.162   8.548  0.00  0.00    +0.000 A 
ATOM     22  C   UNL     1      53.573   9.001   7.447  0.00  0.00    +0.000 A 
ATOM     23  S   UNL     1      53.385   8.180   5.961  0.00  0.00    +0.000 S 
ATOM     24  C   UNL     1      53.588   6.672   6.716  0.00  0.00    +0.000 A 
ATOM     25  N   UNL     1      53.667   5.529   5.985  0.00  0.00    +0.000 NA
ATOM     26  C   UNL     1      53.897   4.471   6.688  0.00  0.00    +0.000 A 
ATOM     27  N   UNL     1      53.999   4.445   8.056  0.00  0.00    +0.000 N 
ATOM     28  C   UNL     1      53.776   5.555   8.844  0.00  0.00    +0.000 A 
ATOM     29  O   UNL     1      53.614   5.451  10.054  0.00  0.00    +0.000 OA
ATOM     30  C   UNL     1      53.667   6.791   8.092  0.00  0.00    +0.000 A 
ATOM     31  H   UNL     1      54.093   3.572   8.549  0.00  0.00    +0.000 HD
ENDBRANCH  19  21
BRANCH  18  33
ATOM     32  C   UNL     1      53.524   8.178  13.204  0.00  0.00    +0.000 C 
ATOM     33  C   UNL     1      53.132   9.233  12.180  0.00  0.00    +0.000 C 
ENDBRANCH  18  33
ENDBRANCH   1  18
TORSDOF 7
ENDMDL
MODEL 8
REMARK VINA RESULT:    -5.620      3.425      3.954
REMARK INTER + INTRA:          -9.120
REMARK INTER:                  -7.936
REMARK INTRA:                  -1.184
REMARK UNBOUND:                -1.200
REMARK  Name = 
REMARK  8 active torsions:
REMARK  status: ('A' for Active; 'I' for Inactive)
REMARK    1  A    between atoms: C_1  and  C_2
REMARK    2  A    between atoms: C_2  and  N_3
REMARK    3  A    between atoms: N_3  and  C_4
REMARK    4  A    between atoms: C_4  and  C_5
REMARK    5  A    between atoms: C_8  and  C_9
REMARK    6  A    between atoms: C_9  and  N_10
REMARK    7  A    between atoms: C_11  and  C_13
REMARK    8  A    between atoms: C_20  and  C_22
REMARK                            x       y       z     vdW  Elec       q    Type
REMARK                         _______ _______ _______ _____ _____    ______ ____
ROOT
ATOM      1  C   UNL     1      46.461   6.067  13.038  0.00  0.00    +0.000 C 
ENDROOT
BRANCH   1   2
ATOM      2  C   UNL     1      47.884   6.528  13.231  0.00  0.00    +0.000 A 
ATOM      3  C   UNL     1      48.626   6.965  12.119  0.00  0.00    +0.000 A 
ATOM      4  C   UNL     1      49.815   7.675  12.291  0.00  0.00    +0.000 A 
ATOM      5  C   UNL     1      50.298   7.942  13.576  0.00  0.00    +0.000 A 
ATOM      6  C   UNL     1      49.597   7.440  14.683  0.00  0.00    +0.000 A 
ATOM      7  C   UNL     1      48.405   6.730  14.512  0.00  0.00    +0.000 A 
BRANCH   5   8
ATOM      8  C   UNL     1      51.499   8.832  13.767  0.00  0.00    +0.000 C 
BRANCH   8   9
ATOM      9  N   UNL     1      52.409   8.269  14.740  0.00  0.00    +0.000 N 
ATOM     10  C   UNL     1      52.707   8.923  15.917  0.00  0.00    +0.000 C 
ATOM     11  O   UNL     1      52.200  10.010  16.186  0.00  0.00    +0.000 OA
ATOM     12  H   UNL     1      52.849   7.378  14.547  0.00  0.00    +0.000 HD
BRANCH  10  13
ATOM     13  C   UNL     1      53.645   8.256  16.798  0.00  0.00    +0.000 A 
ATOM     14  C   UNL     1      54.365   7.104  16.537  0.00  0.00    +0.000 A 
ATOM     15  N   UNL     1      55.198   6.664  17.552  0.00  0.00    +0.000 NA
ATOM     16  C   UNL     1      55.102   7.487  18.571  0.00  0.00    +0.000 A 
ATOM     17  S   UNL     1      54.030   8.811  18.377  0.00  0.00    +0.000 S 
ENDBRANCH  10  13
ENDBRANCH   8   9
ENDBRANCH   5   8
ENDBRANCH   1   2
BRANCH   1  18
ATOM     18  N   UNL     1      45.426   6.947  12.511  0.00  0.00    +0.000 N 
ATOM     19  C   UNL     1      44.337   6.459  11.756  0.00  0.00    +0.000 C 
ATOM     20  O   UNL     1      43.465   7.220  11.339  0.00  0.00    +0.000 OA
BRANCH  19  21
ATOM     21  C   UNL     1      44.201   5.011  11.498  0.00  0.00    +0.000 A 
ATOM     22  C   UNL     1      43.430   4.128  12.240  0.00  0.00    +0.000 A 
ATOM     23  S   UNL     1      43.406   2.536  11.622  0.00  0.00    +0.000 S 
ATOM     24  C   UNL     1      44.290   3.006  10.249  0.00  0.00    +0.000 A 
ATOM     25  N   UNL     1      44.510   2.137   9.228  0.00  0.00    +0.000 NA
ATOM     26  C   UNL     1      45.130   2.656   8.222  0.00  0.00    +0.000 A 
ATOM     27  N   UNL     1      45.595   3.946   8.167  0.00  0.00    +0.000 N 
ATOM     28  C   UNL     1      45.524   4.813   9.238  0.00  0.00    +0.000 A 
ATOM     29  O   UNL     1      46.172   5.853   9.255  0.00  0.00    +0.000 OA
ATOM     30  C   UNL     1      44.704   4.323  10.330  0.00  0.00    +0.000 A 
ATOM     31  H   UNL     1      46.146   4.262   7.385  0.00  0.00    +0.000 HD
ENDBRANCH  19  21
BRANCH  18  33
ATOM     32  C   UNL     1      45.967   9.243  11.727  0.00  0.00    +0.000 C 
ATOM     33  C   UNL     1      45.420   8.373  12.850  0.00  0.00    +0.000 C 
ENDBRANCH  18  33
ENDBRANCH   1  18
TORSDOF 7
ENDMDL
MODEL 9
REMARK VINA RESULT:    -5.233     10.387     12.825
REMARK INTER + INTRA:          -8.574
REMARK INTER:                  -6.014
REMARK INTRA:                  -2.560
REMARK UNBOUND:                -1.200
REMARK  Name = 
REMARK  8 active torsions:
REMARK  status: ('A' for Active; 'I' for Inactive)
REMARK    1  A    between atoms: C_1  and  C_2
REMARK    2  A    between atoms: C_2  and  N_3
REMARK    3  A    between atoms: N_3  and  C_4
REMARK    4  A    between atoms: C_4  and  C_5
REMARK    5  A    between atoms: C_8  and  C_9
REMARK    6  A    between atoms: C_9  and  N_10
REMARK    7  A    between atoms: C_11  and  C_13
REMARK    8  A    between atoms: C_20  and  C_22
REMARK                            x       y       z     vdW  Elec       q    Type
REMARK                         _______ _______ _______ _____ _____    ______ ____
ROOT
ATOM      1  C   UNL     1      38.659  -3.936  12.505  0.00  0.00    +0.000 C 
ENDROOT
BRANCH   1   2
ATOM      2  C   UNL     1      37.644  -3.374  13.468  0.00  0.00    +0.000 A 
ATOM      3  C   UNL     1      37.436  -4.012  14.704  0.00  0.00    +0.000 A 
ATOM      4  C   UNL     1      36.746  -3.367  15.732  0.00  0.00    +0.000 A 
ATOM      5  C   UNL     1      36.230  -2.081  15.537  0.00  0.00    +0.000 A 
ATOM      6  C   UNL     1      36.372  -1.477  14.279  0.00  0.00    +0.000 A 
ATOM      7  C   UNL     1      37.065  -2.121  13.249  0.00  0.00    +0.000 A 
BRANCH   5   8
ATOM      8  C   UNL     1      35.615  -1.327  16.687  0.00  0.00    +0.000 C 
BRANCH   8   9
ATOM      9  N   UNL     1      36.130   0.021  16.755  0.00  0.00    +0.000 N 
ATOM     10  C   UNL     1      37.272   0.326  17.467  0.00  0.00    +0.000 C 
ATOM     11  O   UNL     1      37.899  -0.546  18.064  0.00  0.00    +0.000 OA
ATOM     12  H   UNL     1      35.635   0.765  16.279  0.00  0.00    +0.000 HD
BRANCH  10  13
ATOM     13  C   UNL     1      37.672   1.719  17.466  0.00  0.00    +0.000 A 
ATOM     14  C   UNL     1      37.505   2.638  16.445  0.00  0.00    +0.000 A 
ATOM     15  N   UNL     1      37.981   3.914  16.691  0.00  0.00    +0.000 NA
ATOM     16  C   UNL     1      38.503   3.951  17.896  0.00  0.00    +0.000 A 
ATOM     17  S   UNL     1      38.456   2.487  18.787  0.00  0.00    +0.000 S 
ENDBRANCH  10  13
ENDBRANCH   8   9
ENDBRANCH   5   8
ENDBRANCH   1   2
BRANCH   1  18
ATOM     18  N   UNL     1      39.832  -3.178  12.087  0.00  0.00    +0.000 N 
ATOM     19  C   UNL     1      41.025  -3.161  12.844  0.00  0.00    +0.000 C 
ATOM     20  O   UNL     1      42.008  -2.530  12.461  0.00  0.00    +0.000 OA
BRANCH  19  21
ATOM     21  C   UNL     1      41.125  -3.948  14.091  0.00  0.00    +0.000 A 
ATOM     22  C   UNL     1      41.621  -5.240  14.191  0.00  0.00    +0.000 A 
ATOM     23  S   UNL     1      41.696  -5.834  15.790  0.00  0.00    +0.000 S 
ATOM     24  C   UNL     1      41.226  -4.328  16.421  0.00  0.00    +0.000 A 
ATOM     25  N   UNL     1      41.216  -4.104  17.761  0.00  0.00    +0.000 NA
ATOM     26  C   UNL     1      40.910  -2.893  18.088  0.00  0.00    +0.000 A 
ATOM     27  N   UNL     1      40.562  -1.905  17.202  0.00  0.00    +0.000 N 
ATOM     28  C   UNL     1      40.414  -2.132  15.849  0.00  0.00    +0.000 A 
ATOM     29  O   UNL     1      39.854  -1.315  15.128  0.00  0.00    +0.000 OA
ATOM     30  C   UNL     1      40.893  -3.432  15.421  0.00  0.00    +0.000 A 
ATOM     31  H   UNL     1      40.251  -1.005  17.530  0.00  0.00    +0.000 HD
ENDBRANCH  19  21
BRANCH  18  33
ATOM     32  C   UNL     1      38.648  -2.840   9.928  0.00  0.00    +0.000 C 
ATOM     33  C   UNL     1      39.852  -2.493  10.792  0.00  0.00    +0.000 C 
ENDBRANCH  18  33
ENDBRANCH   1  18
TORSDOF 7
ENDMDL
