MODEL 1
REMARK VINA RESULT:    -7.582      0.000      0.000
REMARK INTER + INTRA:         -11.380
REMARK INTER:                 -10.464
REMARK INTRA:                  -0.916
REMARK UNBOUND:                -0.916
REMARK  Name = 
REMARK  7 active torsions:
REMARK  status: ('A' for Active; 'I' for Inactive)
REMARK    1  A    between atoms: C_2  and  C_21
REMARK    2  A    between atoms: N_3  and  C_4
REMARK    3  A    between atoms: C_4  and  C_5
REMARK    4  A    between atoms: C_8  and  C_9
REMARK    5  A    between atoms: C_9  and  N_10
REMARK    6  A    between atoms: C_11  and  C_13
REMARK    7  A    between atoms: C_13  and  O_14
REMARK                            x       y       z     vdW  Elec       q    Type
REMARK                         _______ _______ _______ _____ _____    ______ ____
ROOT
ATOM      1  C   UNL     1      46.634   4.773  14.356  0.00  0.00    +0.000 A 
ATOM      2  C   UNL     1      45.712   4.057  13.580  0.00  0.00    +0.000 A 
ATOM      3  C   UNL     1      45.426   4.448  12.266  0.00  0.00    +0.000 A 
ATOM      4  C   UNL     1      46.076   5.547  11.690  0.00  0.00    +0.000 A 
ATOM      5  C   UNL     1      47.012   6.252  12.460  0.00  0.00    +0.000 A 
ATOM      6  C   UNL     1      47.298   5.862  13.774  0.00  0.00    +0.000 A 
ENDROOT
BRANCH   1   7
ATOM      7  C   UNL     1      46.885   4.398  15.794  0.00  0.00    +0.000 C 
BRANCH   7  10
ATOM      8  O   UNL     1      47.951   5.184  18.208  0.00  0.00    +0.000 OA
ATOM      9  C   UNL     1      48.707   4.666  17.388  0.00  0.00    +0.000 C 
ATOM     10  N   UNL     1      48.285   4.324  16.124  0.00  0.00    +0.000 N 
ATOM     11  H   UNL     1      48.867   3.721  15.551  0.00  0.00    +0.000 HD
BRANCH   9  12
ATOM     12  C   UNL     1      50.114   4.409  17.717  0.00  0.00    +0.000 A 
ATOM     13  C   UNL     1      50.875   5.399  18.323  0.00  0.00    +0.000 A 
ATOM     14  S   UNL     1      52.479   4.919  18.657  0.00  0.00    +0.000 S 
ATOM     15  C   UNL     1      52.196   3.357  18.043  0.00  0.00    +0.000 A 
ATOM     16  N   UNL     1      53.166   2.405  18.076  0.00  0.00    +0.000 NA
ATOM     17  C   UNL     1      52.798   1.255  17.619  0.00  0.00    +0.000 A 
ATOM     18  N   UNL     1      51.554   0.975  17.116  0.00  0.00    +0.000 N 
ATOM     19  C   UNL     1      50.558   1.921  17.019  0.00  0.00    +0.000 A 
ATOM     20  O   UNL     1      49.484   1.656  16.494  0.00  0.00    +0.000 OA
ATOM     21  C   UNL     1      50.909   3.217  17.560  0.00  0.00    +0.000 A 
ATOM     22  H   UNL     1      51.338   0.059  16.754  0.00  0.00    +0.000 HD
ENDBRANCH   9  12
ENDBRANCH   7  10
ENDBRANCH   1   7
BRANCH   4  23
ATOM     23  C   UNL     1      45.796   5.947  10.266  0.00  0.00    +0.000 C 
BRANCH  23  24
ATOM     24  N   UNL     1      45.342   4.848   9.448  0.00  0.00    +0.000 N 
ATOM     25  C   UNL     1      46.095   4.472   8.344  0.00  0.00    +0.000 C 
ATOM     26  O   UNL     1      47.080   5.109   7.970  0.00  0.00    +0.000 OA
ATOM     27  H   UNL     1      44.785   4.107   9.862  0.00  0.00    +0.000 HD
BRANCH  25  28
ATOM     28  C   UNL     1      45.526   3.225   7.572  0.00  0.00    +0.000 C 
ATOM     29  C   UNL     1      46.092   3.207   6.154  0.00  0.00    +0.000 C 
ATOM     30  C   UNL     1      47.227   2.201   6.211  0.00  0.00    +0.000 C 
ATOM     31  C   UNL     1      47.189   1.648   7.620  0.00  0.00    +0.000 C 
ATOM     32  O   UNL     1      45.901   1.980   8.149  0.00  0.00    +0.000 OA
BRANCH  28  33
ATOM     33  O   UNL     1      44.106   3.290   7.526  0.00  0.00    +0.000 OA
ATOM     34  H   UNL     1      43.814   2.656   8.203  0.00  0.00    +0.000 HD
ENDBRANCH  28  33
ENDBRANCH  25  28
ENDBRANCH  23  24
ENDBRANCH   4  23
TORSDOF 7
ENDMDL
MODEL 2
REMARK VINA RESULT:    -7.347      2.384      3.090
REMARK INTER + INTRA:         -11.055
REMARK INTER:                 -10.179
REMARK INTRA:                  -0.876
REMARK UNBOUND:                -0.916
REMARK  Name = 
REMARK  7 active torsions:
REMARK  status: ('A' for Active; 'I' for Inactive)
REMARK    1  A    between atoms: C_2  and  C_21
REMARK    2  A    between atoms: N_3  and  C_4
REMARK    3  A    between atoms: C_4  and  C_5
REMARK    4  A    between atoms: C_8  and  C_9
REMARK    5  A    between atoms: C_9  and  N_10
REMARK    6  A    between atoms: C_11  and  C_13
REMARK    7  A    between atoms: C_13  and  O_14
REMARK                            x       y       z     vdW  Elec       q    Type
REMARK                         _______ _______ _______ _____ _____    ______ ____
ROOT
ATOM      1  C   UNL     1      46.274   6.070  12.313  0.00  0.00    +0.000 A 
ATOM      2  C   UNL     1      45.985   4.844  12.928  0.00  0.00    +0.000 A 
ATOM      3  C   UNL     1      45.336   3.825  12.221  0.00  0.00    +0.000 A 
ATOM      4  C   UNL     1      44.985   4.000  10.876  0.00  0.00    +0.000 A 
ATOM      5  C   UNL     1      45.290   5.220  10.256  0.00  0.00    +0.000 A 
ATOM      6  C   UNL     1      45.939   6.239  10.963  0.00  0.00    +0.000 A 
ENDROOT
BRANCH   1   7
ATOM      7  C   UNL     1      46.904   7.193  13.096  0.00  0.00    +0.000 C 
BRANCH   7  10
ATOM      8  O   UNL     1      49.549   6.873  13.791  0.00  0.00    +0.000 OA
ATOM      9  C   UNL     1      48.704   6.737  14.673  0.00  0.00    +0.000 C 
ATOM     10  N   UNL     1      47.356   6.789  14.403  0.00  0.00    +0.000 N 
ATOM     11  H   UNL     1      46.697   6.877  15.171  0.00  0.00    +0.000 HD
BRANCH   9  12
ATOM     12  C   UNL     1      49.099   6.484  16.063  0.00  0.00    +0.000 A 
ATOM     13  C   UNL     1      49.777   7.460  16.780  0.00  0.00    +0.000 A 
ATOM     14  S   UNL     1      50.132   7.006  18.386  0.00  0.00    +0.000 S 
ATOM     15  C   UNL     1      49.351   5.508  18.192  0.00  0.00    +0.000 A 
ATOM     16  N   UNL     1      49.246   4.632  19.228  0.00  0.00    +0.000 NA
ATOM     17  C   UNL     1      48.589   3.556  18.950  0.00  0.00    +0.000 A 
ATOM     18  N   UNL     1      48.043   3.267  17.727  0.00  0.00    +0.000 N 
ATOM     19  C   UNL     1      48.167   4.100  16.638  0.00  0.00    +0.000 A 
ATOM     20  O   UNL     1      47.733   3.776  15.540  0.00  0.00    +0.000 OA
ATOM     21  C   UNL     1      48.859   5.343  16.911  0.00  0.00    +0.000 A 
ATOM     22  H   UNL     1      47.560   2.395  17.571  0.00  0.00    +0.000 HD
ENDBRANCH   9  12
ENDBRANCH   7  10
ENDBRANCH   1   7
BRANCH   4  23
ATOM     23  C   UNL     1      44.318   2.892  10.105  0.00  0.00    +0.000 C 
BRANCH  23  24
ATOM     24  N   UNL     1      45.249   2.081   9.358  0.00  0.00    +0.000 N 
ATOM     25  C   UNL     1      45.589   2.458   8.067  0.00  0.00    +0.000 C 
ATOM     26  O   UNL     1      45.045   3.398   7.490  0.00  0.00    +0.000 OA
ATOM     27  H   UNL     1      45.955   1.541   9.851  0.00  0.00    +0.000 HD
BRANCH  25  28
ATOM     28  C   UNL     1      46.657   1.524   7.385  0.00  0.00    +0.000 C 
ATOM     29  C   UNL     1      46.441   1.531   5.873  0.00  0.00    +0.000 C 
ATOM     30  C   UNL     1      47.481   2.500   5.345  0.00  0.00    +0.000 C 
ATOM     31  C   UNL     1      48.275   2.924   6.563  0.00  0.00    +0.000 C 
ATOM     32  O   UNL     1      47.997   1.957   7.581  0.00  0.00    +0.000 OA
BRANCH  28  33
ATOM     33  O   UNL     1      46.533   0.200   7.887  0.00  0.00    +0.000 OA
ATOM     34  H   UNL     1      45.860   0.268   8.585  0.00  0.00    +0.000 HD
ENDBRANCH  28  33
ENDBRANCH  25  28
ENDBRANCH  23  24
ENDBRANCH   4  23
TORSDOF 7
ENDMDL
MODEL 3
REMARK VINA RESULT:    -7.331      5.392      7.094
REMARK INTER + INTRA:         -11.033
REMARK INTER:                 -10.070
REMARK INTRA:                  -0.963
REMARK UNBOUND:                -0.916
REMARK  Name = 
REMARK  7 active torsions:
REMARK  status: ('A' for Active; 'I' for Inactive)
REMARK    1  A    between atoms: C_2  and  C_21
REMARK    2  A    between atoms: N_3  and  C_4
REMARK    3  A    between atoms: C_4  and  C_5
REMARK    4  A    between atoms: C_8  and  C_9
REMARK    5  A    between atoms: C_9  and  N_10
REMARK    6  A    between atoms: C_11  and  C_13
REMARK    7  A    between atoms: C_13  and  O_14
REMARK                            x       y       z     vdW  Elec       q    Type
REMARK                         _______ _______ _______ _____ _____    ______ ____
ROOT
ATOM      1  C   UNL     1      49.352   7.576  12.040  0.00  0.00    +0.000 A 
ATOM      2  C   UNL     1      48.226   7.475  11.211  0.00  0.00    +0.000 A 
ATOM      3  C   UNL     1      47.069   6.822  11.653  0.00  0.00    +0.000 A 
ATOM      4  C   UNL     1      47.003   6.279  12.943  0.00  0.00    +0.000 A 
ATOM      5  C   UNL     1      48.123   6.396  13.778  0.00  0.00    +0.000 A 
ATOM      6  C   UNL     1      49.280   7.048  13.336  0.00  0.00    +0.000 A 
ENDROOT
BRANCH   1   7
ATOM      7  C   UNL     1      50.623   8.211  11.537  0.00  0.00    +0.000 C 
BRANCH   7  10
ATOM      8  O   UNL     1      52.441   8.684   9.524  0.00  0.00    +0.000 OA
ATOM      9  C   UNL     1      52.512   7.613  10.121  0.00  0.00    +0.000 C 
ATOM     10  N   UNL     1      51.594   7.250  11.079  0.00  0.00    +0.000 N 
ATOM     11  H   UNL     1      51.795   6.464  11.689  0.00  0.00    +0.000 HD
BRANCH   9  12
ATOM     12  C   UNL     1      53.578   6.651   9.818  0.00  0.00    +0.000 A 
ATOM     13  C   UNL     1      54.570   6.397  10.756  0.00  0.00    +0.000 A 
ATOM     14  S   UNL     1      55.710   5.233  10.247  0.00  0.00    +0.000 S 
ATOM     15  C   UNL     1      54.891   4.995   8.775  0.00  0.00    +0.000 A 
ATOM     16  N   UNL     1      55.321   4.073   7.874  0.00  0.00    +0.000 NA
ATOM     17  C   UNL     1      54.578   3.968   6.823  0.00  0.00    +0.000 A 
ATOM     18  N   UNL     1      53.454   4.713   6.583  0.00  0.00    +0.000 N 
ATOM     19  C   UNL     1      53.008   5.692   7.444  0.00  0.00    +0.000 A 
ATOM     20  O   UNL     1      52.044   6.391   7.163  0.00  0.00    +0.000 OA
ATOM     21  C   UNL     1      53.785   5.817   8.660  0.00  0.00    +0.000 A 
ATOM     22  H   UNL     1      52.929   4.597   5.730  0.00  0.00    +0.000 HD
ENDBRANCH   9  12
ENDBRANCH   7  10
ENDBRANCH   1   7
BRANCH   4  23
ATOM     23  C   UNL     1      45.747   5.608  13.431  0.00  0.00    +0.000 C 
BRANCH  23  24
ATOM     24  N   UNL     1      44.944   5.063  12.363  0.00  0.00    +0.000 N 
ATOM     25  C   UNL     1      44.935   3.691  12.157  0.00  0.00    +0.000 C 
ATOM     26  O   UNL     1      45.672   2.926  12.778  0.00  0.00    +0.000 OA
ATOM     27  H   UNL     1      44.102   5.549  12.067  0.00  0.00    +0.000 HD
BRANCH  25  28
ATOM     28  C   UNL     1      43.973   3.220  11.003  0.00  0.00    +0.000 C 
ATOM     29  C   UNL     1      43.674   4.400  10.082  0.00  0.00    +0.000 C 
ATOM     30  C   UNL     1      44.601   4.203   8.899  0.00  0.00    +0.000 C 
ATOM     31  C   UNL     1      45.310   2.892   9.170  0.00  0.00    +0.000 C 
ATOM     32  O   UNL     1      44.537   2.216  10.168  0.00  0.00    +0.000 OA
BRANCH  28  33
ATOM     33  O   UNL     1      42.764   2.717  11.557  0.00  0.00    +0.000 OA
ATOM     34  H   UNL     1      42.175   3.489  11.590  0.00  0.00    +0.000 HD
ENDBRANCH  28  33
ENDBRANCH  25  28
ENDBRANCH  23  24
ENDBRANCH   4  23
TORSDOF 7
ENDMDL
MODEL 4
REMARK VINA RESULT:    -7.142      2.193      2.866
REMARK INTER + INTRA:         -10.772
REMARK INTER:                 -10.364
REMARK INTRA:                  -0.408
REMARK UNBOUND:                -0.916
REMARK  Name = 
REMARK  7 active torsions:
REMARK  status: ('A' for Active; 'I' for Inactive)
REMARK    1  A    between atoms: C_2  and  C_21
REMARK    2  A    between atoms: N_3  and  C_4
REMARK    3  A    between atoms: C_4  and  C_5
REMARK    4  A    between atoms: C_8  and  C_9
REMARK    5  A    between atoms: C_9  and  N_10
REMARK    6  A    between atoms: C_11  and  C_13
REMARK    7  A    between atoms: C_13  and  O_14
REMARK                            x       y       z     vdW  Elec       q    Type
REMARK                         _______ _______ _______ _____ _____    ______ ____
ROOT
ATOM      1  C   UNL     1      48.102   5.250  15.902  0.00  0.00    +0.000 A 
ATOM      2  C   UNL     1      47.172   4.452  15.223  0.00  0.00    +0.000 A 
ATOM      3  C   UNL     1      46.707   4.818  13.954  0.00  0.00    +0.000 A 
ATOM      4  C   UNL     1      47.182   5.976  13.325  0.00  0.00    +0.000 A 
ATOM      5  C   UNL     1      48.127   6.765  13.997  0.00  0.00    +0.000 A 
ATOM      6  C   UNL     1      48.592   6.399  15.266  0.00  0.00    +0.000 A 
ENDROOT
BRANCH   1   7
ATOM      7  C   UNL     1      48.545   4.896  17.299  0.00  0.00    +0.000 C 
BRANCH   7  10
ATOM      8  O   UNL     1      50.008   4.779  19.628  0.00  0.00    +0.000 OA
ATOM      9  C   UNL     1      50.544   4.388  18.594  0.00  0.00    +0.000 C 
ATOM     10  N   UNL     1      49.926   4.491  17.370  0.00  0.00    +0.000 N 
ATOM     11  H   UNL     1      50.302   3.980  16.577  0.00  0.00    +0.000 HD
BRANCH   9  12
ATOM     12  C   UNL     1      51.893   3.809  18.616  0.00  0.00    +0.000 A 
ATOM     13  C   UNL     1      52.927   4.487  19.246  0.00  0.00    +0.000 A 
ATOM     14  S   UNL     1      54.418   3.657  19.198  0.00  0.00    +0.000 S 
ATOM     15  C   UNL     1      53.720   2.342  18.374  0.00  0.00    +0.000 A 
ATOM     16  N   UNL     1      54.453   1.240  18.062  0.00  0.00    +0.000 NA
ATOM     17  C   UNL     1      53.784   0.303  17.479  0.00  0.00    +0.000 A 
ATOM     18  N   UNL     1      52.453   0.374  17.163  0.00  0.00    +0.000 N 
ATOM     19  C   UNL     1      51.683   1.487  17.415  0.00  0.00    +0.000 A 
ATOM     20  O   UNL     1      50.516   1.546  17.050  0.00  0.00    +0.000 OA
ATOM     21  C   UNL     1      52.379   2.551  18.109  0.00  0.00    +0.000 A 
ATOM     22  H   UNL     1      51.995  -0.388  16.685  0.00  0.00    +0.000 HD
ENDBRANCH   9  12
ENDBRANCH   7  10
ENDBRANCH   1   7
BRANCH   4  23
ATOM     23  C   UNL     1      46.709   6.352  11.947  0.00  0.00    +0.000 C 
BRANCH  23  24
ATOM     24  N   UNL     1      45.494   5.677  11.560  0.00  0.00    +0.000 N 
ATOM     25  C   UNL     1      45.340   5.263  10.245  0.00  0.00    +0.000 C 
ATOM     26  O   UNL     1      46.153   5.544   9.365  0.00  0.00    +0.000 OA
ATOM     27  H   UNL     1      44.979   5.133  12.247  0.00  0.00    +0.000 HD
BRANCH  25  28
ATOM     28  C   UNL     1      43.999   4.487   9.968  0.00  0.00    +0.000 C 
ATOM     29  C   UNL     1      44.138   3.047  10.456  0.00  0.00    +0.000 C 
ATOM     30  C   UNL     1      43.445   3.034  11.805  0.00  0.00    +0.000 C 
ATOM     31  C   UNL     1      42.883   4.431  11.970  0.00  0.00    +0.000 C 
ATOM     32  O   UNL     1      42.879   5.020  10.665  0.00  0.00    +0.000 OA
BRANCH  28  33
ATOM     33  O   UNL     1      43.710   4.501   8.576  0.00  0.00    +0.000 OA
ATOM     34  H   UNL     1      44.535   4.204   8.155  0.00  0.00    +0.000 HD
ENDBRANCH  28  33
ENDBRANCH  25  28
ENDBRANCH  23  24
ENDBRANCH   4  23
TORSDOF 7
ENDMDL
MODEL 5
REMARK VINA RESULT:    -7.006      4.031      9.254
REMARK INTER + INTRA:         -10.585
REMARK INTER:                  -9.667
REMARK INTRA:                  -0.918
REMARK UNBOUND:                -0.916
REMARK  Name = 
REMARK  7 active torsions:
REMARK  status: ('A' for Active; 'I' for Inactive)
REMARK    1  A    between atoms: C_2  and  C_21
REMARK    2  A    between atoms: N_3  and  C_4
REMARK    3  A    between atoms: C_4  and  C_5
REMARK    4  A    between atoms: C_8  and  C_9
REMARK    5  A    between atoms: C_9  and  N_10
REMARK    6  A    between atoms: C_11  and  C_13
REMARK    7  A    between atoms: C_13  and  O_14
REMARK                            x       y       z     vdW  Elec       q    Type
REMARK                         _______ _______ _______ _____ _____    ______ ____
ROOT
ATOM      1  C   UNL     1      48.489   8.007  13.639  0.00  0.00    +0.000 A 
ATOM      2  C   UNL     1      47.915   8.976  14.473  0.00  0.00    +0.000 A 
ATOM      3  C   UNL     1      48.075   8.911  15.862  0.00  0.00    +0.000 A 
ATOM      4  C   UNL     1      48.834   7.889  16.447  0.00  0.00    +0.000 A 
ATOM      5  C   UNL     1      49.423   6.929  15.612  0.00  0.00    +0.000 A 
ATOM      6  C   UNL     1      49.264   6.995  14.222  0.00  0.00    +0.000 A 
ENDROOT
BRANCH   1   7
ATOM      7  C   UNL     1      48.254   8.035  12.151  0.00  0.00    +0.000 C 
BRANCH   7  10
ATOM      8  O   UNL     1      45.531   7.874  11.777  0.00  0.00    +0.000 OA
ATOM      9  C   UNL     1      46.214   6.912  11.434  0.00  0.00    +0.000 C 
ATOM     10  N   UNL     1      47.570   6.864  11.663  0.00  0.00    +0.000 N 
ATOM     11  H   UNL     1      48.130   6.160  11.192  0.00  0.00    +0.000 HD
BRANCH   9  12
ATOM     12  C   UNL     1      45.604   5.748  10.781  0.00  0.00    +0.000 A 
ATOM     13  C   UNL     1      45.839   5.508   9.434  0.00  0.00    +0.000 A 
ATOM     14  S   UNL     1      45.074   4.099   8.847  0.00  0.00    +0.000 S 
ATOM     15  C   UNL     1      44.442   3.737  10.385  0.00  0.00    +0.000 A 
ATOM     16  N   UNL     1      43.714   2.609  10.596  0.00  0.00    +0.000 NA
ATOM     17  C   UNL     1      43.337   2.440  11.819  0.00  0.00    +0.000 A 
ATOM     18  N   UNL     1      43.607   3.305  12.847  0.00  0.00    +0.000 N 
ATOM     19  C   UNL     1      44.298   4.483  12.670  0.00  0.00    +0.000 A 
ATOM     20  O   UNL     1      44.454   5.269  13.595  0.00  0.00    +0.000 OA
ATOM     21  C   UNL     1      44.780   4.696  11.322  0.00  0.00    +0.000 A 
ATOM     22  H   UNL     1      43.263   3.124  13.778  0.00  0.00    +0.000 HD
ENDBRANCH   9  12
ENDBRANCH   7  10
ENDBRANCH   1   7
BRANCH   4  23
ATOM     23  C   UNL     1      49.035   7.837  17.937  0.00  0.00    +0.000 C 
BRANCH  23  24
ATOM     24  N   UNL     1      49.402   6.526  18.415  0.00  0.00    +0.000 N 
ATOM     25  C   UNL     1      48.402   5.616  18.725  0.00  0.00    +0.000 C 
ATOM     26  O   UNL     1      47.209   5.917  18.712  0.00  0.00    +0.000 OA
ATOM     27  H   UNL     1      50.287   6.115  18.131  0.00  0.00    +0.000 HD
BRANCH  25  28
ATOM     28  C   UNL     1      48.934   4.205  19.176  0.00  0.00    +0.000 C 
ATOM     29  C   UNL     1      48.313   3.125  18.294  0.00  0.00    +0.000 C 
ATOM     30  C   UNL     1      49.388   2.803  17.274  0.00  0.00    +0.000 C 
ATOM     31  C   UNL     1      50.577   3.648  17.679  0.00  0.00    +0.000 C 
ATOM     32  O   UNL     1      50.341   4.055  19.030  0.00  0.00    +0.000 OA
BRANCH  28  33
ATOM     33  O   UNL     1      48.595   3.973  20.538  0.00  0.00    +0.000 OA
ATOM     34  H   UNL     1      49.452   3.866  20.985  0.00  0.00    +0.000 HD
ENDBRANCH  28  33
ENDBRANCH  25  28
ENDBRANCH  23  24
ENDBRANCH   4  23
TORSDOF 7
ENDMDL
MODEL 6
REMARK VINA RESULT:    -6.925      3.210      4.061
REMARK INTER + INTRA:         -10.473
REMARK INTER:                  -9.263
REMARK INTRA:                  -1.210
REMARK UNBOUND:                -0.916
REMARK  Name = 
REMARK  7 active torsions:
REMARK  status: ('A' for Active; 'I' for Inactive)
REMARK    1  A    between atoms: C_2  and  C_21
REMARK    2  A    between atoms: N_3  and  C_4
REMARK    3  A    between atoms: C_4  and  C_5
REMARK    4  A    between atoms: C_8  and  C_9
REMARK    5  A    between atoms: C_9  and  N_10
REMARK    6  A    between atoms: C_11  and  C_13
REMARK    7  A    between atoms: C_13  and  O_14
REMARK                            x       y       z     vdW  Elec       q    Type
REMARK                         _______ _______ _______ _____ _____    ______ ____
ROOT
ATOM      1  C   UNL     1      48.810   8.087  13.088  0.00  0.00    +0.000 A 
ATOM      2  C   UNL     1      48.373   7.077  12.220  0.00  0.00    +0.000 A 
ATOM      3  C   UNL     1      47.081   7.105  11.681  0.00  0.00    +0.000 A 
ATOM      4  C   UNL     1      46.206   8.158  11.978  0.00  0.00    +0.000 A 
ATOM      5  C   UNL     1      46.649   9.178  12.832  0.00  0.00    +0.000 A 
ATOM      6  C   UNL     1      47.941   9.149  13.371  0.00  0.00    +0.000 A 
ENDROOT
BRANCH   1   7
ATOM      7  C   UNL     1      50.173   8.016  13.727  0.00  0.00    +0.000 C 
BRANCH   7  10
ATOM      8  O   UNL     1      49.596   8.463  16.382  0.00  0.00    +0.000 OA
ATOM      9  C   UNL     1      49.875   7.315  16.041  0.00  0.00    +0.000 C 
ATOM     10  N   UNL     1      50.264   7.012  14.757  0.00  0.00    +0.000 N 
ATOM     11  H   UNL     1      50.288   6.041  14.460  0.00  0.00    +0.000 HD
BRANCH   9  12
ATOM     12  C   UNL     1      49.830   6.210  17.005  0.00  0.00    +0.000 A 
ATOM     13  C   UNL     1      50.672   6.218  18.109  0.00  0.00    +0.000 A 
ATOM     14  S   UNL     1      50.465   4.871  19.136  0.00  0.00    +0.000 S 
ATOM     15  C   UNL     1      49.211   4.255  18.165  0.00  0.00    +0.000 A 
ATOM     16  N   UNL     1      48.547   3.121  18.513  0.00  0.00    +0.000 NA
ATOM     17  C   UNL     1      47.591   2.796  17.709  0.00  0.00    +0.000 A 
ATOM     18  N   UNL     1      47.249   3.491  16.579  0.00  0.00    +0.000 N 
ATOM     19  C   UNL     1      47.924   4.617  16.162  0.00  0.00    +0.000 A 
ATOM     20  O   UNL     1      47.642   5.170  15.107  0.00  0.00    +0.000 OA
ATOM     21  C   UNL     1      48.979   5.047  17.056  0.00  0.00    +0.000 A 
ATOM     22  H   UNL     1      46.504   3.170  15.980  0.00  0.00    +0.000 HD
ENDBRANCH   9  12
ENDBRANCH   7  10
ENDBRANCH   1   7
BRANCH   4  23
ATOM     23  C   UNL     1      44.830   8.207  11.372  0.00  0.00    +0.000 C 
BRANCH  23  24
ATOM     24  N   UNL     1      44.302   6.902  11.055  0.00  0.00    +0.000 N 
ATOM     25  C   UNL     1      43.940   6.050  12.088  0.00  0.00    +0.000 C 
ATOM     26  O   UNL     1      44.151   6.320  13.270  0.00  0.00    +0.000 OA
ATOM     27  H   UNL     1      43.802   6.759  10.182  0.00  0.00    +0.000 HD
BRANCH  25  28
ATOM     28  C   UNL     1      43.323   4.684  11.609  0.00  0.00    +0.000 C 
ATOM     29  C   UNL     1      43.793   4.388  10.188  0.00  0.00    +0.000 C 
ATOM     30  C   UNL     1      44.930   3.400  10.361  0.00  0.00    +0.000 C 
ATOM     31  C   UNL     1      44.989   3.128  11.850  0.00  0.00    +0.000 C 
ATOM     32  O   UNL     1      43.738   3.569  12.389  0.00  0.00    +0.000 OA
BRANCH  28  33
ATOM     33  O   UNL     1      41.903   4.755  11.646  0.00  0.00    +0.000 OA
ATOM     34  H   UNL     1      41.609   3.936  11.214  0.00  0.00    +0.000 HD
ENDBRANCH  28  33
ENDBRANCH  25  28
ENDBRANCH  23  24
ENDBRANCH   4  23
TORSDOF 7
ENDMDL
MODEL 7
REMARK VINA RESULT:    -6.860      5.794      8.513
REMARK INTER + INTRA:         -10.382
REMARK INTER:                  -9.383
REMARK INTRA:                  -1.000
REMARK UNBOUND:                -0.916
REMARK  Name = 
REMARK  7 active torsions:
REMARK  status: ('A' for Active; 'I' for Inactive)
REMARK    1  A    between atoms: C_2  and  C_21
REMARK    2  A    between atoms: N_3  and  C_4
REMARK    3  A    between atoms: C_4  and  C_5
REMARK    4  A    between atoms: C_8  and  C_9
REMARK    5  A    between atoms: C_9  and  N_10
REMARK    6  A    between atoms: C_11  and  C_13
REMARK    7  A    between atoms: C_13  and  O_14
REMARK                            x       y       z     vdW  Elec       q    Type
REMARK                         _______ _______ _______ _____ _____    ______ ____
ROOT
ATOM      1  C   UNL     1      47.604   8.532  12.251  0.00  0.00    +0.000 A 
ATOM      2  C   UNL     1      48.461   7.472  11.923  0.00  0.00    +0.000 A 
ATOM      3  C   UNL     1      49.763   7.717  11.471  0.00  0.00    +0.000 A 
ATOM      4  C   UNL     1      50.246   9.028  11.363  0.00  0.00    +0.000 A 
ATOM      5  C   UNL     1      49.396  10.088  11.709  0.00  0.00    +0.000 A 
ATOM      6  C   UNL     1      48.094   9.842  12.160  0.00  0.00    +0.000 A 
ENDROOT
BRANCH   1   7
ATOM      7  C   UNL     1      46.179   8.270  12.664  0.00  0.00    +0.000 C 
BRANCH   7  10
ATOM      8  O   UNL     1      43.943   7.464  11.274  0.00  0.00    +0.000 OA
ATOM      9  C   UNL     1      44.692   6.593  11.710  0.00  0.00    +0.000 C 
ATOM     10  N   UNL     1      45.783   6.895  12.492  0.00  0.00    +0.000 N 
ATOM     11  H   UNL     1      46.487   6.183  12.661  0.00  0.00    +0.000 HD
BRANCH   9  12
ATOM     12  C   UNL     1      44.440   5.174  11.433  0.00  0.00    +0.000 A 
ATOM     13  C   UNL     1      43.667   4.424  12.309  0.00  0.00    +0.000 A 
ATOM     14  S   UNL     1      43.455   2.803  11.818  0.00  0.00    +0.000 S 
ATOM     15  C   UNL     1      44.350   3.061  10.394  0.00  0.00    +0.000 A 
ATOM     16  N   UNL     1      44.514   2.069   9.479  0.00  0.00    +0.000 NA
ATOM     17  C   UNL     1      45.175   2.419   8.428  0.00  0.00    +0.000 A 
ATOM     18  N   UNL     1      45.704   3.665   8.215  0.00  0.00    +0.000 N 
ATOM     19  C   UNL     1      45.605   4.685   9.135  0.00  0.00    +0.000 A 
ATOM     20  O   UNL     1      46.155   5.763   8.947  0.00  0.00    +0.000 OA
ATOM     21  C   UNL     1      44.832   4.354  10.314  0.00  0.00    +0.000 A 
ATOM     22  H   UNL     1      46.231   3.866   7.379  0.00  0.00    +0.000 HD
ENDBRANCH   9  12
ENDBRANCH   7  10
ENDBRANCH   1   7
BRANCH   4  23
ATOM     23  C   UNL     1      51.657   9.292  10.911  0.00  0.00    +0.000 C 
BRANCH  23  24
ATOM     24  N   UNL     1      52.216   8.211  10.134  0.00  0.00    +0.000 N 
ATOM     25  C   UNL     1      53.329   7.538  10.617  0.00  0.00    +0.000 C 
ATOM     26  O   UNL     1      53.929   7.895  11.630  0.00  0.00    +0.000 OA
ATOM     27  H   UNL     1      51.615   7.667   9.522  0.00  0.00    +0.000 HD
BRANCH  25  28
ATOM     28  C   UNL     1      53.803   6.343   9.708  0.00  0.00    +0.000 C 
ATOM     29  C   UNL     1      53.051   6.390   8.380  0.00  0.00    +0.000 C 
ATOM     30  C   UNL     1      54.025   7.038   7.414  0.00  0.00    +0.000 C 
ATOM     31  C   UNL     1      55.293   7.244   8.217  0.00  0.00    +0.000 C 
ATOM     32  O   UNL     1      55.183   6.400   9.368  0.00  0.00    +0.000 OA
BRANCH  28  33
ATOM     33  O   UNL     1      53.551   5.107  10.364  0.00  0.00    +0.000 OA
ATOM     34  H   UNL     1      54.236   4.508  10.022  0.00  0.00    +0.000 HD
ENDBRANCH  28  33
ENDBRANCH  25  28
ENDBRANCH  23  24
ENDBRANCH   4  23
TORSDOF 7
ENDMDL
MODEL 8
REMARK VINA RESULT:    -6.774      2.956      4.261
REMARK INTER + INTRA:         -10.264
REMARK INTER:                  -9.440
REMARK INTRA:                  -0.824
REMARK UNBOUND:                -0.916
REMARK  Name = 
REMARK  7 active torsions:
REMARK  status: ('A' for Active; 'I' for Inactive)
REMARK    1  A    between atoms: C_2  and  C_21
REMARK    2  A    between atoms: N_3  and  C_4
REMARK    3  A    between atoms: C_4  and  C_5
REMARK    4  A    between atoms: C_8  and  C_9
REMARK    5  A    between atoms: C_9  and  N_10
REMARK    6  A    between atoms: C_11  and  C_13
REMARK    7  A    between atoms: C_13  and  O_14
REMARK                            x       y       z     vdW  Elec       q    Type
REMARK                         _______ _______ _______ _____ _____    ______ ____
ROOT
ATOM      1  C   UNL     1      47.479   6.123  13.243  0.00  0.00    +0.000 A 
ATOM      2  C   UNL     1      46.790   4.927  13.484  0.00  0.00    +0.000 A 
ATOM      3  C   UNL     1      45.771   4.501  12.624  0.00  0.00    +0.000 A 
ATOM      4  C   UNL     1      45.436   5.250  11.488  0.00  0.00    +0.000 A 
ATOM      5  C   UNL     1      46.137   6.438  11.236  0.00  0.00    +0.000 A 
ATOM      6  C   UNL     1      47.156   6.863  12.097  0.00  0.00    +0.000 A 
ENDROOT
BRANCH   1   7
ATOM      7  C   UNL     1      48.523   6.619  14.210  0.00  0.00    +0.000 C 
BRANCH   7  10
ATOM      8  O   UNL     1      50.178   5.842  16.269  0.00  0.00    +0.000 OA
ATOM      9  C   UNL     1      49.037   6.201  16.554  0.00  0.00    +0.000 C 
ATOM     10  N   UNL     1      48.112   6.520  15.587  0.00  0.00    +0.000 N 
ATOM     11  H   UNL     1      47.259   7.002  15.854  0.00  0.00    +0.000 HD
BRANCH   9  12
ATOM     12  C   UNL     1      48.599   6.281  17.952  0.00  0.00    +0.000 A 
ATOM     13  C   UNL     1      48.702   5.169  18.776  0.00  0.00    +0.000 A 
ATOM     14  S   UNL     1      48.172   5.450  20.374  0.00  0.00    +0.000 S 
ATOM     15  C   UNL     1      47.830   7.081  20.030  0.00  0.00    +0.000 A 
ATOM     16  N   UNL     1      47.380   7.922  20.999  0.00  0.00    +0.000 NA
ATOM     17  C   UNL     1      47.206   9.140  20.608  0.00  0.00    +0.000 A 
ATOM     18  N   UNL     1      47.423   9.590  19.332  0.00  0.00    +0.000 N 
ATOM     19  C   UNL     1      47.831   8.764  18.308  0.00  0.00    +0.000 A 
ATOM     20  O   UNL     1      47.941   9.183  17.163  0.00  0.00    +0.000 OA
ATOM     21  C   UNL     1      48.083   7.395  18.708  0.00  0.00    +0.000 A 
ATOM     22  H   UNL     1      47.245  10.552  19.086  0.00  0.00    +0.000 HD
ENDBRANCH   9  12
ENDBRANCH   7  10
ENDBRANCH   1   7
BRANCH   4  23
ATOM     23  C   UNL     1      44.364   4.776  10.544  0.00  0.00    +0.000 C 
BRANCH  23  24
ATOM     24  N   UNL     1      44.748   3.606   9.792  0.00  0.00    +0.000 N 
ATOM     25  C   UNL     1      45.502   3.762   8.638  0.00  0.00    +0.000 C 
ATOM     26  O   UNL     1      45.766   4.867   8.167  0.00  0.00    +0.000 OA
ATOM     27  H   UNL     1      44.868   2.717  10.269  0.00  0.00    +0.000 HD
BRANCH  25  28
ATOM     28  C   UNL     1      45.905   2.407   7.945  0.00  0.00    +0.000 C 
ATOM     29  C   UNL     1      45.527   2.464   6.467  0.00  0.00    +0.000 C 
ATOM     30  C   UNL     1      46.823   2.797   5.755  0.00  0.00    +0.000 C 
ATOM     31  C   UNL     1      47.872   2.829   6.847  0.00  0.00    +0.000 C 
ATOM     32  O   UNL     1      47.304   2.150   7.971  0.00  0.00    +0.000 OA
BRANCH  28  33
ATOM     33  O   UNL     1      45.236   1.323   8.576  0.00  0.00    +0.000 OA
ATOM     34  H   UNL     1      44.325   1.373   8.241  0.00  0.00    +0.000 HD
ENDBRANCH  28  33
ENDBRANCH  25  28
ENDBRANCH  23  24
ENDBRANCH   4  23
TORSDOF 7
ENDMDL
MODEL 9
REMARK VINA RESULT:    -6.388      6.088      8.054
REMARK INTER + INTRA:          -9.732
REMARK INTER:                  -8.891
REMARK INTRA:                  -0.841
REMARK UNBOUND:                -0.916
REMARK  Name = 
REMARK  7 active torsions:
REMARK  status: ('A' for Active; 'I' for Inactive)
REMARK    1  A    between atoms: C_2  and  C_21
REMARK    2  A    between atoms: N_3  and  C_4
REMARK    3  A    between atoms: C_4  and  C_5
REMARK    4  A    between atoms: C_8  and  C_9
REMARK    5  A    between atoms: C_9  and  N_10
REMARK    6  A    between atoms: C_11  and  C_13
REMARK    7  A    between atoms: C_13  and  O_14
REMARK                            x       y       z     vdW  Elec       q    Type
REMARK                         _______ _______ _______ _____ _____    ______ ____
ROOT
ATOM      1  C   UNL     1      49.909   8.563  11.901  0.00  0.00    +0.000 A 
ATOM      2  C   UNL     1      49.082   9.684  12.055  0.00  0.00    +0.000 A 
ATOM      3  C   UNL     1      47.719   9.533  12.341  0.00  0.00    +0.000 A 
ATOM      4  C   UNL     1      47.160   8.259  12.505  0.00  0.00    +0.000 A 
ATOM      5  C   UNL     1      47.992   7.139  12.369  0.00  0.00    +0.000 A 
ATOM      6  C   UNL     1      49.354   7.289  12.083  0.00  0.00    +0.000 A 
ENDROOT
BRANCH   1   7
ATOM      7  C   UNL     1      51.358   8.724  11.519  0.00  0.00    +0.000 C 
BRANCH   7  10
ATOM      8  O   UNL     1      53.603   9.480  10.115  0.00  0.00    +0.000 OA
ATOM      9  C   UNL     1      52.821   8.703   9.571  0.00  0.00    +0.000 C 
ATOM     10  N   UNL     1      51.631   8.340  10.157  0.00  0.00    +0.000 N 
ATOM     11  H   UNL     1      51.112   7.551   9.783  0.00  0.00    +0.000 HD
BRANCH   9  12
ATOM     12  C   UNL     1      53.114   8.142   8.247  0.00  0.00    +0.000 A 
ATOM     13  C   UNL     1      53.148   8.972   7.135  0.00  0.00    +0.000 A 
ATOM     14  S   UNL     1      53.530   8.156   5.685  0.00  0.00    +0.000 S 
ATOM     15  C   UNL     1      53.709   6.674   6.503  0.00  0.00    +0.000 A 
ATOM     16  N   UNL     1      54.087   5.549   5.840  0.00  0.00    +0.000 NA
ATOM     17  C   UNL     1      54.227   4.510   6.593  0.00  0.00    +0.000 A 
ATOM     18  N   UNL     1      54.006   4.489   7.945  0.00  0.00    +0.000 N 
ATOM     19  C   UNL     1      53.576   5.592   8.649  0.00  0.00    +0.000 A 
ATOM     20  O   UNL     1      53.315   5.518   9.843  0.00  0.00    +0.000 OA
ATOM     21  C   UNL     1      53.446   6.795   7.854  0.00  0.00    +0.000 A 
ATOM     22  H   UNL     1      54.113   3.636   8.473  0.00  0.00    +0.000 HD
ENDBRANCH   9  12
ENDBRANCH   7  10
ENDBRANCH   1   7
BRANCH   4  23
ATOM     23  C   UNL     1      45.703   8.098  12.846  0.00  0.00    +0.000 C 
BRANCH  23  24
ATOM     24  N   UNL     1      44.987   7.277  11.900  0.00  0.00    +0.000 N 
ATOM     25  C   UNL     1      44.426   6.082  12.331  0.00  0.00    +0.000 C 
ATOM     26  O   UNL     1      44.608   5.639  13.464  0.00  0.00    +0.000 OA
ATOM     27  H   UNL     1      44.523   7.710  11.107  0.00  0.00    +0.000 HD
BRANCH  25  28
ATOM     28  C   UNL     1      43.621   5.312  11.219  0.00  0.00    +0.000 C 
ATOM     29  C   UNL     1      44.600   4.687  10.229  0.00  0.00    +0.000 C 
ATOM     30  C   UNL     1      44.697   3.235  10.655  0.00  0.00    +0.000 C 
ATOM     31  C   UNL     1      43.716   3.097  11.801  0.00  0.00    +0.000 C 
ATOM     32  O   UNL     1      42.846   4.232  11.725  0.00  0.00    +0.000 OA
BRANCH  28  33
ATOM     33  O   UNL     1      42.752   6.211  10.542  0.00  0.00    +0.000 OA
ATOM     34  H   UNL     1      42.019   5.651  10.233  0.00  0.00    +0.000 HD
ENDBRANCH  28  33
ENDBRANCH  25  28
ENDBRANCH  23  24
ENDBRANCH   4  23
TORSDOF 7
ENDMDL
