MODEL 1
REMARK VINA RESULT:    -6.866      0.000      0.000
REMARK INTER + INTRA:         -12.168
REMARK INTER:                 -10.479
REMARK INTRA:                  -1.689
REMARK UNBOUND:                -1.689
REMARK  Name = 
REMARK  10 active torsions:
REMARK  status: ('A' for Active; 'I' for Inactive)
REMARK    1  A    between atoms: C_1  and  S_2
REMARK    2  A    between atoms: S_2  and  N_5
REMARK    3  A    between atoms: N_5  and  C_6
REMARK    4  A    between atoms: C_9  and  C_10
REMARK    5  A    between atoms: C_10  and  N_11
REMARK    6  A    between atoms: N_11  and  C_12
REMARK    7  A    between atoms: C_12  and  C_13
REMARK    8  A    between atoms: C_16  and  C_17
REMARK    9  A    between atoms: C_17  and  N_18
REMARK   10  A    between atoms: C_19  and  C_21
REMARK                            x       y       z     vdW  Elec       q    Type
REMARK                         _______ _______ _______ _____ _____    ______ ____
ROOT
ATOM      1  C   UNL     1      50.326   8.804  11.903  0.00  0.00    +0.000 A 
ATOM      2  C   UNL     1      49.456   9.903  11.969  0.00  0.00    +0.000 A 
ATOM      3  C   UNL     1      48.070   9.720  12.008  0.00  0.00    +0.000 A 
ATOM      4  C   UNL     1      47.522   8.431  11.977  0.00  0.00    +0.000 A 
ATOM      5  C   UNL     1      48.386   7.335  11.866  0.00  0.00    +0.000 A 
ATOM      6  C   UNL     1      49.773   7.517  11.838  0.00  0.00    +0.000 A 
ENDROOT
BRANCH   1   7
ATOM      7  C   UNL     1      51.827   9.003  11.906  0.00  0.00    +0.000 C 
BRANCH   7   8
ATOM      8  N   UNL     1      52.462   8.155  12.913  0.00  0.00    +0.000 NA
ATOM      9  H   UNL     1      51.986   7.253  12.936  0.00  0.00    +0.000 HD
BRANCH   8  10
ATOM     10  C   UNL     1      52.374   8.742  14.255  0.00  0.00    +0.000 C 
BRANCH  10  14
ATOM     11  C   UNL     1      49.896   6.446  16.879  0.00  0.00    +0.000 A 
ATOM     12  C   UNL     1      49.335   7.513  16.190  0.00  0.00    +0.000 A 
ATOM     13  C   UNL     1      50.133   8.255  15.319  0.00  0.00    +0.000 A 
ATOM     14  C   UNL     1      51.479   7.918  15.168  0.00  0.00    +0.000 A 
ATOM     15  N   UNL     1      52.048   6.884  15.842  0.00  0.00    +0.000 NA
ATOM     16  C   UNL     1      51.248   6.188  16.689  0.00  0.00    +0.000 A 
BRANCH  11  17
ATOM     17  N   UNL     1      49.122   5.715  17.838  0.00  0.00    +0.000 N 
ATOM     18  H   UNL     1      49.688   5.277  18.568  0.00  0.00    +0.000 HD
BRANCH  17  20
ATOM     19  C   UNL     1      48.911   3.047  17.759  0.00  0.00    +0.000 C 
ATOM     20  S   UNL     1      48.095   4.523  17.195  0.00  0.00    +0.000 S 
ATOM     21  O   UNL     1      48.262   4.604  15.760  0.00  0.00    +0.000 OA
ATOM     22  O   UNL     1      46.794   4.587  17.820  0.00  0.00    +0.000 OA
ENDBRANCH  17  20
ENDBRANCH  11  17
ENDBRANCH  10  14
ENDBRANCH   8  10
ENDBRANCH   7   8
ENDBRANCH   1   7
BRANCH   4  23
ATOM     23  C   UNL     1      46.029   8.226  12.006  0.00  0.00    +0.000 C 
BRANCH  23  24
ATOM     24  N   UNL     1      45.702   6.847  11.754  0.00  0.00    +0.000 N 
ATOM     25  C   UNL     1      44.431   6.451  11.433  0.00  0.00    +0.000 C 
ATOM     26  O   UNL     1      43.510   7.252  11.304  0.00  0.00    +0.000 OA
ATOM     27  H   UNL     1      46.374   6.158  12.076  0.00  0.00    +0.000 HD
BRANCH  25  28
ATOM     28  C   UNL     1      44.242   5.015  11.187  0.00  0.00    +0.000 A 
ATOM     29  C   UNL     1      43.498   4.255  12.078  0.00  0.00    +0.000 A 
ATOM     30  S   UNL     1      43.318   2.626  11.603  0.00  0.00    +0.000 S 
ATOM     31  C   UNL     1      44.274   2.867  10.217  0.00  0.00    +0.000 A 
ATOM     32  N   UNL     1      44.534   1.844   9.359  0.00  0.00    +0.000 NA
ATOM     33  C   UNL     1      45.294   2.161   8.363  0.00  0.00    +0.000 A 
ATOM     34  N   UNL     1      45.819   3.409   8.149  0.00  0.00    +0.000 N 
ATOM     35  C   UNL     1      45.569   4.476   8.977  0.00  0.00    +0.000 A 
ATOM     36  O   UNL     1      46.034   5.585   8.740  0.00  0.00    +0.000 OA
ATOM     37  C   UNL     1      44.716   4.174  10.112  0.00  0.00    +0.000 A 
ATOM     38  H   UNL     1      46.409   3.593   7.352  0.00  0.00    +0.000 HD
ENDBRANCH  25  28
ENDBRANCH  23  24
ENDBRANCH   4  23
TORSDOF 9
ENDMDL
MODEL 2
REMARK VINA RESULT:    -6.723      3.358      9.796
REMARK INTER + INTRA:         -11.949
REMARK INTER:                 -10.919
REMARK INTRA:                  -1.030
REMARK UNBOUND:                -1.689
REMARK  Name = 
REMARK  10 active torsions:
REMARK  status: ('A' for Active; 'I' for Inactive)
REMARK    1  A    between atoms: C_1  and  S_2
REMARK    2  A    between atoms: S_2  and  N_5
REMARK    3  A    between atoms: N_5  and  C_6
REMARK    4  A    between atoms: C_9  and  C_10
REMARK    5  A    between atoms: C_10  and  N_11
REMARK    6  A    between atoms: N_11  and  C_12
REMARK    7  A    between atoms: C_12  and  C_13
REMARK    8  A    between atoms: C_16  and  C_17
REMARK    9  A    between atoms: C_17  and  N_18
REMARK   10  A    between atoms: C_19  and  C_21
REMARK                            x       y       z     vdW  Elec       q    Type
REMARK                         _______ _______ _______ _____ _____    ______ ____
ROOT
ATOM      1  C   UNL     1      46.940   4.902  14.314  0.00  0.00    +0.000 A 
ATOM      2  C   UNL     1      47.650   6.066  13.987  0.00  0.00    +0.000 A 
ATOM      3  C   UNL     1      48.558   6.630  14.889  0.00  0.00    +0.000 A 
ATOM      4  C   UNL     1      48.772   6.044  16.143  0.00  0.00    +0.000 A 
ATOM      5  C   UNL     1      48.030   4.907  16.489  0.00  0.00    +0.000 A 
ATOM      6  C   UNL     1      47.131   4.337  15.583  0.00  0.00    +0.000 A 
ENDROOT
BRANCH   1   7
ATOM      7  C   UNL     1      45.990   4.268  13.318  0.00  0.00    +0.000 C 
BRANCH   7   8
ATOM      8  N   UNL     1      44.721   4.990  13.279  0.00  0.00    +0.000 NA
ATOM      9  H   UNL     1      44.426   5.199  14.233  0.00  0.00    +0.000 HD
BRANCH   8  10
ATOM     10  C   UNL     1      43.660   4.196  12.647  0.00  0.00    +0.000 C 
BRANCH  10  14
ATOM     11  C   UNL     1      44.670   3.296   8.589  0.00  0.00    +0.000 A 
ATOM     12  C   UNL     1      44.473   2.249   9.479  0.00  0.00    +0.000 A 
ATOM     13  C   UNL     1      44.126   2.534  10.799  0.00  0.00    +0.000 A 
ATOM     14  C   UNL     1      43.996   3.865  11.201  0.00  0.00    +0.000 A 
ATOM     15  N   UNL     1      44.195   4.903  10.347  0.00  0.00    +0.000 NA
ATOM     16  C   UNL     1      44.542   4.593   9.072  0.00  0.00    +0.000 A 
BRANCH  11  17
ATOM     17  N   UNL     1      45.103   3.037   7.248  0.00  0.00    +0.000 N 
ATOM     18  H   UNL     1      44.765   2.146   6.878  0.00  0.00    +0.000 HD
BRANCH  17  20
ATOM     19  C   UNL     1      46.854   2.946   5.224  0.00  0.00    +0.000 C 
ATOM     20  S   UNL     1      46.782   3.098   6.994  0.00  0.00    +0.000 S 
ATOM     21  O   UNL     1      47.303   1.876   7.569  0.00  0.00    +0.000 OA
ATOM     22  O   UNL     1      47.300   4.397   7.358  0.00  0.00    +0.000 OA
ENDBRANCH  17  20
ENDBRANCH  11  17
ENDBRANCH  10  14
ENDBRANCH   8  10
ENDBRANCH   7   8
ENDBRANCH   1   7
BRANCH   4  23
ATOM     23  C   UNL     1      49.739   6.652  17.125  0.00  0.00    +0.000 C 
BRANCH  23  24
ATOM     24  N   UNL     1      50.787   5.719  17.448  0.00  0.00    +0.000 N 
ATOM     25  C   UNL     1      50.901   5.162  18.695  0.00  0.00    +0.000 C 
ATOM     26  O   UNL     1      50.097   5.395  19.592  0.00  0.00    +0.000 OA
ATOM     27  H   UNL     1      51.579   5.693  16.814  0.00  0.00    +0.000 HD
BRANCH  25  28
ATOM     28  C   UNL     1      52.009   4.215  18.881  0.00  0.00    +0.000 A 
ATOM     29  C   UNL     1      53.090   4.566  19.677  0.00  0.00    +0.000 A 
ATOM     30  S   UNL     1      54.248   3.325  19.845  0.00  0.00    +0.000 S 
ATOM     31  C   UNL     1      53.372   2.293  18.815  0.00  0.00    +0.000 A 
ATOM     32  N   UNL     1      53.829   1.047  18.517  0.00  0.00    +0.000 NA
ATOM     33  C   UNL     1      53.079   0.382  17.703  0.00  0.00    +0.000 A 
ATOM     34  N   UNL     1      51.912   0.852  17.157  0.00  0.00    +0.000 N 
ATOM     35  C   UNL     1      51.402   2.095  17.443  0.00  0.00    +0.000 A 
ATOM     36  O   UNL     1      50.341   2.472  16.957  0.00  0.00    +0.000 OA
ATOM     37  C   UNL     1      52.207   2.884  18.357  0.00  0.00    +0.000 A 
ATOM     38  H   UNL     1      51.370   0.284  16.524  0.00  0.00    +0.000 HD
ENDBRANCH  25  28
ENDBRANCH  23  24
ENDBRANCH   4  23
TORSDOF 9
ENDMDL
MODEL 3
REMARK VINA RESULT:    -5.125      2.458      3.339
REMARK INTER + INTRA:          -9.510
REMARK INTER:                  -7.977
REMARK INTRA:                  -1.533
REMARK UNBOUND:                -1.689
REMARK  Name = 
REMARK  10 active torsions:
REMARK  status: ('A' for Active; 'I' for Inactive)
REMARK    1  A    between atoms: C_1  and  S_2
REMARK    2  A    between atoms: S_2  and  N_5
REMARK    3  A    between atoms: N_5  and  C_6
REMARK    4  A    between atoms: C_9  and  C_10
REMARK    5  A    between atoms: C_10  and  N_11
REMARK    6  A    between atoms: N_11  and  C_12
REMARK    7  A    between atoms: C_12  and  C_13
REMARK    8  A    between atoms: C_16  and  C_17
REMARK    9  A    between atoms: C_17  and  N_18
REMARK   10  A    between atoms: C_19  and  C_21
REMARK                            x       y       z     vdW  Elec       q    Type
REMARK                         _______ _______ _______ _____ _____    ______ ____
ROOT
ATOM      1  C   UNL     1      51.965   8.851  14.319  0.00  0.00    +0.000 A 
ATOM      2  C   UNL     1      51.808   9.260  12.986  0.00  0.00    +0.000 A 
ATOM      3  C   UNL     1      50.543   9.574  12.477  0.00  0.00    +0.000 A 
ATOM      4  C   UNL     1      49.407   9.481  13.289  0.00  0.00    +0.000 A 
ATOM      5  C   UNL     1      49.556   9.029  14.607  0.00  0.00    +0.000 A 
ATOM      6  C   UNL     1      50.821   8.726  15.119  0.00  0.00    +0.000 A 
ENDROOT
BRANCH   1   7
ATOM      7  C   UNL     1      53.340   8.554  14.880  0.00  0.00    +0.000 C 
BRANCH   7   8
ATOM      8  N   UNL     1      53.429   8.962  16.281  0.00  0.00    +0.000 NA
ATOM      9  H   UNL     1      54.073   9.750  16.359  0.00  0.00    +0.000 HD
BRANCH   8  10
ATOM     10  C   UNL     1      53.938   7.882  17.134  0.00  0.00    +0.000 C 
BRANCH  10  14
ATOM     11  C   UNL     1      50.801   5.157  18.145  0.00  0.00    +0.000 A 
ATOM     12  C   UNL     1      51.875   4.694  17.398  0.00  0.00    +0.000 A 
ATOM     13  C   UNL     1      52.911   5.572  17.079  0.00  0.00    +0.000 A 
ATOM     14  C   UNL     1      52.839   6.900  17.507  0.00  0.00    +0.000 A 
ATOM     15  N   UNL     1      51.791   7.372  18.231  0.00  0.00    +0.000 NA
ATOM     16  C   UNL     1      50.794   6.496  18.516  0.00  0.00    +0.000 A 
BRANCH  11  17
ATOM     17  N   UNL     1      49.686   4.299  18.421  0.00  0.00    +0.000 N 
ATOM     18  H   UNL     1      49.958   3.338  18.641  0.00  0.00    +0.000 HD
BRANCH  17  20
ATOM     19  C   UNL     1      47.093   4.881  18.095  0.00  0.00    +0.000 C 
ATOM     20  S   UNL     1      48.494   4.234  17.212  0.00  0.00    +0.000 S 
ATOM     21  O   UNL     1      48.261   2.825  16.976  0.00  0.00    +0.000 OA
ATOM     22  O   UNL     1      48.813   5.147  16.138  0.00  0.00    +0.000 OA
ENDBRANCH  17  20
ENDBRANCH  11  17
ENDBRANCH  10  14
ENDBRANCH   8  10
ENDBRANCH   7   8
ENDBRANCH   1   7
BRANCH   4  23
ATOM     23  C   UNL     1      48.039   9.806  12.745  0.00  0.00    +0.000 C 
BRANCH  23  24
ATOM     24  N   UNL     1      47.164   8.669  12.861  0.00  0.00    +0.000 N 
ATOM     25  C   UNL     1      47.348   7.535  12.114  0.00  0.00    +0.000 C 
ATOM     26  O   UNL     1      48.288   7.409  11.337  0.00  0.00    +0.000 OA
ATOM     27  H   UNL     1      46.269   8.832  13.310  0.00  0.00    +0.000 HD
BRANCH  25  28
ATOM     28  C   UNL     1      46.389   6.446  12.345  0.00  0.00    +0.000 A 
ATOM     29  C   UNL     1      46.818   5.260  12.925  0.00  0.00    +0.000 A 
ATOM     30  S   UNL     1      45.564   4.134  13.188  0.00  0.00    +0.000 S 
ATOM     31  C   UNL     1      44.412   5.170  12.487  0.00  0.00    +0.000 A 
ATOM     32  N   UNL     1      43.108   4.798  12.382  0.00  0.00    +0.000 NA
ATOM     33  C   UNL     1      42.348   5.670  11.806  0.00  0.00    +0.000 A 
ATOM     34  N   UNL     1      42.775   6.880  11.324  0.00  0.00    +0.000 N 
ATOM     35  C   UNL     1      44.077   7.305  11.424  0.00  0.00    +0.000 A 
ATOM     36  O   UNL     1      44.418   8.406  11.005  0.00  0.00    +0.000 OA
ATOM     37  C   UNL     1      44.974   6.363  12.067  0.00  0.00    +0.000 A 
ATOM     38  H   UNL     1      42.131   7.518  10.880  0.00  0.00    +0.000 HD
ENDBRANCH  25  28
ENDBRANCH  23  24
ENDBRANCH   4  23
TORSDOF 9
ENDMDL
MODEL 4
REMARK VINA RESULT:    -5.032      2.256      2.607
REMARK INTER + INTRA:          -9.368
REMARK INTER:                  -7.643
REMARK INTRA:                  -1.725
REMARK UNBOUND:                -1.689
REMARK  Name = 
REMARK  10 active torsions:
REMARK  status: ('A' for Active; 'I' for Inactive)
REMARK    1  A    between atoms: C_1  and  S_2
REMARK    2  A    between atoms: S_2  and  N_5
REMARK    3  A    between atoms: N_5  and  C_6
REMARK    4  A    between atoms: C_9  and  C_10
REMARK    5  A    between atoms: C_10  and  N_11
REMARK    6  A    between atoms: N_11  and  C_12
REMARK    7  A    between atoms: C_12  and  C_13
REMARK    8  A    between atoms: C_16  and  C_17
REMARK    9  A    between atoms: C_17  and  N_18
REMARK   10  A    between atoms: C_19  and  C_21
REMARK                            x       y       z     vdW  Elec       q    Type
REMARK                         _______ _______ _______ _____ _____    ______ ____
ROOT
ATOM      1  C   UNL     1      50.631  10.311  13.180  0.00  0.00    +0.000 A 
ATOM      2  C   UNL     1      50.210  10.065  11.864  0.00  0.00    +0.000 A 
ATOM      3  C   UNL     1      48.849   9.986  11.549  0.00  0.00    +0.000 A 
ATOM      4  C   UNL     1      47.878  10.147  12.545  0.00  0.00    +0.000 A 
ATOM      5  C   UNL     1      48.297  10.348  13.866  0.00  0.00    +0.000 A 
ATOM      6  C   UNL     1      49.657  10.438  14.180  0.00  0.00    +0.000 A 
ENDROOT
BRANCH   1   7
ATOM      7  C   UNL     1      52.103  10.440  13.511  0.00  0.00    +0.000 C 
BRANCH   7   8
ATOM      8  N   UNL     1      52.310  10.460  14.957  0.00  0.00    +0.000 NA
ATOM      9  H   UNL     1      52.823  11.305  15.208  0.00  0.00    +0.000 HD
BRANCH   8  10
ATOM     10  C   UNL     1      53.097   9.307  15.412  0.00  0.00    +0.000 C 
BRANCH  10  14
ATOM     11  C   UNL     1      50.682   6.349  17.337  0.00  0.00    +0.000 A 
ATOM     12  C   UNL     1      50.319   7.684  17.446  0.00  0.00    +0.000 A 
ATOM     13  C   UNL     1      51.092   8.653  16.806  0.00  0.00    +0.000 A 
ATOM     14  C   UNL     1      52.219   8.261  16.081  0.00  0.00    +0.000 A 
ATOM     15  N   UNL     1      52.595   6.960  15.972  0.00  0.00    +0.000 NA
ATOM     16  C   UNL     1      51.829   6.042  16.615  0.00  0.00    +0.000 A 
BRANCH  11  17
ATOM     17  N   UNL     1      49.953   5.339  18.047  0.00  0.00    +0.000 N 
ATOM     18  H   UNL     1      50.534   4.791  18.685  0.00  0.00    +0.000 HD
BRANCH  17  20
ATOM     19  C   UNL     1      47.754   3.816  18.184  0.00  0.00    +0.000 C 
ATOM     20  S   UNL     1      49.079   4.249  17.079  0.00  0.00    +0.000 S 
ATOM     21  O   UNL     1      49.935   3.091  16.935  0.00  0.00    +0.000 OA
ATOM     22  O   UNL     1      48.513   4.929  15.937  0.00  0.00    +0.000 OA
ENDBRANCH  17  20
ENDBRANCH  11  17
ENDBRANCH  10  14
ENDBRANCH   8  10
ENDBRANCH   7   8
ENDBRANCH   1   7
BRANCH   4  23
ATOM     23  C   UNL     1      46.411  10.052  12.215  0.00  0.00    +0.000 C 
BRANCH  23  24
ATOM     24  N   UNL     1      45.948   8.696  12.354  0.00  0.00    +0.000 N 
ATOM     25  C   UNL     1      44.926   8.198  11.588  0.00  0.00    +0.000 C 
ATOM     26  O   UNL     1      44.378   8.865  10.716  0.00  0.00    +0.000 OA
ATOM     27  H   UNL     1      46.217   8.212  13.204  0.00  0.00    +0.000 HD
BRANCH  25  28
ATOM     28  C   UNL     1      44.566   6.794  11.824  0.00  0.00    +0.000 A 
ATOM     29  C   UNL     1      43.296   6.343  11.492  0.00  0.00    +0.000 A 
ATOM     30  S   UNL     1      43.071   4.673  11.763  0.00  0.00    +0.000 S 
ATOM     31  C   UNL     1      44.645   4.506  12.384  0.00  0.00    +0.000 A 
ATOM     32  N   UNL     1      45.099   3.301  12.824  0.00  0.00    +0.000 NA
ATOM     33  C   UNL     1      46.302   3.323  13.295  0.00  0.00    +0.000 A 
ATOM     34  N   UNL     1      47.092   4.442  13.367  0.00  0.00    +0.000 N 
ATOM     35  C   UNL     1      46.683   5.674  12.918  0.00  0.00    +0.000 A 
ATOM     36  O   UNL     1      47.425   6.647  12.974  0.00  0.00    +0.000 OA
ATOM     37  C   UNL     1      45.337   5.704  12.376  0.00  0.00    +0.000 A 
ATOM     38  H   UNL     1      48.025   4.394  13.748  0.00  0.00    +0.000 HD
ENDBRANCH  25  28
ENDBRANCH  23  24
ENDBRANCH   4  23
TORSDOF 9
ENDMDL
MODEL 5
REMARK VINA RESULT:    -5.030     11.712     13.954
REMARK INTER + INTRA:          -9.365
REMARK INTER:                  -7.348
REMARK INTRA:                  -2.017
REMARK UNBOUND:                -1.689
REMARK  Name = 
REMARK  10 active torsions:
REMARK  status: ('A' for Active; 'I' for Inactive)
REMARK    1  A    between atoms: C_1  and  S_2
REMARK    2  A    between atoms: S_2  and  N_5
REMARK    3  A    between atoms: N_5  and  C_6
REMARK    4  A    between atoms: C_9  and  C_10
REMARK    5  A    between atoms: C_10  and  N_11
REMARK    6  A    between atoms: N_11  and  C_12
REMARK    7  A    between atoms: C_12  and  C_13
REMARK    8  A    between atoms: C_16  and  C_17
REMARK    9  A    between atoms: C_17  and  N_18
REMARK   10  A    between atoms: C_19  and  C_21
REMARK                            x       y       z     vdW  Elec       q    Type
REMARK                         _______ _______ _______ _____ _____    ______ ____
ROOT
ATOM      1  C   UNL     1      41.818  -4.939  17.355  0.00  0.00    +0.000 A 
ATOM      2  C   UNL     1      41.557  -5.148  18.718  0.00  0.00    +0.000 A 
ATOM      3  C   UNL     1      40.984  -4.140  19.501  0.00  0.00    +0.000 A 
ATOM      4  C   UNL     1      40.663  -2.899  18.939  0.00  0.00    +0.000 A 
ATOM      5  C   UNL     1      40.964  -2.672  17.590  0.00  0.00    +0.000 A 
ATOM      6  C   UNL     1      41.527  -3.683  16.804  0.00  0.00    +0.000 A 
ENDROOT
BRANCH   1   7
ATOM      7  C   UNL     1      42.397  -6.046  16.499  0.00  0.00    +0.000 C 
BRANCH   7   8
ATOM      8  N   UNL     1      42.526  -5.614  15.109  0.00  0.00    +0.000 NA
ATOM      9  H   UNL     1      42.527  -4.595  15.076  0.00  0.00    +0.000 HD
BRANCH   8  10
ATOM     10  C   UNL     1      41.408  -6.088  14.284  0.00  0.00    +0.000 C 
BRANCH  10  14
ATOM     11  C   UNL     1      40.043  -3.082  11.565  0.00  0.00    +0.000 A 
ATOM     12  C   UNL     1      41.120  -2.797  12.393  0.00  0.00    +0.000 A 
ATOM     13  C   UNL     1      41.582  -3.779  13.270  0.00  0.00    +0.000 A 
ATOM     14  C   UNL     1      40.945  -5.021  13.305  0.00  0.00    +0.000 A 
ATOM     15  N   UNL     1      39.883  -5.314  12.508  0.00  0.00    +0.000 NA
ATOM     16  C   UNL     1      39.451  -4.335  11.674  0.00  0.00    +0.000 A 
BRANCH  11  17
ATOM     17  N   UNL     1      39.498  -2.069  10.710  0.00  0.00    +0.000 N 
ATOM     18  H   UNL     1      40.203  -1.433  10.333  0.00  0.00    +0.000 HD
BRANCH  17  20
ATOM     19  C   UNL     1      36.852  -1.722  10.488  0.00  0.00    +0.000 C 
ATOM     20  S   UNL     1      38.261  -1.123  11.391  0.00  0.00    +0.000 S 
ATOM     21  O   UNL     1      38.528   0.231  10.955  0.00  0.00    +0.000 OA
ATOM     22  O   UNL     1      38.081  -1.456  12.786  0.00  0.00    +0.000 OA
ENDBRANCH  17  20
ENDBRANCH  11  17
ENDBRANCH  10  14
ENDBRANCH   8  10
ENDBRANCH   7   8
ENDBRANCH   1   7
BRANCH   4  23
ATOM     23  C   UNL     1      40.057  -1.804  19.779  0.00  0.00    +0.000 C 
BRANCH  23  24
ATOM     24  N   UNL     1      39.558  -0.743  18.945  0.00  0.00    +0.000 N 
ATOM     25  C   UNL     1      38.532   0.073  19.346  0.00  0.00    +0.000 C 
ATOM     26  O   UNL     1      38.011  -0.029  20.452  0.00  0.00    +0.000 OA
ATOM     27  H   UNL     1      39.805  -0.787  17.962  0.00  0.00    +0.000 HD
BRANCH  25  28
ATOM     28  C   UNL     1      38.134   1.124  18.401  0.00  0.00    +0.000 A 
ATOM     29  C   UNL     1      38.165   2.454  18.796  0.00  0.00    +0.000 A 
ATOM     30  S   UNL     1      37.743   3.546  17.555  0.00  0.00    +0.000 S 
ATOM     31  C   UNL     1      37.451   2.276  16.462  0.00  0.00    +0.000 A 
ATOM     32  N   UNL     1      37.035   2.528  15.191  0.00  0.00    +0.000 NA
ATOM     33  C   UNL     1      36.826   1.472  14.478  0.00  0.00    +0.000 A 
ATOM     34  N   UNL     1      36.994   0.185  14.921  0.00  0.00    +0.000 N 
ATOM     35  C   UNL     1      37.429  -0.117  16.188  0.00  0.00    +0.000 A 
ATOM     36  O   UNL     1      37.593  -1.279  16.543  0.00  0.00    +0.000 OA
ATOM     37  C   UNL     1      37.682   1.037  17.032  0.00  0.00    +0.000 A 
ATOM     38  H   UNL     1      36.811  -0.600  14.315  0.00  0.00    +0.000 HD
ENDBRANCH  25  28
ENDBRANCH  23  24
ENDBRANCH   4  23
TORSDOF 9
ENDMDL
MODEL 6
REMARK VINA RESULT:    -4.659      9.551     11.604
REMARK INTER + INTRA:          -8.799
REMARK INTER:                  -7.831
REMARK INTRA:                  -0.968
REMARK UNBOUND:                -1.689
REMARK  Name = 
REMARK  10 active torsions:
REMARK  status: ('A' for Active; 'I' for Inactive)
REMARK    1  A    between atoms: C_1  and  S_2
REMARK    2  A    between atoms: S_2  and  N_5
REMARK    3  A    between atoms: N_5  and  C_6
REMARK    4  A    between atoms: C_9  and  C_10
REMARK    5  A    between atoms: C_10  and  N_11
REMARK    6  A    between atoms: N_11  and  C_12
REMARK    7  A    between atoms: C_12  and  C_13
REMARK    8  A    between atoms: C_16  and  C_17
REMARK    9  A    between atoms: C_17  and  N_18
REMARK   10  A    between atoms: C_19  and  C_21
REMARK                            x       y       z     vdW  Elec       q    Type
REMARK                         _______ _______ _______ _____ _____    ______ ____
ROOT
ATOM      1  C   UNL     1      54.873   1.123   6.502  0.00  0.00    +0.000 A 
ATOM      2  C   UNL     1      55.474   0.186   7.356  0.00  0.00    +0.000 A 
ATOM      3  C   UNL     1      55.469  -1.177   7.043  0.00  0.00    +0.000 A 
ATOM      4  C   UNL     1      54.857  -1.635   5.869  0.00  0.00    +0.000 A 
ATOM      5  C   UNL     1      54.218  -0.707   5.037  0.00  0.00    +0.000 A 
ATOM      6  C   UNL     1      54.233   0.657   5.345  0.00  0.00    +0.000 A 
ENDROOT
BRANCH   1   7
ATOM      7  C   UNL     1      54.919   2.603   6.820  0.00  0.00    +0.000 C 
BRANCH   7   8
ATOM      8  N   UNL     1      53.572   3.168   6.856  0.00  0.00    +0.000 NA
ATOM      9  H   UNL     1      52.968   2.631   6.233  0.00  0.00    +0.000 HD
BRANCH   8  10
ATOM     10  C   UNL     1      53.554   4.564   6.402  0.00  0.00    +0.000 C 
BRANCH  10  14
ATOM     11  C   UNL     1      53.124   7.279   9.678  0.00  0.00    +0.000 A 
ATOM     12  C   UNL     1      52.687   7.672   8.420  0.00  0.00    +0.000 A 
ATOM     13  C   UNL     1      52.807   6.785   7.350  0.00  0.00    +0.000 A 
ATOM     14  C   UNL     1      53.376   5.527   7.564  0.00  0.00    +0.000 A 
ATOM     15  N   UNL     1      53.817   5.130   8.786  0.00  0.00    +0.000 NA
ATOM     16  C   UNL     1      53.696   6.019   9.804  0.00  0.00    +0.000 A 
BRANCH  11  17
ATOM     17  N   UNL     1      53.084   8.196  10.779  0.00  0.00    +0.000 N 
ATOM     18  H   UNL     1      53.607   7.873  11.595  0.00  0.00    +0.000 HD
BRANCH  17  20
ATOM     19  C   UNL     1      51.836   8.920  13.034  0.00  0.00    +0.000 C 
ATOM     20  S   UNL     1      51.531   8.644  11.304  0.00  0.00    +0.000 S 
ATOM     21  O   UNL     1      50.723   7.450  11.179  0.00  0.00    +0.000 OA
ATOM     22  O   UNL     1      51.139   9.900  10.707  0.00  0.00    +0.000 OA
ENDBRANCH  17  20
ENDBRANCH  11  17
ENDBRANCH  10  14
ENDBRANCH   8  10
ENDBRANCH   7   8
ENDBRANCH   1   7
BRANCH   4  23
ATOM     23  C   UNL     1      54.837  -3.103   5.531  0.00  0.00    +0.000 C 
BRANCH  23  24
ATOM     24  N   UNL     1      54.963  -3.900   6.723  0.00  0.00    +0.000 N 
ATOM     25  C   UNL     1      53.872  -4.437   7.354  0.00  0.00    +0.000 C 
ATOM     26  O   UNL     1      52.733  -4.304   6.918  0.00  0.00    +0.000 OA
ATOM     27  H   UNL     1      55.844  -3.830   7.222  0.00  0.00    +0.000 HD
BRANCH  25  28
ATOM     28  C   UNL     1      54.148  -5.240   8.553  0.00  0.00    +0.000 A 
ATOM     29  C   UNL     1      54.196  -6.624   8.459  0.00  0.00    +0.000 A 
ATOM     30  S   UNL     1      54.601  -7.396   9.926  0.00  0.00    +0.000 S 
ATOM     31  C   UNL     1      54.673  -5.910  10.751  0.00  0.00    +0.000 A 
ATOM     32  N   UNL     1      54.964  -5.860  12.078  0.00  0.00    +0.000 NA
ATOM     33  C   UNL     1      54.959  -4.671  12.583  0.00  0.00    +0.000 A 
ATOM     34  N   UNL     1      54.687  -3.526  11.879  0.00  0.00    +0.000 N 
ATOM     35  C   UNL     1      54.406  -3.526  10.534  0.00  0.00    +0.000 A 
ATOM     36  O   UNL     1      54.194  -2.480   9.931  0.00  0.00    +0.000 OA
ATOM     37  C   UNL     1      54.402  -4.840   9.917  0.00  0.00    +0.000 A 
ATOM     38  H   UNL     1      54.696  -2.625  12.331  0.00  0.00    +0.000 HD
ENDBRANCH  25  28
ENDBRANCH  23  24
ENDBRANCH   4  23
TORSDOF 9
ENDMDL
MODEL 7
REMARK VINA RESULT:    -4.502     11.858     13.304
REMARK INTER + INTRA:          -8.559
REMARK INTER:                  -7.069
REMARK INTRA:                  -1.490
REMARK UNBOUND:                -1.689
REMARK  Name = 
REMARK  10 active torsions:
REMARK  status: ('A' for Active; 'I' for Inactive)
REMARK    1  A    between atoms: C_1  and  S_2
REMARK    2  A    between atoms: S_2  and  N_5
REMARK    3  A    between atoms: N_5  and  C_6
REMARK    4  A    between atoms: C_9  and  C_10
REMARK    5  A    between atoms: C_10  and  N_11
REMARK    6  A    between atoms: N_11  and  C_12
REMARK    7  A    between atoms: C_12  and  C_13
REMARK    8  A    between atoms: C_16  and  C_17
REMARK    9  A    between atoms: C_17  and  N_18
REMARK   10  A    between atoms: C_19  and  C_21
REMARK                            x       y       z     vdW  Elec       q    Type
REMARK                         _______ _______ _______ _____ _____    ______ ____
ROOT
ATOM      1  C   UNL     1      40.717  -4.239  14.182  0.00  0.00    +0.000 A 
ATOM      2  C   UNL     1      41.542  -3.488  13.331  0.00  0.00    +0.000 A 
ATOM      3  C   UNL     1      41.019  -2.864  12.193  0.00  0.00    +0.000 A 
ATOM      4  C   UNL     1      39.660  -2.982  11.879  0.00  0.00    +0.000 A 
ATOM      5  C   UNL     1      38.844  -3.768  12.702  0.00  0.00    +0.000 A 
ATOM      6  C   UNL     1      39.364  -4.382  13.846  0.00  0.00    +0.000 A 
ENDROOT
BRANCH   1   7
ATOM      7  C   UNL     1      41.276  -4.877  15.437  0.00  0.00    +0.000 C 
BRANCH   7   8
ATOM      8  N   UNL     1      40.667  -4.294  16.631  0.00  0.00    +0.000 NA
ATOM      9  H   UNL     1      39.675  -4.133  16.455  0.00  0.00    +0.000 HD
BRANCH   8  10
ATOM     10  C   UNL     1      41.274  -3.004  16.980  0.00  0.00    +0.000 C 
BRANCH  10  14
ATOM     11  C   UNL     1      38.287   0.044  17.252  0.00  0.00    +0.000 A 
ATOM     12  C   UNL     1      38.770  -0.527  18.422  0.00  0.00    +0.000 A 
ATOM     13  C   UNL     1      39.757  -1.509  18.342  0.00  0.00    +0.000 A 
ATOM     14  C   UNL     1      40.229  -1.906  17.089  0.00  0.00    +0.000 A 
ATOM     15  N   UNL     1      39.761  -1.364  15.933  0.00  0.00    +0.000 NA
ATOM     16  C   UNL     1      38.794  -0.419  16.044  0.00  0.00    +0.000 A 
BRANCH  11  17
ATOM     17  N   UNL     1      37.219   0.999  17.299  0.00  0.00    +0.000 N 
ATOM     18  H   UNL     1      36.362   0.672  16.848  0.00  0.00    +0.000 HD
BRANCH  17  20
ATOM     19  C   UNL     1      36.486   3.553  17.630  0.00  0.00    +0.000 C 
ATOM     20  S   UNL     1      37.581   2.535  16.667  0.00  0.00    +0.000 S 
ATOM     21  O   UNL     1      37.091   2.516  15.306  0.00  0.00    +0.000 OA
ATOM     22  O   UNL     1      38.941   2.905  16.987  0.00  0.00    +0.000 OA
ENDBRANCH  17  20
ENDBRANCH  11  17
ENDBRANCH  10  14
ENDBRANCH   8  10
ENDBRANCH   7   8
ENDBRANCH   1   7
BRANCH   4  23
ATOM     23  C   UNL     1      39.092  -2.322  10.648  0.00  0.00    +0.000 C 
BRANCH  23  24
ATOM     24  N   UNL     1      39.406  -3.090   9.472  0.00  0.00    +0.000 N 
ATOM     25  C   UNL     1      38.437  -3.497   8.593  0.00  0.00    +0.000 C 
ATOM     26  O   UNL     1      37.256  -3.198   8.737  0.00  0.00    +0.000 OA
ATOM     27  H   UNL     1      40.316  -3.538   9.455  0.00  0.00    +0.000 HD
BRANCH  25  28
ATOM     28  C   UNL     1      38.900  -4.261   7.427  0.00  0.00    +0.000 A 
ATOM     29  C   UNL     1      38.618  -3.805   6.147  0.00  0.00    +0.000 A 
ATOM     30  S   UNL     1      39.293  -4.770   4.912  0.00  0.00    +0.000 S 
ATOM     31  C   UNL     1      39.940  -5.862   6.044  0.00  0.00    +0.000 A 
ATOM     32  N   UNL     1      40.642  -6.954   5.640  0.00  0.00    +0.000 NA
ATOM     33  C   UNL     1      41.053  -7.712   6.602  0.00  0.00    +0.000 A 
ATOM     34  N   UNL     1      40.823  -7.476   7.933  0.00  0.00    +0.000 N 
ATOM     35  C   UNL     1      40.137  -6.377   8.388  0.00  0.00    +0.000 A 
ATOM     36  O   UNL     1      39.973  -6.184   9.588  0.00  0.00    +0.000 OA
ATOM     37  C   UNL     1      39.655  -5.490   7.346  0.00  0.00    +0.000 A 
ATOM     38  H   UNL     1      41.170  -8.108   8.639  0.00  0.00    +0.000 HD
ENDBRANCH  25  28
ENDBRANCH  23  24
ENDBRANCH   4  23
TORSDOF 9
ENDMDL
MODEL 8
REMARK VINA RESULT:    -4.500     12.087     13.177
REMARK INTER + INTRA:          -8.556
REMARK INTER:                  -6.811
REMARK INTRA:                  -1.745
REMARK UNBOUND:                -1.689
REMARK  Name = 
REMARK  10 active torsions:
REMARK  status: ('A' for Active; 'I' for Inactive)
REMARK    1  A    between atoms: C_1  and  S_2
REMARK    2  A    between atoms: S_2  and  N_5
REMARK    3  A    between atoms: N_5  and  C_6
REMARK    4  A    between atoms: C_9  and  C_10
REMARK    5  A    between atoms: C_10  and  N_11
REMARK    6  A    between atoms: N_11  and  C_12
REMARK    7  A    between atoms: C_12  and  C_13
REMARK    8  A    between atoms: C_16  and  C_17
REMARK    9  A    between atoms: C_17  and  N_18
REMARK   10  A    between atoms: C_19  and  C_21
REMARK                            x       y       z     vdW  Elec       q    Type
REMARK                         _______ _______ _______ _____ _____    ______ ____
ROOT
ATOM      1  C   UNL     1      41.163  -3.587  18.056  0.00  0.00    +0.000 A 
ATOM      2  C   UNL     1      40.611  -2.736  17.087  0.00  0.00    +0.000 A 
ATOM      3  C   UNL     1      40.803  -2.982  15.723  0.00  0.00    +0.000 A 
ATOM      4  C   UNL     1      41.558  -4.082  15.299  0.00  0.00    +0.000 A 
ATOM      5  C   UNL     1      42.148  -4.907  16.265  0.00  0.00    +0.000 A 
ATOM      6  C   UNL     1      41.946  -4.668  17.628  0.00  0.00    +0.000 A 
ENDROOT
BRANCH   1   7
ATOM      7  C   UNL     1      40.916  -3.345  19.531  0.00  0.00    +0.000 C 
BRANCH   7   8
ATOM      8  N   UNL     1      40.744  -1.919  19.801  0.00  0.00    +0.000 NA
ATOM      9  H   UNL     1      41.539  -1.585  20.346  0.00  0.00    +0.000 HD
BRANCH   8  10
ATOM     10  C   UNL     1      39.526  -1.653  20.577  0.00  0.00    +0.000 C 
BRANCH  10  14
ATOM     11  C   UNL     1      36.966   1.063  18.489  0.00  0.00    +0.000 A 
ATOM     12  C   UNL     1      36.859  -0.296  18.225  0.00  0.00    +0.000 A 
ATOM     13  C   UNL     1      37.679  -1.189  18.915  0.00  0.00    +0.000 A 
ATOM     14  C   UNL     1      38.596  -0.698  19.846  0.00  0.00    +0.000 A 
ATOM     15  N   UNL     1      38.721   0.629  20.111  0.00  0.00    +0.000 NA
ATOM     16  C   UNL     1      37.917   1.473  19.415  0.00  0.00    +0.000 A 
BRANCH  11  17
ATOM     17  N   UNL     1      36.193   2.010  17.741  0.00  0.00    +0.000 N 
ATOM     18  H   UNL     1      35.254   1.678  17.513  0.00  0.00    +0.000 HD
BRANCH  17  20
ATOM     19  C   UNL     1      35.605   3.594  15.663  0.00  0.00    +0.000 C 
ATOM     20  S   UNL     1      36.907   2.565  16.302  0.00  0.00    +0.000 S 
ATOM     21  O   UNL     1      37.013   1.400  15.451  0.00  0.00    +0.000 OA
ATOM     22  O   UNL     1      38.046   3.406  16.595  0.00  0.00    +0.000 OA
ENDBRANCH  17  20
ENDBRANCH  11  17
ENDBRANCH  10  14
ENDBRANCH   8  10
ENDBRANCH   7   8
ENDBRANCH   1   7
BRANCH   4  23
ATOM     23  C   UNL     1      41.780  -4.346  13.832  0.00  0.00    +0.000 C 
BRANCH  23  24
ATOM     24  N   UNL     1      40.630  -3.944  13.065  0.00  0.00    +0.000 N 
ATOM     25  C   UNL     1      40.645  -2.829  12.269  0.00  0.00    +0.000 C 
ATOM     26  O   UNL     1      41.647  -2.134  12.135  0.00  0.00    +0.000 OA
ATOM     27  H   UNL     1      39.742  -4.354  13.334  0.00  0.00    +0.000 HD
BRANCH  25  28
ATOM     28  C   UNL     1      39.407  -2.544  11.531  0.00  0.00    +0.000 A 
ATOM     29  C   UNL     1      39.296  -2.921  10.200  0.00  0.00    +0.000 A 
ATOM     30  S   UNL     1      37.769  -2.583   9.518  0.00  0.00    +0.000 S 
ATOM     31  C   UNL     1      37.221  -1.871  10.962  0.00  0.00    +0.000 A 
ATOM     32  N   UNL     1      35.968  -1.350  11.054  0.00  0.00    +0.000 NA
ATOM     33  C   UNL     1      35.692  -0.817  12.199  0.00  0.00    +0.000 A 
ATOM     34  N   UNL     1      36.559  -0.757  13.260  0.00  0.00    +0.000 N 
ATOM     35  C   UNL     1      37.826  -1.286  13.219  0.00  0.00    +0.000 A 
ATOM     36  O   UNL     1      38.565  -1.238  14.196  0.00  0.00    +0.000 OA
ATOM     37  C   UNL     1      38.185  -1.900  11.954  0.00  0.00    +0.000 A 
ATOM     38  H   UNL     1      36.285  -0.325  14.129  0.00  0.00    +0.000 HD
ENDBRANCH  25  28
ENDBRANCH  23  24
ENDBRANCH   4  23
TORSDOF 9
ENDMDL
MODEL 9
REMARK VINA RESULT:    -4.394     11.574     13.796
REMARK INTER + INTRA:          -8.395
REMARK INTER:                  -6.642
REMARK INTRA:                  -1.753
REMARK UNBOUND:                -1.689
REMARK  Name = 
REMARK  10 active torsions:
REMARK  status: ('A' for Active; 'I' for Inactive)
REMARK    1  A    between atoms: C_1  and  S_2
REMARK    2  A    between atoms: S_2  and  N_5
REMARK    3  A    between atoms: N_5  and  C_6
REMARK    4  A    between atoms: C_9  and  C_10
REMARK    5  A    between atoms: C_10  and  N_11
REMARK    6  A    between atoms: N_11  and  C_12
REMARK    7  A    between atoms: C_12  and  C_13
REMARK    8  A    between atoms: C_16  and  C_17
REMARK    9  A    between atoms: C_17  and  N_18
REMARK   10  A    between atoms: C_19  and  C_21
REMARK                            x       y       z     vdW  Elec       q    Type
REMARK                         _______ _______ _______ _____ _____    ______ ____
ROOT
ATOM      1  C   UNL     1      37.993  -2.162  11.605  0.00  0.00    +0.000 A 
ATOM      2  C   UNL     1      39.262  -1.827  11.111  0.00  0.00    +0.000 A 
ATOM      3  C   UNL     1      40.402  -2.517  11.536  0.00  0.00    +0.000 A 
ATOM      4  C   UNL     1      40.298  -3.556  12.469  0.00  0.00    +0.000 A 
ATOM      5  C   UNL     1      39.038  -3.862  12.998  0.00  0.00    +0.000 A 
ATOM      6  C   UNL     1      37.896  -3.180  12.565  0.00  0.00    +0.000 A 
ENDROOT
BRANCH   1   7
ATOM      7  C   UNL     1      36.754  -1.444  11.110  0.00  0.00    +0.000 C 
BRANCH   7   8
ATOM      8  N   UNL     1      35.999  -0.881  12.228  0.00  0.00    +0.000 NA
ATOM      9  H   UNL     1      35.002  -1.005  12.052  0.00  0.00    +0.000 HD
BRANCH   8  10
ATOM     10  C   UNL     1      36.251   0.556  12.388  0.00  0.00    +0.000 C 
BRANCH  10  14
ATOM     11  C   UNL     1      37.250   1.524  16.433  0.00  0.00    +0.000 A 
ATOM     12  C   UNL     1      37.664   0.305  15.913  0.00  0.00    +0.000 A 
ATOM     13  C   UNL     1      37.357  -0.010  14.590  0.00  0.00    +0.000 A 
ATOM     14  C   UNL     1      36.631   0.900  13.820  0.00  0.00    +0.000 A 
ATOM     15  N   UNL     1      36.209   2.094  14.314  0.00  0.00    +0.000 NA
ATOM     16  C   UNL     1      36.513   2.366  15.608  0.00  0.00    +0.000 A 
BRANCH  11  17
ATOM     17  N   UNL     1      37.482   1.842  17.811  0.00  0.00    +0.000 N 
ATOM     18  H   UNL     1      36.624   1.923  18.359  0.00  0.00    +0.000 HD
BRANCH  17  20
ATOM     19  C   UNL     1      39.237   2.781  19.602  0.00  0.00    +0.000 C 
ATOM     20  S   UNL     1      38.411   3.236  18.095  0.00  0.00    +0.000 S 
ATOM     21  O   UNL     1      37.456   4.278  18.407  0.00  0.00    +0.000 OA
ATOM     22  O   UNL     1      39.410   3.397  17.062  0.00  0.00    +0.000 OA
ENDBRANCH  17  20
ENDBRANCH  11  17
ENDBRANCH  10  14
ENDBRANCH   8  10
ENDBRANCH   7   8
ENDBRANCH   1   7
BRANCH   4  23
ATOM     23  C   UNL     1      41.524  -4.296  12.941  0.00  0.00    +0.000 C 
BRANCH  23  24
ATOM     24  N   UNL     1      41.669  -4.177  14.368  0.00  0.00    +0.000 N 
ATOM     25  C   UNL     1      41.877  -5.270  15.168  0.00  0.00    +0.000 C 
ATOM     26  O   UNL     1      41.990  -6.403  14.710  0.00  0.00    +0.000 OA
ATOM     27  H   UNL     1      41.353  -3.307  14.783  0.00  0.00    +0.000 HD
BRANCH  25  28
ATOM     28  C   UNL     1      42.022  -5.002  16.605  0.00  0.00    +0.000 A 
ATOM     29  C   UNL     1      43.023  -5.637  17.327  0.00  0.00    +0.000 A 
ATOM     30  S   UNL     1      43.097  -5.156  18.962  0.00  0.00    +0.000 S 
ATOM     31  C   UNL     1      41.759  -4.123  18.776  0.00  0.00    +0.000 A 
ATOM     32  N   UNL     1      41.279  -3.403  19.825  0.00  0.00    +0.000 NA
ATOM     33  C   UNL     1      40.244  -2.681  19.549  0.00  0.00    +0.000 A 
ATOM     34  N   UNL     1      39.643  -2.616  18.319  0.00  0.00    +0.000 N 
ATOM     35  C   UNL     1      40.102  -3.311  17.227  0.00  0.00    +0.000 A 
ATOM     36  O   UNL     1      39.556  -3.209  16.134  0.00  0.00    +0.000 OA
ATOM     37  C   UNL     1      41.268  -4.137  17.482  0.00  0.00    +0.000 A 
ATOM     38  H   UNL     1      38.833  -2.034  18.167  0.00  0.00    +0.000 HD
ENDBRANCH  25  28
ENDBRANCH  23  24
ENDBRANCH   4  23
TORSDOF 9
ENDMDL
