MODEL 1
REMARK VINA RESULT:    -8.118      0.000      0.000
REMARK INTER + INTRA:         -13.231
REMARK INTER:                 -11.915
REMARK INTRA:                  -1.317
REMARK UNBOUND:                -1.317
REMARK  Name = 
REMARK  9 active torsions:
REMARK  status: ('A' for Active; 'I' for Inactive)
REMARK    1  A    between atoms: C_1  and  C_2
REMARK    2  A    between atoms: C_2  and  C_3
REMARK    3  A    between atoms: C_7  and  C_8
REMARK    4  A    between atoms: C_8  and  N_9
REMARK    5  A    between atoms: N_9  and  C_10
REMARK    6  A    between atoms: C_10  and  C_11
REMARK    7  A    between atoms: C_14  and  C_15
REMARK    8  A    between atoms: C_15  and  N_16
REMARK    9  A    between atoms: C_17  and  C_19
REMARK                            x       y       z     vdW  Elec       q    Type
REMARK                         _______ _______ _______ _____ _____    ______ ____
ROOT
ATOM      1  C   UNL     1      44.573   4.739  12.901  0.00  0.00    +0.000 A 
ATOM      2  C   UNL     1      45.794   4.193  13.307  0.00  0.00    +0.000 A 
ATOM      3  C   UNL     1      46.906   5.015  13.525  0.00  0.00    +0.000 A 
ATOM      4  C   UNL     1      46.818   6.400  13.348  0.00  0.00    +0.000 A 
ATOM      5  C   UNL     1      45.603   6.943  12.908  0.00  0.00    +0.000 A 
ATOM      6  C   UNL     1      44.488   6.125  12.689  0.00  0.00    +0.000 A 
ENDROOT
BRANCH   1   7
ATOM      7  C   UNL     1      43.355   3.860  12.737  0.00  0.00    +0.000 C 
BRANCH   7   8
ATOM      8  N   UNL     1      43.020   3.609  11.332  0.00  0.00    +0.000 NA
ATOM      9  H   UNL     1      42.030   3.368  11.264  0.00  0.00    +0.000 HD
BRANCH   8  10
ATOM     10  C   UNL     1      43.775   2.478  10.773  0.00  0.00    +0.000 C 
BRANCH  10  15
ATOM     11  C   UNL     1      46.213   2.356   7.996  0.00  0.00    +0.000 A 
ATOM     12  C   UNL     1      46.382   3.689   7.633  0.00  0.00    +0.000 A 
ATOM     13  C   UNL     1      45.681   4.665   8.330  0.00  0.00    +0.000 A 
ATOM     14  C   UNL     1      44.835   4.287   9.365  0.00  0.00    +0.000 A 
ATOM     15  C   UNL     1      44.713   2.932   9.673  0.00  0.00    +0.000 A 
ATOM     16  N   UNL     1      45.387   1.968   8.996  0.00  0.00    +0.000 NA
BRANCH  11  18
ATOM     17  C   UNL     1      47.923   1.868   6.252  0.00  0.00    +0.000 C 
ATOM     18  C   UNL     1      47.020   1.277   7.323  0.00  0.00    +0.000 C 
ENDBRANCH  11  18
ENDBRANCH  10  15
ENDBRANCH   8  10
ENDBRANCH   7   8
ENDBRANCH   1   7
BRANCH   4  19
ATOM     19  C   UNL     1      47.997   7.301  13.614  0.00  0.00    +0.000 C 
BRANCH  19  20
ATOM     20  N   UNL     1      48.060   7.702  14.997  0.00  0.00    +0.000 N 
ATOM     21  C   UNL     1      48.818   7.014  15.910  0.00  0.00    +0.000 C 
ATOM     22  O   UNL     1      49.501   6.042  15.595  0.00  0.00    +0.000 OA
ATOM     23  H   UNL     1      47.320   8.312  15.329  0.00  0.00    +0.000 HD
BRANCH  21  24
ATOM     24  C   UNL     1      48.823   7.544  17.279  0.00  0.00    +0.000 A 
ATOM     25  C   UNL     1      49.462   8.746  17.556  0.00  0.00    +0.000 A 
ATOM     26  S   UNL     1      49.332   9.229  19.187  0.00  0.00    +0.000 S 
ATOM     27  C   UNL     1      48.462   7.823  19.591  0.00  0.00    +0.000 A 
ATOM     28  N   UNL     1      48.065   7.587  20.870  0.00  0.00    +0.000 NA
ATOM     29  C   UNL     1      47.435   6.472  21.038  0.00  0.00    +0.000 A 
ATOM     30  N   UNL     1      47.163   5.573  20.039  0.00  0.00    +0.000 N 
ATOM     31  C   UNL     1      47.516   5.785  18.730  0.00  0.00    +0.000 A 
ATOM     32  O   UNL     1      47.209   4.985  17.850  0.00  0.00    +0.000 OA
ATOM     33  C   UNL     1      48.247   7.013  18.491  0.00  0.00    +0.000 A 
ATOM     34  H   UNL     1      46.653   4.723  20.231  0.00  0.00    +0.000 HD
ENDBRANCH  21  24
ENDBRANCH  19  20
ENDBRANCH   4  19
TORSDOF 8
ENDMDL
MODEL 2
REMARK VINA RESULT:    -7.734      2.079      2.504
REMARK INTER + INTRA:         -12.668
REMARK INTER:                 -11.250
REMARK INTRA:                  -1.417
REMARK UNBOUND:                -1.317
REMARK  Name = 
REMARK  9 active torsions:
REMARK  status: ('A' for Active; 'I' for Inactive)
REMARK    1  A    between atoms: C_1  and  C_2
REMARK    2  A    between atoms: C_2  and  C_3
REMARK    3  A    between atoms: C_7  and  C_8
REMARK    4  A    between atoms: C_8  and  N_9
REMARK    5  A    between atoms: N_9  and  C_10
REMARK    6  A    between atoms: C_10  and  C_11
REMARK    7  A    between atoms: C_14  and  C_15
REMARK    8  A    between atoms: C_15  and  N_16
REMARK    9  A    between atoms: C_17  and  C_19
REMARK                            x       y       z     vdW  Elec       q    Type
REMARK                         _______ _______ _______ _____ _____    ______ ____
ROOT
ATOM      1  C   UNL     1      44.533   4.715  12.866  0.00  0.00    +0.000 A 
ATOM      2  C   UNL     1      44.352   6.028  12.422  0.00  0.00    +0.000 A 
ATOM      3  C   UNL     1      45.395   6.958  12.504  0.00  0.00    +0.000 A 
ATOM      4  C   UNL     1      46.641   6.593  13.026  0.00  0.00    +0.000 A 
ATOM      5  C   UNL     1      46.810   5.286  13.503  0.00  0.00    +0.000 A 
ATOM      6  C   UNL     1      45.770   4.352  13.423  0.00  0.00    +0.000 A 
ENDROOT
BRANCH   1   7
ATOM      7  C   UNL     1      43.431   3.693  12.710  0.00  0.00    +0.000 C 
BRANCH   7   8
ATOM      8  N   UNL     1      43.068   3.459  11.309  0.00  0.00    +0.000 NA
ATOM      9  H   UNL     1      42.083   3.192  11.261  0.00  0.00    +0.000 HD
BRANCH   8  10
ATOM     10  C   UNL     1      43.838   2.359  10.709  0.00  0.00    +0.000 C 
BRANCH  10  15
ATOM     11  C   UNL     1      46.220   2.367   7.882  0.00  0.00    +0.000 A 
ATOM     12  C   UNL     1      46.405   3.717   7.597  0.00  0.00    +0.000 A 
ATOM     13  C   UNL     1      45.733   4.660   8.364  0.00  0.00    +0.000 A 
ATOM     14  C   UNL     1      44.901   4.233   9.391  0.00  0.00    +0.000 A 
ATOM     15  C   UNL     1      44.762   2.865   9.620  0.00  0.00    +0.000 A 
ATOM     16  N   UNL     1      45.407   1.932   8.873  0.00  0.00    +0.000 NA
BRANCH  11  18
ATOM     17  C   UNL     1      46.673  -0.071   7.658  0.00  0.00    +0.000 C 
ATOM     18  C   UNL     1      46.996   1.318   7.130  0.00  0.00    +0.000 C 
ENDBRANCH  11  18
ENDBRANCH  10  15
ENDBRANCH   8  10
ENDBRANCH   7   8
ENDBRANCH   1   7
BRANCH   4  19
ATOM     19  C   UNL     1      47.784   7.575  13.088  0.00  0.00    +0.000 C 
BRANCH  19  20
ATOM     20  N   UNL     1      48.886   7.060  13.861  0.00  0.00    +0.000 N 
ATOM     21  C   UNL     1      49.288   7.662  15.026  0.00  0.00    +0.000 C 
ATOM     22  O   UNL     1      48.718   8.649  15.485  0.00  0.00    +0.000 OA
ATOM     23  H   UNL     1      49.525   6.433  13.383  0.00  0.00    +0.000 HD
BRANCH  21  24
ATOM     24  C   UNL     1      50.401   7.021  15.736  0.00  0.00    +0.000 A 
ATOM     25  C   UNL     1      51.702   7.467  15.538  0.00  0.00    +0.000 A 
ATOM     26  S   UNL     1      52.860   6.636  16.474  0.00  0.00    +0.000 S 
ATOM     27  C   UNL     1      51.671   5.616  17.139  0.00  0.00    +0.000 A 
ATOM     28  N   UNL     1      52.003   4.627  18.012  0.00  0.00    +0.000 NA
ATOM     29  C   UNL     1      51.005   3.915  18.418  0.00  0.00    +0.000 A 
ATOM     30  N   UNL     1      49.703   4.107  18.035  0.00  0.00    +0.000 N 
ATOM     31  C   UNL     1      49.318   5.112  17.182  0.00  0.00    +0.000 A 
ATOM     32  O   UNL     1      48.136   5.291  16.901  0.00  0.00    +0.000 OA
ATOM     33  C   UNL     1      50.405   5.927  16.678  0.00  0.00    +0.000 A 
ATOM     34  H   UNL     1      48.964   3.525  18.399  0.00  0.00    +0.000 HD
ENDBRANCH  21  24
ENDBRANCH  19  20
ENDBRANCH   4  19
TORSDOF 8
ENDMDL
MODEL 3
REMARK VINA RESULT:    -7.170      3.548      8.788
REMARK INTER + INTRA:         -11.840
REMARK INTER:                  -9.864
REMARK INTRA:                  -1.975
REMARK UNBOUND:                -1.317
REMARK  Name = 
REMARK  9 active torsions:
REMARK  status: ('A' for Active; 'I' for Inactive)
REMARK    1  A    between atoms: C_1  and  C_2
REMARK    2  A    between atoms: C_2  and  C_3
REMARK    3  A    between atoms: C_7  and  C_8
REMARK    4  A    between atoms: C_8  and  N_9
REMARK    5  A    between atoms: N_9  and  C_10
REMARK    6  A    between atoms: C_10  and  C_11
REMARK    7  A    between atoms: C_14  and  C_15
REMARK    8  A    between atoms: C_15  and  N_16
REMARK    9  A    between atoms: C_17  and  C_19
REMARK                            x       y       z     vdW  Elec       q    Type
REMARK                         _______ _______ _______ _____ _____    ______ ____
ROOT
ATOM      1  C   UNL     1      49.805   8.014  15.695  0.00  0.00    +0.000 A 
ATOM      2  C   UNL     1      50.393   7.448  14.560  0.00  0.00    +0.000 A 
ATOM      3  C   UNL     1      49.693   7.388  13.350  0.00  0.00    +0.000 A 
ATOM      4  C   UNL     1      48.394   7.898  13.248  0.00  0.00    +0.000 A 
ATOM      5  C   UNL     1      47.794   8.434  14.395  0.00  0.00    +0.000 A 
ATOM      6  C   UNL     1      48.489   8.497  15.608  0.00  0.00    +0.000 A 
ENDROOT
BRANCH   1   7
ATOM      7  C   UNL     1      50.589   8.145  16.982  0.00  0.00    +0.000 C 
BRANCH   7   8
ATOM      8  N   UNL     1      50.322   7.054  17.923  0.00  0.00    +0.000 NA
ATOM      9  H   UNL     1      50.400   7.410  18.876  0.00  0.00    +0.000 HD
BRANCH   8  10
ATOM     10  C   UNL     1      51.293   5.957  17.795  0.00  0.00    +0.000 C 
BRANCH  10  15
ATOM     11  C   UNL     1      48.733   3.549  16.648  0.00  0.00    +0.000 A 
ATOM     12  C   UNL     1      49.328   2.305  16.837  0.00  0.00    +0.000 A 
ATOM     13  C   UNL     1      50.610   2.251  17.369  0.00  0.00    +0.000 A 
ATOM     14  C   UNL     1      51.260   3.434  17.698  0.00  0.00    +0.000 A 
ATOM     15  C   UNL     1      50.604   4.645  17.480  0.00  0.00    +0.000 A 
ATOM     16  N   UNL     1      49.355   4.713  16.954  0.00  0.00    +0.000 NA
BRANCH  11  18
ATOM     17  C   UNL     1      47.193   4.707  15.071  0.00  0.00    +0.000 C 
ATOM     18  C   UNL     1      47.314   3.646  16.154  0.00  0.00    +0.000 C 
ENDBRANCH  11  18
ENDBRANCH  10  15
ENDBRANCH   8  10
ENDBRANCH   7   8
ENDBRANCH   1   7
BRANCH   4  19
ATOM     19  C   UNL     1      47.641   7.872  11.942  0.00  0.00    +0.000 C 
BRANCH  19  20
ATOM     20  N   UNL     1      46.932   6.631  11.761  0.00  0.00    +0.000 N 
ATOM     21  C   UNL     1      45.574   6.549  11.934  0.00  0.00    +0.000 C 
ATOM     22  O   UNL     1      44.889   7.528  12.223  0.00  0.00    +0.000 OA
ATOM     23  H   UNL     1      47.485   5.781  11.789  0.00  0.00    +0.000 HD
BRANCH  21  24
ATOM     24  C   UNL     1      44.967   5.236  11.687  0.00  0.00    +0.000 A 
ATOM     25  C   UNL     1      44.279   4.585  12.704  0.00  0.00    +0.000 A 
ATOM     26  S   UNL     1      43.606   3.092  12.227  0.00  0.00    +0.000 S 
ATOM     27  C   UNL     1      44.253   3.238  10.660  0.00  0.00    +0.000 A 
ATOM     28  N   UNL     1      44.075   2.258   9.733  0.00  0.00    +0.000 NA
ATOM     29  C   UNL     1      44.640   2.489   8.595  0.00  0.00    +0.000 A 
ATOM     30  N   UNL     1      45.363   3.616   8.298  0.00  0.00    +0.000 N 
ATOM     31  C   UNL     1      45.541   4.643   9.191  0.00  0.00    +0.000 A 
ATOM     32  O   UNL     1      46.148   5.663   8.875  0.00  0.00    +0.000 OA
ATOM     33  C   UNL     1      44.945   4.423  10.494  0.00  0.00    +0.000 A 
ATOM     34  H   UNL     1      45.770   3.745   7.384  0.00  0.00    +0.000 HD
ENDBRANCH  21  24
ENDBRANCH  19  20
ENDBRANCH   4  19
TORSDOF 8
ENDMDL
MODEL 4
REMARK VINA RESULT:    -7.139      1.536      1.899
REMARK INTER + INTRA:         -11.794
REMARK INTER:                 -10.633
REMARK INTRA:                  -1.161
REMARK UNBOUND:                -1.317
REMARK  Name = 
REMARK  9 active torsions:
REMARK  status: ('A' for Active; 'I' for Inactive)
REMARK    1  A    between atoms: C_1  and  C_2
REMARK    2  A    between atoms: C_2  and  C_3
REMARK    3  A    between atoms: C_7  and  C_8
REMARK    4  A    between atoms: C_8  and  N_9
REMARK    5  A    between atoms: N_9  and  C_10
REMARK    6  A    between atoms: C_10  and  C_11
REMARK    7  A    between atoms: C_14  and  C_15
REMARK    8  A    between atoms: C_15  and  N_16
REMARK    9  A    between atoms: C_17  and  C_19
REMARK                            x       y       z     vdW  Elec       q    Type
REMARK                         _______ _______ _______ _____ _____    ______ ____
ROOT
ATOM      1  C   UNL     1      44.758   5.881  12.272  0.00  0.00    +0.000 A 
ATOM      2  C   UNL     1      45.707   4.997  12.793  0.00  0.00    +0.000 A 
ATOM      3  C   UNL     1      47.016   5.424  13.043  0.00  0.00    +0.000 A 
ATOM      4  C   UNL     1      47.402   6.744  12.782  0.00  0.00    +0.000 A 
ATOM      5  C   UNL     1      46.459   7.619  12.228  0.00  0.00    +0.000 A 
ATOM      6  C   UNL     1      45.148   7.198  11.976  0.00  0.00    +0.000 A 
ENDROOT
BRANCH   1   7
ATOM      7  C   UNL     1      43.326   5.440  12.072  0.00  0.00    +0.000 C 
BRANCH   7   8
ATOM      8  N   UNL     1      43.182   4.438  11.013  0.00  0.00    +0.000 NA
ATOM      9  H   UNL     1      43.688   3.593  11.285  0.00  0.00    +0.000 HD
BRANCH   8  10
ATOM     10  C   UNL     1      43.757   4.888   9.737  0.00  0.00    +0.000 C 
BRANCH  10  15
ATOM     11  C   UNL     1      46.037   3.153   7.399  0.00  0.00    +0.000 A 
ATOM     12  C   UNL     1      46.062   1.841   7.860  0.00  0.00    +0.000 A 
ATOM     13  C   UNL     1      45.297   1.508   8.971  0.00  0.00    +0.000 A 
ATOM     14  C   UNL     1      44.531   2.488   9.588  0.00  0.00    +0.000 A 
ATOM     15  C   UNL     1      44.554   3.783   9.072  0.00  0.00    +0.000 A 
ATOM     16  N   UNL     1      45.302   4.124   7.992  0.00  0.00    +0.000 NA
BRANCH  11  18
ATOM     17  C   UNL     1      47.769   2.445   5.757  0.00  0.00    +0.000 C 
ATOM     18  C   UNL     1      46.783   3.535   6.148  0.00  0.00    +0.000 C 
ENDBRANCH  11  18
ENDBRANCH  10  15
ENDBRANCH   8  10
ENDBRANCH   7   8
ENDBRANCH   1   7
BRANCH   4  19
ATOM     19  C   UNL     1      48.799   7.226  13.079  0.00  0.00    +0.000 C 
BRANCH  19  20
ATOM     20  N   UNL     1      49.164   6.986  14.453  0.00  0.00    +0.000 N 
ATOM     21  C   UNL     1      48.771   7.832  15.458  0.00  0.00    +0.000 C 
ATOM     22  O   UNL     1      48.068   8.818  15.249  0.00  0.00    +0.000 OA
ATOM     23  H   UNL     1      49.943   6.355  14.614  0.00  0.00    +0.000 HD
BRANCH  21  24
ATOM     24  C   UNL     1      49.180   7.457  16.817  0.00  0.00    +0.000 A 
ATOM     25  C   UNL     1      49.809   8.387  17.635  0.00  0.00    +0.000 A 
ATOM     26  S   UNL     1      50.175   7.792  19.192  0.00  0.00    +0.000 S 
ATOM     27  C   UNL     1      49.551   6.255  18.810  0.00  0.00    +0.000 A 
ATOM     28  N   UNL     1      49.589   5.238  19.714  0.00  0.00    +0.000 NA
ATOM     29  C   UNL     1      49.104   4.122  19.283  0.00  0.00    +0.000 A 
ATOM     30  N   UNL     1      48.578   3.932  18.031  0.00  0.00    +0.000 N 
ATOM     31  C   UNL     1      48.490   4.936  17.100  0.00  0.00    +0.000 A 
ATOM     32  O   UNL     1      47.963   4.747  16.007  0.00  0.00    +0.000 OA
ATOM     33  C   UNL     1      49.043   6.206  17.525  0.00  0.00    +0.000 A 
ATOM     34  H   UNL     1      48.200   3.037  17.758  0.00  0.00    +0.000 HD
ENDBRANCH  21  24
ENDBRANCH  19  20
ENDBRANCH   4  19
TORSDOF 8
ENDMDL
MODEL 5
REMARK VINA RESULT:    -7.011      4.333      5.576
REMARK INTER + INTRA:         -11.606
REMARK INTER:                 -10.447
REMARK INTRA:                  -1.159
REMARK UNBOUND:                -1.317
REMARK  Name = 
REMARK  9 active torsions:
REMARK  status: ('A' for Active; 'I' for Inactive)
REMARK    1  A    between atoms: C_1  and  C_2
REMARK    2  A    between atoms: C_2  and  C_3
REMARK    3  A    between atoms: C_7  and  C_8
REMARK    4  A    between atoms: C_8  and  N_9
REMARK    5  A    between atoms: N_9  and  C_10
REMARK    6  A    between atoms: C_10  and  C_11
REMARK    7  A    between atoms: C_14  and  C_15
REMARK    8  A    between atoms: C_15  and  N_16
REMARK    9  A    between atoms: C_17  and  C_19
REMARK                            x       y       z     vdW  Elec       q    Type
REMARK                         _______ _______ _______ _____ _____    ______ ____
ROOT
ATOM      1  C   UNL     1      47.858   6.210  14.483  0.00  0.00    +0.000 A 
ATOM      2  C   UNL     1      48.616   6.478  15.627  0.00  0.00    +0.000 A 
ATOM      3  C   UNL     1      48.695   5.542  16.664  0.00  0.00    +0.000 A 
ATOM      4  C   UNL     1      48.024   4.317  16.577  0.00  0.00    +0.000 A 
ATOM      5  C   UNL     1      47.238   4.064  15.445  0.00  0.00    +0.000 A 
ATOM      6  C   UNL     1      47.155   4.997  14.404  0.00  0.00    +0.000 A 
ENDROOT
BRANCH   1   7
ATOM      7  C   UNL     1      47.833   7.189  13.332  0.00  0.00    +0.000 C 
BRANCH   7   8
ATOM      8  N   UNL     1      47.321   6.597  12.093  0.00  0.00    +0.000 NA
ATOM      9  H   UNL     1      47.920   6.882  11.316  0.00  0.00    +0.000 HD
BRANCH   8  10
ATOM     10  C   UNL     1      45.961   7.057  11.775  0.00  0.00    +0.000 C 
BRANCH  10  15
ATOM     11  C   UNL     1      44.338   4.060  10.342  0.00  0.00    +0.000 A 
ATOM     12  C   UNL     1      43.357   3.727  11.271  0.00  0.00    +0.000 A 
ATOM     13  C   UNL     1      43.214   4.518  12.404  0.00  0.00    +0.000 A 
ATOM     14  C   UNL     1      44.049   5.615  12.577  0.00  0.00    +0.000 A 
ATOM     15  C   UNL     1      45.011   5.889  11.605  0.00  0.00    +0.000 A 
ATOM     16  N   UNL     1      45.166   5.120  10.497  0.00  0.00    +0.000 NA
BRANCH  11  18
ATOM     17  C   UNL     1      45.543   3.881   8.170  0.00  0.00    +0.000 C 
ATOM     18  C   UNL     1      44.467   3.279   9.061  0.00  0.00    +0.000 C 
ENDBRANCH  11  18
ENDBRANCH  10  15
ENDBRANCH   8  10
ENDBRANCH   7   8
ENDBRANCH   1   7
BRANCH   4  19
ATOM     19  C   UNL     1      48.129   3.285  17.671  0.00  0.00    +0.000 C 
BRANCH  19  20
ATOM     20  N   UNL     1      49.502   2.966  17.971  0.00  0.00    +0.000 N 
ATOM     21  C   UNL     1      50.261   2.195  17.127  0.00  0.00    +0.000 C 
ATOM     22  O   UNL     1      49.823   1.762  16.064  0.00  0.00    +0.000 OA
ATOM     23  H   UNL     1      49.796   3.077  18.936  0.00  0.00    +0.000 HD
BRANCH  21  24
ATOM     24  C   UNL     1      51.654   1.971  17.530  0.00  0.00    +0.000 A 
ATOM     25  C   UNL     1      52.126   0.677  17.709  0.00  0.00    +0.000 A 
ATOM     26  S   UNL     1      53.776   0.604  18.136  0.00  0.00    +0.000 S 
ATOM     27  C   UNL     1      53.905   2.301  18.148  0.00  0.00    +0.000 A 
ATOM     28  N   UNL     1      55.073   2.914  18.478  0.00  0.00    +0.000 NA
ATOM     29  C   UNL     1      55.021   4.204  18.468  0.00  0.00    +0.000 A 
ATOM     30  N   UNL     1      53.907   4.938  18.152  0.00  0.00    +0.000 N 
ATOM     31  C   UNL     1      52.717   4.362  17.782  0.00  0.00    +0.000 A 
ATOM     32  O   UNL     1      51.753   5.048  17.452  0.00  0.00    +0.000 OA
ATOM     33  C   UNL     1      52.715   2.913  17.799  0.00  0.00    +0.000 A 
ATOM     34  H   UNL     1      53.933   5.946  18.149  0.00  0.00    +0.000 HD
ENDBRANCH  21  24
ENDBRANCH  19  20
ENDBRANCH   4  19
TORSDOF 8
ENDMDL
MODEL 6
REMARK VINA RESULT:    -6.981      4.195      4.836
REMARK INTER + INTRA:         -11.563
REMARK INTER:                 -10.620
REMARK INTRA:                  -0.943
REMARK UNBOUND:                -1.317
REMARK  Name = 
REMARK  9 active torsions:
REMARK  status: ('A' for Active; 'I' for Inactive)
REMARK    1  A    between atoms: C_1  and  C_2
REMARK    2  A    between atoms: C_2  and  C_3
REMARK    3  A    between atoms: C_7  and  C_8
REMARK    4  A    between atoms: C_8  and  N_9
REMARK    5  A    between atoms: N_9  and  C_10
REMARK    6  A    between atoms: C_10  and  C_11
REMARK    7  A    between atoms: C_14  and  C_15
REMARK    8  A    between atoms: C_15  and  N_16
REMARK    9  A    between atoms: C_17  and  C_19
REMARK                            x       y       z     vdW  Elec       q    Type
REMARK                         _______ _______ _______ _____ _____    ______ ____
ROOT
ATOM      1  C   UNL     1      47.113   6.330  13.502  0.00  0.00    +0.000 A 
ATOM      2  C   UNL     1      46.503   5.089  13.705  0.00  0.00    +0.000 A 
ATOM      3  C   UNL     1      46.815   4.317  14.831  0.00  0.00    +0.000 A 
ATOM      4  C   UNL     1      47.738   4.774  15.779  0.00  0.00    +0.000 A 
ATOM      5  C   UNL     1      48.374   6.002  15.556  0.00  0.00    +0.000 A 
ATOM      6  C   UNL     1      48.065   6.778  14.432  0.00  0.00    +0.000 A 
ENDROOT
BRANCH   1   7
ATOM      7  C   UNL     1      46.721   7.194  12.325  0.00  0.00    +0.000 C 
BRANCH   7   8
ATOM      8  N   UNL     1      46.660   6.447  11.067  0.00  0.00    +0.000 NA
ATOM      9  H   UNL     1      47.115   6.993  10.333  0.00  0.00    +0.000 HD
BRANCH   8  10
ATOM     10  C   UNL     1      45.277   6.209  10.626  0.00  0.00    +0.000 C 
BRANCH  10  15
ATOM     11  C   UNL     1      45.663   3.518   8.120  0.00  0.00    +0.000 A 
ATOM     12  C   UNL     1      44.982   2.438   8.673  0.00  0.00    +0.000 A 
ATOM     13  C   UNL     1      44.364   2.598   9.907  0.00  0.00    +0.000 A 
ATOM     14  C   UNL     1      44.442   3.827  10.551  0.00  0.00    +0.000 A 
ATOM     15  C   UNL     1      45.142   4.865   9.939  0.00  0.00    +0.000 A 
ATOM     16  N   UNL     1      45.757   4.720   8.737  0.00  0.00    +0.000 NA
BRANCH  11  18
ATOM     17  C   UNL     1      47.453   2.453   6.756  0.00  0.00    +0.000 C 
ATOM     18  C   UNL     1      46.272   3.411   6.747  0.00  0.00    +0.000 C 
ENDBRANCH  11  18
ENDBRANCH  10  15
ENDBRANCH   8  10
ENDBRANCH   7   8
ENDBRANCH   1   7
BRANCH   4  19
ATOM     19  C   UNL     1      48.057   3.969  17.014  0.00  0.00    +0.000 C 
BRANCH  19  20
ATOM     20  N   UNL     1      49.468   3.696  17.121  0.00  0.00    +0.000 N 
ATOM     21  C   UNL     1      50.223   4.210  18.143  0.00  0.00    +0.000 C 
ATOM     22  O   UNL     1      49.736   4.905  19.033  0.00  0.00    +0.000 OA
ATOM     23  H   UNL     1      49.933   3.364  16.282  0.00  0.00    +0.000 HD
BRANCH  21  24
ATOM     24  C   UNL     1      51.640   3.829  18.158  0.00  0.00    +0.000 A 
ATOM     25  C   UNL     1      52.608   4.763  18.506  0.00  0.00    +0.000 A 
ATOM     26  S   UNL     1      54.194   4.136  18.509  0.00  0.00    +0.000 S 
ATOM     27  C   UNL     1      53.649   2.607  17.996  0.00  0.00    +0.000 A 
ATOM     28  N   UNL     1      54.524   1.591  17.764  0.00  0.00    +0.000 NA
ATOM     29  C   UNL     1      53.976   0.496  17.356  0.00  0.00    +0.000 A 
ATOM     30  N   UNL     1      52.629   0.322  17.165  0.00  0.00    +0.000 N 
ATOM     31  C   UNL     1      51.708   1.308  17.417  0.00  0.00    +0.000 A 
ATOM     32  O   UNL     1      50.504   1.102  17.288  0.00  0.00    +0.000 OA
ATOM     33  C   UNL     1      52.274   2.568  17.855  0.00  0.00    +0.000 A 
ATOM     34  H   UNL     1      52.260  -0.565  16.858  0.00  0.00    +0.000 HD
ENDBRANCH  21  24
ENDBRANCH  19  20
ENDBRANCH   4  19
TORSDOF 8
ENDMDL
MODEL 7
REMARK VINA RESULT:    -6.849      5.988      9.745
REMARK INTER + INTRA:         -11.369
REMARK INTER:                 -10.340
REMARK INTRA:                  -1.029
REMARK UNBOUND:                -1.317
REMARK  Name = 
REMARK  9 active torsions:
REMARK  status: ('A' for Active; 'I' for Inactive)
REMARK    1  A    between atoms: C_1  and  C_2
REMARK    2  A    between atoms: C_2  and  C_3
REMARK    3  A    between atoms: C_7  and  C_8
REMARK    4  A    between atoms: C_8  and  N_9
REMARK    5  A    between atoms: N_9  and  C_10
REMARK    6  A    between atoms: C_10  and  C_11
REMARK    7  A    between atoms: C_14  and  C_15
REMARK    8  A    between atoms: C_15  and  N_16
REMARK    9  A    between atoms: C_17  and  C_19
REMARK                            x       y       z     vdW  Elec       q    Type
REMARK                         _______ _______ _______ _____ _____    ______ ____
ROOT
ATOM      1  C   UNL     1      51.317   3.690  18.058  0.00  0.00    +0.000 A 
ATOM      2  C   UNL     1      50.831   2.505  17.498  0.00  0.00    +0.000 A 
ATOM      3  C   UNL     1      49.486   2.390  17.132  0.00  0.00    +0.000 A 
ATOM      4  C   UNL     1      48.600   3.458  17.311  0.00  0.00    +0.000 A 
ATOM      5  C   UNL     1      49.081   4.633  17.903  0.00  0.00    +0.000 A 
ATOM      6  C   UNL     1      50.426   4.755  18.272  0.00  0.00    +0.000 A 
ENDROOT
BRANCH   1   7
ATOM      7  C   UNL     1      52.786   3.840  18.385  0.00  0.00    +0.000 C 
BRANCH   7   8
ATOM      8  N   UNL     1      53.243   2.881  19.394  0.00  0.00    +0.000 NA
ATOM      9  H   UNL     1      53.227   3.330  20.311  0.00  0.00    +0.000 HD
BRANCH   8  10
ATOM     10  C   UNL     1      54.626   2.441  19.158  0.00  0.00    +0.000 C 
BRANCH  10  15
ATOM     11  C   UNL     1      54.506  -1.192  18.479  0.00  0.00    +0.000 A 
ATOM     12  C   UNL     1      54.668  -1.285  17.100  0.00  0.00    +0.000 A 
ATOM     13  C   UNL     1      54.834  -0.117  16.366  0.00  0.00    +0.000 A 
ATOM     14  C   UNL     1      54.834   1.106  17.025  0.00  0.00    +0.000 A 
ATOM     15  C   UNL     1      54.665   1.124  18.409  0.00  0.00    +0.000 A 
ATOM     16  N   UNL     1      54.495  -0.008  19.137  0.00  0.00    +0.000 NA
BRANCH  11  18
ATOM     17  C   UNL     1      52.959  -2.758  19.643  0.00  0.00    +0.000 C 
ATOM     18  C   UNL     1      54.410  -2.437  19.320  0.00  0.00    +0.000 C 
ENDBRANCH  11  18
ENDBRANCH  10  15
ENDBRANCH   8  10
ENDBRANCH   7   8
ENDBRANCH   1   7
BRANCH   4  19
ATOM     19  C   UNL     1      47.156   3.359  16.888  0.00  0.00    +0.000 C 
BRANCH  19  20
ATOM     20  N   UNL     1      46.817   4.366  15.914  0.00  0.00    +0.000 N 
ATOM     21  C   UNL     1      46.905   4.119  14.567  0.00  0.00    +0.000 C 
ATOM     22  O   UNL     1      47.249   3.027  14.121  0.00  0.00    +0.000 OA
ATOM     23  H   UNL     1      46.794   5.327  16.239  0.00  0.00    +0.000 HD
BRANCH  21  24
ATOM     24  C   UNL     1      46.499   5.216  13.680  0.00  0.00    +0.000 A 
ATOM     25  C   UNL     1      47.366   6.275  13.442  0.00  0.00    +0.000 A 
ATOM     26  S   UNL     1      46.746   7.435  12.355  0.00  0.00    +0.000 S 
ATOM     27  C   UNL     1      45.276   6.589  12.205  0.00  0.00    +0.000 A 
ATOM     28  N   UNL     1      44.266   7.069  11.431  0.00  0.00    +0.000 NA
ATOM     29  C   UNL     1      43.201   6.338  11.427  0.00  0.00    +0.000 A 
ATOM     30  N   UNL     1      43.058   5.166  12.124  0.00  0.00    +0.000 N 
ATOM     31  C   UNL     1      44.061   4.628  12.891  0.00  0.00    +0.000 A 
ATOM     32  O   UNL     1      43.920   3.548  13.458  0.00  0.00    +0.000 OA
ATOM     33  C   UNL     1      45.272   5.422  12.947  0.00  0.00    +0.000 A 
ATOM     34  H   UNL     1      42.204   4.632  12.069  0.00  0.00    +0.000 HD
ENDBRANCH  21  24
ENDBRANCH  19  20
ENDBRANCH   4  19
TORSDOF 8
ENDMDL
MODEL 8
REMARK VINA RESULT:    -6.472      3.298      9.371
REMARK INTER + INTRA:         -10.816
REMARK INTER:                  -9.527
REMARK INTRA:                  -1.289
REMARK UNBOUND:                -1.317
REMARK  Name = 
REMARK  9 active torsions:
REMARK  status: ('A' for Active; 'I' for Inactive)
REMARK    1  A    between atoms: C_1  and  C_2
REMARK    2  A    between atoms: C_2  and  C_3
REMARK    3  A    between atoms: C_7  and  C_8
REMARK    4  A    between atoms: C_8  and  N_9
REMARK    5  A    between atoms: N_9  and  C_10
REMARK    6  A    between atoms: C_10  and  C_11
REMARK    7  A    between atoms: C_14  and  C_15
REMARK    8  A    between atoms: C_15  and  N_16
REMARK    9  A    between atoms: C_17  and  C_19
REMARK                            x       y       z     vdW  Elec       q    Type
REMARK                         _______ _______ _______ _____ _____    ______ ____
ROOT
ATOM      1  C   UNL     1      50.490   7.643  14.787  0.00  0.00    +0.000 A 
ATOM      2  C   UNL     1      49.251   7.014  14.942  0.00  0.00    +0.000 A 
ATOM      3  C   UNL     1      48.282   7.091  13.935  0.00  0.00    +0.000 A 
ATOM      4  C   UNL     1      48.534   7.793  12.751  0.00  0.00    +0.000 A 
ATOM      5  C   UNL     1      49.763   8.451  12.611  0.00  0.00    +0.000 A 
ATOM      6  C   UNL     1      50.736   8.377  13.615  0.00  0.00    +0.000 A 
ENDROOT
BRANCH   1   7
ATOM      7  C   UNL     1      51.563   7.497  15.842  0.00  0.00    +0.000 C 
BRANCH   7   8
ATOM      8  N   UNL     1      51.137   7.986  17.156  0.00  0.00    +0.000 NA
ATOM      9  H   UNL     1      51.827   8.655  17.502  0.00  0.00    +0.000 HD
BRANCH   8  10
ATOM     10  C   UNL     1      51.052   6.908  18.152  0.00  0.00    +0.000 C 
BRANCH  10  15
ATOM     11  C   UNL     1      47.750   5.244  18.187  0.00  0.00    +0.000 A 
ATOM     12  C   UNL     1      47.024   5.949  19.142  0.00  0.00    +0.000 A 
ATOM     13  C   UNL     1      47.633   7.016  19.791  0.00  0.00    +0.000 A 
ATOM     14  C   UNL     1      48.943   7.348  19.471  0.00  0.00    +0.000 A 
ATOM     15  C   UNL     1      49.611   6.597  18.505  0.00  0.00    +0.000 A 
ATOM     16  N   UNL     1      49.030   5.548  17.868  0.00  0.00    +0.000 NA
BRANCH  11  18
ATOM     17  C   UNL     1      47.789   2.809  17.667  0.00  0.00    +0.000 C 
ATOM     18  C   UNL     1      47.098   4.137  17.401  0.00  0.00    +0.000 C 
ENDBRANCH  11  18
ENDBRANCH  10  15
ENDBRANCH   8  10
ENDBRANCH   7   8
ENDBRANCH   1   7
BRANCH   4  19
ATOM     19  C   UNL     1      47.513   7.855  11.643  0.00  0.00    +0.000 C 
BRANCH  19  20
ATOM     20  N   UNL     1      46.812   6.604  11.496  0.00  0.00    +0.000 N 
ATOM     21  C   UNL     1      45.441   6.545  11.494  0.00  0.00    +0.000 C 
ATOM     22  O   UNL     1      44.742   7.551  11.589  0.00  0.00    +0.000 OA
ATOM     23  H   UNL     1      47.342   5.759  11.683  0.00  0.00    +0.000 HD
BRANCH  21  24
ATOM     24  C   UNL     1      44.849   5.216  11.302  0.00  0.00    +0.000 A 
ATOM     25  C   UNL     1      44.076   4.648  12.307  0.00  0.00    +0.000 A 
ATOM     26  S   UNL     1      43.436   3.120  11.895  0.00  0.00    +0.000 S 
ATOM     27  C   UNL     1      44.213   3.142  10.381  0.00  0.00    +0.000 A 
ATOM     28  N   UNL     1      44.106   2.092   9.523  0.00  0.00    +0.000 NA
ATOM     29  C   UNL     1      44.765   2.232   8.421  0.00  0.00    +0.000 A 
ATOM     30  N   UNL     1      45.517   3.332   8.097  0.00  0.00    +0.000 N 
ATOM     31  C   UNL     1      45.625   4.428   8.917  0.00  0.00    +0.000 A 
ATOM     32  O   UNL     1      46.262   5.420   8.574  0.00  0.00    +0.000 OA
ATOM     33  C   UNL     1      44.923   4.311  10.179  0.00  0.00    +0.000 A 
ATOM     34  H   UNL     1      45.998   3.389   7.213  0.00  0.00    +0.000 HD
ENDBRANCH  21  24
ENDBRANCH  19  20
ENDBRANCH   4  19
TORSDOF 8
ENDMDL
MODEL 9
REMARK VINA RESULT:    -6.289      5.639      8.476
REMARK INTER + INTRA:         -10.547
REMARK INTER:                  -9.631
REMARK INTRA:                  -0.916
REMARK UNBOUND:                -1.317
REMARK  Name = 
REMARK  9 active torsions:
REMARK  status: ('A' for Active; 'I' for Inactive)
REMARK    1  A    between atoms: C_1  and  C_2
REMARK    2  A    between atoms: C_2  and  C_3
REMARK    3  A    between atoms: C_7  and  C_8
REMARK    4  A    between atoms: C_8  and  N_9
REMARK    5  A    between atoms: N_9  and  C_10
REMARK    6  A    between atoms: C_10  and  C_11
REMARK    7  A    between atoms: C_14  and  C_15
REMARK    8  A    between atoms: C_15  and  N_16
REMARK    9  A    between atoms: C_17  and  C_19
REMARK                            x       y       z     vdW  Elec       q    Type
REMARK                         _______ _______ _______ _____ _____    ______ ____
ROOT
ATOM      1  C   UNL     1      47.171   8.937  12.197  0.00  0.00    +0.000 A 
ATOM      2  C   UNL     1      47.724   7.667  12.385  0.00  0.00    +0.000 A 
ATOM      3  C   UNL     1      49.098   7.456  12.222  0.00  0.00    +0.000 A 
ATOM      4  C   UNL     1      49.948   8.512  11.875  0.00  0.00    +0.000 A 
ATOM      5  C   UNL     1      49.388   9.777  11.653  0.00  0.00    +0.000 A 
ATOM      6  C   UNL     1      48.015   9.993  11.815  0.00  0.00    +0.000 A 
ENDROOT
BRANCH   1   7
ATOM      7  C   UNL     1      45.700   9.179  12.445  0.00  0.00    +0.000 C 
BRANCH   7   8
ATOM      8  N   UNL     1      44.956   7.943  12.702  0.00  0.00    +0.000 NA
ATOM      9  H   UNL     1      45.570   7.278  13.176  0.00  0.00    +0.000 HD
BRANCH   8  10
ATOM     10  C   UNL     1      44.502   7.297  11.462  0.00  0.00    +0.000 C 
BRANCH  10  15
ATOM     11  C   UNL     1      44.508   3.637  10.932  0.00  0.00    +0.000 A 
ATOM     12  C   UNL     1      43.833   3.132  12.039  0.00  0.00    +0.000 A 
ATOM     13  C   UNL     1      43.349   4.022  12.990  0.00  0.00    +0.000 A 
ATOM     14  C   UNL     1      43.549   5.385  12.810  0.00  0.00    +0.000 A 
ATOM     15  C   UNL     1      44.235   5.820  11.677  0.00  0.00    +0.000 A 
ATOM     16  N   UNL     1      44.720   4.962  10.744  0.00  0.00    +0.000 NA
BRANCH  11  18
ATOM     17  C   UNL     1      44.657   3.298   8.470  0.00  0.00    +0.000 C 
ATOM     18  C   UNL     1      44.973   2.713   9.838  0.00  0.00    +0.000 C 
ENDBRANCH  11  18
ENDBRANCH  10  15
ENDBRANCH   8  10
ENDBRANCH   7   8
ENDBRANCH   1   7
BRANCH   4  19
ATOM     19  C   UNL     1      51.435   8.306  11.730  0.00  0.00    +0.000 C 
BRANCH  19  20
ATOM     20  N   UNL     1      51.794   7.944  10.382  0.00  0.00    +0.000 N 
ATOM     21  C   UNL     1      52.780   8.609   9.699  0.00  0.00    +0.000 C 
ATOM     22  O   UNL     1      53.426   9.525  10.205  0.00  0.00    +0.000 OA
ATOM     23  H   UNL     1      51.118   7.394   9.862  0.00  0.00    +0.000 HD
BRANCH  21  24
ATOM     24  C   UNL     1      53.073   8.122   8.346  0.00  0.00    +0.000 A 
ATOM     25  C   UNL     1      52.999   8.990   7.264  0.00  0.00    +0.000 A 
ATOM     26  S   UNL     1      53.412   8.264   5.776  0.00  0.00    +0.000 S 
ATOM     27  C   UNL     1      53.654   6.752   6.519  0.00  0.00    +0.000 A 
ATOM     28  N   UNL     1      53.997   5.658   5.787  0.00  0.00    +0.000 NA
ATOM     29  C   UNL     1      54.125   4.573   6.475  0.00  0.00    +0.000 A 
ATOM     30  N   UNL     1      53.947   4.484   7.832  0.00  0.00    +0.000 N 
ATOM     31  C   UNL     1      53.633   5.568   8.614  0.00  0.00    +0.000 A 
ATOM     32  O   UNL     1      53.534   5.466   9.834  0.00  0.00    +0.000 OA
ATOM     33  C   UNL     1      53.455   6.808   7.886  0.00  0.00    +0.000 A 
ATOM     34  H   UNL     1      54.076   3.608   8.316  0.00  0.00    +0.000 HD
ENDBRANCH  21  24
ENDBRANCH  19  20
ENDBRANCH   4  19
TORSDOF 8
ENDMDL
