MODEL 1
REMARK VINA RESULT:    -7.884      0.000      0.000
REMARK INTER + INTRA:         -10.840
REMARK INTER:                 -10.418
REMARK INTRA:                  -0.421
REMARK UNBOUND:                -0.421
REMARK  Name = 
REMARK  7 active torsions:
REMARK  status: ('A' for Active; 'I' for Inactive)
REMARK    1  A    between atoms: C_1  and  S_2
REMARK    2  A    between atoms: S_2  and  C_5
REMARK    3  A    between atoms: C_8  and  O_9
REMARK    4  A    between atoms: O_9  and  C_10
REMARK    5  A    between atoms: C_10  and  C_11
REMARK    6  A    between atoms: C_14  and  C_15
REMARK    7  A    between atoms: C_15  and  N_16
REMARK                            x       y       z     vdW  Elec       q    Type
REMARK                         _______ _______ _______ _____ _____    ______ ____
ROOT
ATOM      1  O   UNL     1      44.936   5.793  10.899  0.00  0.00    +0.000 OA
ENDROOT
BRANCH   1   5
ATOM      2  C   UNL     1      46.680   4.619  14.352  0.00  0.00    +0.000 A 
ATOM      3  C   UNL     1      47.279   5.614  13.602  0.00  0.00    +0.000 A 
ATOM      4  N   UNL     1      46.735   6.053  12.433  0.00  0.00    +0.000 NA
ATOM      5  C   UNL     1      45.579   5.448  12.068  0.00  0.00    +0.000 A 
ATOM      6  C   UNL     1      44.985   4.456  12.842  0.00  0.00    +0.000 A 
ATOM      7  N   UNL     1      45.516   4.007  14.005  0.00  0.00    +0.000 NA
BRANCH   2   9
ATOM      8  C   UNL     1      48.494   5.377  16.353  0.00  0.00    +0.000 C 
ATOM      9  S   UNL     1      47.439   4.046  15.836  0.00  0.00    +0.000 S 
ATOM     10  O   UNL     1      48.283   2.919  15.479  0.00  0.00    +0.000 OA
ATOM     11  O   UNL     1      46.386   3.902  16.826  0.00  0.00    +0.000 OA
ENDBRANCH   2   9
ENDBRANCH   1   5
BRANCH   1  12
ATOM     12  C   UNL     1      44.104   4.761  10.366  0.00  0.00    +0.000 C 
BRANCH  12  13
ATOM     13  C   UNL     1      44.929   3.943   9.394  0.00  0.00    +0.000 A 
ATOM     14  C   UNL     1      44.950   2.543   9.464  0.00  0.00    +0.000 A 
ATOM     15  C   UNL     1      45.731   1.792   8.575  0.00  0.00    +0.000 A 
ATOM     16  C   UNL     1      46.510   2.423   7.595  0.00  0.00    +0.000 A 
ATOM     17  C   UNL     1      46.470   3.821   7.510  0.00  0.00    +0.000 A 
ATOM     18  C   UNL     1      45.689   4.572   8.397  0.00  0.00    +0.000 A 
BRANCH  16  19
ATOM     19  C   UNL     1      47.415   1.623   6.690  0.00  0.00    +0.000 C 
BRANCH  19  20
ATOM     20  N   UNL     1      48.561   2.397   6.226  0.00  0.00    +0.000 NA
ATOM     21  H   UNL     1      49.314   1.755   5.985  0.00  0.00    +0.000 HD
ATOM     22  H   UNL     1      48.906   2.972   6.992  0.00  0.00    +0.000 HD
ENDBRANCH  19  20
ENDBRANCH  16  19
ENDBRANCH  12  13
ENDBRANCH   1  12
TORSDOF 6
ENDMDL
MODEL 2
REMARK VINA RESULT:    -7.457      1.985      2.164
REMARK INTER + INTRA:         -10.276
REMARK INTER:                  -9.738
REMARK INTRA:                  -0.537
REMARK UNBOUND:                -0.421
REMARK  Name = 
REMARK  7 active torsions:
REMARK  status: ('A' for Active; 'I' for Inactive)
REMARK    1  A    between atoms: C_1  and  S_2
REMARK    2  A    between atoms: S_2  and  C_5
REMARK    3  A    between atoms: C_8  and  O_9
REMARK    4  A    between atoms: O_9  and  C_10
REMARK    5  A    between atoms: C_10  and  C_11
REMARK    6  A    between atoms: C_14  and  C_15
REMARK    7  A    between atoms: C_15  and  N_16
REMARK                            x       y       z     vdW  Elec       q    Type
REMARK                         _______ _______ _______ _____ _____    ______ ____
ROOT
ATOM      1  O   UNL     1      44.229   3.872  11.673  0.00  0.00    +0.000 OA
ENDROOT
BRANCH   1   5
ATOM      2  C   UNL     1      47.145   6.139  13.318  0.00  0.00    +0.000 A 
ATOM      3  C   UNL     1      46.204   6.742  12.505  0.00  0.00    +0.000 A 
ATOM      4  N   UNL     1      45.197   6.031  11.927  0.00  0.00    +0.000 NA
ATOM      5  C   UNL     1      45.189   4.705  12.208  0.00  0.00    +0.000 A 
ATOM      6  C   UNL     1      46.138   4.117  13.038  0.00  0.00    +0.000 A 
ATOM      7  N   UNL     1      47.147   4.812  13.617  0.00  0.00    +0.000 NA
BRANCH   2   9
ATOM      8  C   UNL     1      49.553   7.412  12.650  0.00  0.00    +0.000 C 
ATOM      9  S   UNL     1      48.460   7.087  14.010  0.00  0.00    +0.000 S 
ATOM     10  O   UNL     1      49.159   6.229  14.951  0.00  0.00    +0.000 OA
ATOM     11  O   UNL     1      47.892   8.353  14.440  0.00  0.00    +0.000 OA
ENDBRANCH   2   9
ENDBRANCH   1   5
BRANCH   1  12
ATOM     12  C   UNL     1      43.818   4.231  10.353  0.00  0.00    +0.000 C 
BRANCH  12  13
ATOM     13  C   UNL     1      44.758   3.568   9.367  0.00  0.00    +0.000 A 
ATOM     14  C   UNL     1      44.937   2.179   9.362  0.00  0.00    +0.000 A 
ATOM     15  C   UNL     1      45.824   1.573   8.462  0.00  0.00    +0.000 A 
ATOM     16  C   UNL     1      46.553   2.342   7.546  0.00  0.00    +0.000 A 
ATOM     17  C   UNL     1      46.357   3.729   7.535  0.00  0.00    +0.000 A 
ATOM     18  C   UNL     1      45.470   4.336   8.433  0.00  0.00    +0.000 A 
BRANCH  16  19
ATOM     19  C   UNL     1      47.570   1.703   6.630  0.00  0.00    +0.000 C 
BRANCH  19  20
ATOM     20  N   UNL     1      48.684   2.595   6.328  0.00  0.00    +0.000 NA
ATOM     21  H   UNL     1      49.097   2.314   5.440  0.00  0.00    +0.000 HD
ATOM     22  H   UNL     1      49.407   2.473   7.034  0.00  0.00    +0.000 HD
ENDBRANCH  19  20
ENDBRANCH  16  19
ENDBRANCH  12  13
ENDBRANCH   1  12
TORSDOF 6
ENDMDL
MODEL 3
REMARK VINA RESULT:    -6.690      3.559      6.829
REMARK INTER + INTRA:          -9.262
REMARK INTER:                  -8.826
REMARK INTRA:                  -0.436
REMARK UNBOUND:                -0.421
REMARK  Name = 
REMARK  7 active torsions:
REMARK  status: ('A' for Active; 'I' for Inactive)
REMARK    1  A    between atoms: C_1  and  S_2
REMARK    2  A    between atoms: S_2  and  C_5
REMARK    3  A    between atoms: C_8  and  O_9
REMARK    4  A    between atoms: O_9  and  C_10
REMARK    5  A    between atoms: C_10  and  C_11
REMARK    6  A    between atoms: C_14  and  C_15
REMARK    7  A    between atoms: C_15  and  N_16
REMARK                            x       y       z     vdW  Elec       q    Type
REMARK                         _______ _______ _______ _____ _____    ______ ____
ROOT
ATOM      1  O   UNL     1      43.610   4.011  10.498  0.00  0.00    +0.000 OA
ENDROOT
BRANCH   1   5
ATOM      2  C   UNL     1      46.249   2.559   7.802  0.00  0.00    +0.000 A 
ATOM      3  C   UNL     1      46.039   3.924   7.868  0.00  0.00    +0.000 A 
ATOM      4  N   UNL     1      45.166   4.471   8.758  0.00  0.00    +0.000 NA
ATOM      5  C   UNL     1      44.529   3.586   9.563  0.00  0.00    +0.000 A 
ATOM      6  C   UNL     1      44.761   2.216   9.489  0.00  0.00    +0.000 A 
ATOM      7  N   UNL     1      45.625   1.658   8.606  0.00  0.00    +0.000 NA
BRANCH   2   9
ATOM      8  C   UNL     1      46.889   2.655   5.072  0.00  0.00    +0.000 C 
ATOM      9  S   UNL     1      47.353   1.887   6.603  0.00  0.00    +0.000 S 
ATOM     10  O   UNL     1      47.062   0.468   6.498  0.00  0.00    +0.000 OA
ATOM     11  O   UNL     1      48.687   2.348   6.948  0.00  0.00    +0.000 OA
ENDBRANCH   2   9
ENDBRANCH   1   5
BRANCH   1  12
ATOM     12  C   UNL     1      43.892   3.577  11.829  0.00  0.00    +0.000 C 
BRANCH  12  13
ATOM     13  C   UNL     1      44.999   4.448  12.387  0.00  0.00    +0.000 A 
ATOM     14  C   UNL     1      46.064   3.890  13.107  0.00  0.00    +0.000 A 
ATOM     15  C   UNL     1      47.075   4.702  13.639  0.00  0.00    +0.000 A 
ATOM     16  C   UNL     1      47.044   6.092  13.464  0.00  0.00    +0.000 A 
ATOM     17  C   UNL     1      45.992   6.648  12.724  0.00  0.00    +0.000 A 
ATOM     18  C   UNL     1      44.982   5.837  12.190  0.00  0.00    +0.000 A 
BRANCH  16  19
ATOM     19  C   UNL     1      48.085   6.979  14.103  0.00  0.00    +0.000 C 
BRANCH  19  20
ATOM     20  N   UNL     1      48.932   6.253  15.043  0.00  0.00    +0.000 NA
ATOM     21  H   UNL     1      49.866   6.168  14.644  0.00  0.00    +0.000 HD
ATOM     22  H   UNL     1      48.576   5.305  15.147  0.00  0.00    +0.000 HD
ENDBRANCH  19  20
ENDBRANCH  16  19
ENDBRANCH  12  13
ENDBRANCH   1  12
TORSDOF 6
ENDMDL
MODEL 4
REMARK VINA RESULT:    -6.518      3.408      7.653
REMARK INTER + INTRA:          -9.035
REMARK INTER:                  -8.661
REMARK INTRA:                  -0.374
REMARK UNBOUND:                -0.421
REMARK  Name = 
REMARK  7 active torsions:
REMARK  status: ('A' for Active; 'I' for Inactive)
REMARK    1  A    between atoms: C_1  and  S_2
REMARK    2  A    between atoms: S_2  and  C_5
REMARK    3  A    between atoms: C_8  and  O_9
REMARK    4  A    between atoms: O_9  and  C_10
REMARK    5  A    between atoms: C_10  and  C_11
REMARK    6  A    between atoms: C_14  and  C_15
REMARK    7  A    between atoms: C_15  and  N_16
REMARK                            x       y       z     vdW  Elec       q    Type
REMARK                         _______ _______ _______ _____ _____    ______ ____
ROOT
ATOM      1  O   UNL     1      47.700   5.148  14.981  0.00  0.00    +0.000 OA
ENDROOT
BRANCH   1   5
ATOM      2  C   UNL     1      45.008   4.229  12.108  0.00  0.00    +0.000 A 
ATOM      3  C   UNL     1      45.240   5.558  12.410  0.00  0.00    +0.000 A 
ATOM      4  N   UNL     1      46.138   5.928  13.365  0.00  0.00    +0.000 NA
ATOM      5  C   UNL     1      46.777   4.907  13.986  0.00  0.00    +0.000 A 
ATOM      6  C   UNL     1      46.538   3.576  13.660  0.00  0.00    +0.000 A 
ATOM      7  N   UNL     1      45.646   3.193  12.715  0.00  0.00    +0.000 NA
BRANCH   2   9
ATOM      8  C   UNL     1      44.745   3.279   9.482  0.00  0.00    +0.000 C 
ATOM      9  S   UNL     1      43.804   3.791  10.897  0.00  0.00    +0.000 S 
ATOM     10  O   UNL     1      43.088   5.004  10.544  0.00  0.00    +0.000 OA
ATOM     11  O   UNL     1      43.094   2.630  11.404  0.00  0.00    +0.000 OA
ENDBRANCH   2   9
ENDBRANCH   1   5
BRANCH   1  12
ATOM     12  C   UNL     1      47.412   4.485  16.214  0.00  0.00    +0.000 C 
BRANCH  12  13
ATOM     13  C   UNL     1      48.660   3.749  16.658  0.00  0.00    +0.000 A 
ATOM     14  C   UNL     1      49.704   4.422  17.307  0.00  0.00    +0.000 A 
ATOM     15  C   UNL     1      50.864   3.741  17.697  0.00  0.00    +0.000 A 
ATOM     16  C   UNL     1      51.009   2.370  17.446  0.00  0.00    +0.000 A 
ATOM     17  C   UNL     1      49.956   1.692  16.818  0.00  0.00    +0.000 A 
ATOM     18  C   UNL     1      48.795   2.372  16.430  0.00  0.00    +0.000 A 
BRANCH  16  19
ATOM     19  C   UNL     1      52.290   1.648  17.790  0.00  0.00    +0.000 C 
BRANCH  19  20
ATOM     20  N   UNL     1      52.059   0.265  18.189  0.00  0.00    +0.000 NA
ATOM     21  H   UNL     1      52.650   0.052  18.992  0.00  0.00    +0.000 HD
ATOM     22  H   UNL     1      52.360  -0.352  17.437  0.00  0.00    +0.000 HD
ENDBRANCH  19  20
ENDBRANCH  16  19
ENDBRANCH  12  13
ENDBRANCH   1  12
TORSDOF 6
ENDMDL
MODEL 5
REMARK VINA RESULT:    -6.224      2.215      3.173
REMARK INTER + INTRA:          -8.647
REMARK INTER:                  -8.303
REMARK INTRA:                  -0.344
REMARK UNBOUND:                -0.421
REMARK  Name = 
REMARK  7 active torsions:
REMARK  status: ('A' for Active; 'I' for Inactive)
REMARK    1  A    between atoms: C_1  and  S_2
REMARK    2  A    between atoms: S_2  and  C_5
REMARK    3  A    between atoms: C_8  and  O_9
REMARK    4  A    between atoms: O_9  and  C_10
REMARK    5  A    between atoms: C_10  and  C_11
REMARK    6  A    between atoms: C_14  and  C_15
REMARK    7  A    between atoms: C_15  and  N_16
REMARK                            x       y       z     vdW  Elec       q    Type
REMARK                         _______ _______ _______ _____ _____    ______ ____
ROOT
ATOM      1  O   UNL     1      45.624   3.989  13.741  0.00  0.00    +0.000 OA
ENDROOT
BRANCH   1   5
ATOM      2  C   UNL     1      48.568   5.655  15.955  0.00  0.00    +0.000 A 
ATOM      3  C   UNL     1      47.844   4.603  16.484  0.00  0.00    +0.000 A 
ATOM      4  N   UNL     1      46.844   4.000  15.783  0.00  0.00    +0.000 NA
ATOM      5  C   UNL     1      46.618   4.504  14.545  0.00  0.00    +0.000 A 
ATOM      6  C   UNL     1      47.365   5.557  14.026  0.00  0.00    +0.000 A 
ATOM      7  N   UNL     1      48.361   6.168  14.713  0.00  0.00    +0.000 NA
BRANCH   2   9
ATOM      8  C   UNL     1      49.587   8.177  16.640  0.00  0.00    +0.000 C 
ATOM      9  S   UNL     1      49.824   6.439  16.912  0.00  0.00    +0.000 S 
ATOM     10  O   UNL     1      51.102   6.065  16.333  0.00  0.00    +0.000 OA
ATOM     11  O   UNL     1      49.531   6.162  18.308  0.00  0.00    +0.000 OA
ENDBRANCH   2   9
ENDBRANCH   1   5
BRANCH   1  12
ATOM     12  C   UNL     1      44.961   4.968  12.939  0.00  0.00    +0.000 C 
BRANCH  12  13
ATOM     13  C   UNL     1      45.135   4.584  11.483  0.00  0.00    +0.000 A 
ATOM     14  C   UNL     1      45.591   5.515  10.540  0.00  0.00    +0.000 A 
ATOM     15  C   UNL     1      45.730   5.161   9.191  0.00  0.00    +0.000 A 
ATOM     16  C   UNL     1      45.416   3.867   8.753  0.00  0.00    +0.000 A 
ATOM     17  C   UNL     1      44.982   2.930   9.700  0.00  0.00    +0.000 A 
ATOM     18  C   UNL     1      44.844   3.282  11.049  0.00  0.00    +0.000 A 
BRANCH  16  19
ATOM     19  C   UNL     1      45.485   3.504   7.290  0.00  0.00    +0.000 C 
BRANCH  19  20
ATOM     20  N   UNL     1      46.688   4.019   6.646  0.00  0.00    +0.000 NA
ATOM     21  H   UNL     1      46.796   3.563   5.741  0.00  0.00    +0.000 HD
ATOM     22  H   UNL     1      47.500   3.754   7.200  0.00  0.00    +0.000 HD
ENDBRANCH  19  20
ENDBRANCH  16  19
ENDBRANCH  12  13
ENDBRANCH   1  12
TORSDOF 6
ENDMDL
MODEL 6
REMARK VINA RESULT:    -5.502      3.760      8.172
REMARK INTER + INTRA:          -7.693
REMARK INTER:                  -7.306
REMARK INTRA:                  -0.387
REMARK UNBOUND:                -0.421
REMARK  Name = 
REMARK  7 active torsions:
REMARK  status: ('A' for Active; 'I' for Inactive)
REMARK    1  A    between atoms: C_1  and  S_2
REMARK    2  A    between atoms: S_2  and  C_5
REMARK    3  A    between atoms: C_8  and  O_9
REMARK    4  A    between atoms: O_9  and  C_10
REMARK    5  A    between atoms: C_10  and  C_11
REMARK    6  A    between atoms: C_14  and  C_15
REMARK    7  A    between atoms: C_15  and  N_16
REMARK                            x       y       z     vdW  Elec       q    Type
REMARK                         _______ _______ _______ _____ _____    ______ ____
ROOT
ATOM      1  O   UNL     1      48.572   5.891  14.165  0.00  0.00    +0.000 OA
ENDROOT
BRANCH   1   5
ATOM      2  C   UNL     1      45.016   4.981  12.472  0.00  0.00    +0.000 A 
ATOM      3  C   UNL     1      45.641   6.165  12.126  0.00  0.00    +0.000 A 
ATOM      4  N   UNL     1      46.841   6.522  12.660  0.00  0.00    +0.000 NA
ATOM      5  C   UNL     1      47.368   5.640  13.544  0.00  0.00    +0.000 A 
ATOM      6  C   UNL     1      46.729   4.448  13.871  0.00  0.00    +0.000 A 
ATOM      7  N   UNL     1      45.533   4.081  13.350  0.00  0.00    +0.000 NA
BRANCH   2   9
ATOM      8  C   UNL     1      43.364   2.804  11.839  0.00  0.00    +0.000 C 
ATOM      9  S   UNL     1      43.440   4.576  11.792  0.00  0.00    +0.000 S 
ATOM     10  O   UNL     1      43.455   4.987  10.399  0.00  0.00    +0.000 OA
ATOM     11  O   UNL     1      42.436   5.091  12.708  0.00  0.00    +0.000 OA
ENDBRANCH   2   9
ENDBRANCH   1   5
BRANCH   1  12
ATOM     12  C   UNL     1      48.541   6.998  15.068  0.00  0.00    +0.000 C 
BRANCH  12  13
ATOM     13  C   UNL     1      48.776   6.473  16.469  0.00  0.00    +0.000 A 
ATOM     14  C   UNL     1      49.014   5.112  16.700  0.00  0.00    +0.000 A 
ATOM     15  C   UNL     1      49.211   4.629  18.001  0.00  0.00    +0.000 A 
ATOM     16  C   UNL     1      49.173   5.495  19.102  0.00  0.00    +0.000 A 
ATOM     17  C   UNL     1      48.958   6.860  18.868  0.00  0.00    +0.000 A 
ATOM     18  C   UNL     1      48.764   7.345  17.569  0.00  0.00    +0.000 A 
BRANCH  16  19
ATOM     19  C   UNL     1      49.302   4.968  20.510  0.00  0.00    +0.000 C 
BRANCH  19  20
ATOM     20  N   UNL     1      48.407   3.846  20.768  0.00  0.00    +0.000 NA
ATOM     21  H   UNL     1      48.808   3.269  21.506  0.00  0.00    +0.000 HD
ATOM     22  H   UNL     1      48.360   3.260  19.937  0.00  0.00    +0.000 HD
ENDBRANCH  19  20
ENDBRANCH  16  19
ENDBRANCH  12  13
ENDBRANCH   1  12
TORSDOF 6
ENDMDL
MODEL 7
REMARK VINA RESULT:    -5.317      2.198      3.019
REMARK INTER + INTRA:          -7.448
REMARK INTER:                  -7.151
REMARK INTRA:                  -0.297
REMARK UNBOUND:                -0.421
REMARK  Name = 
REMARK  7 active torsions:
REMARK  status: ('A' for Active; 'I' for Inactive)
REMARK    1  A    between atoms: C_1  and  S_2
REMARK    2  A    between atoms: S_2  and  C_5
REMARK    3  A    between atoms: C_8  and  O_9
REMARK    4  A    between atoms: O_9  and  C_10
REMARK    5  A    between atoms: C_10  and  C_11
REMARK    6  A    between atoms: C_14  and  C_15
REMARK    7  A    between atoms: C_15  and  N_16
REMARK                            x       y       z     vdW  Elec       q    Type
REMARK                         _______ _______ _______ _____ _____    ______ ____
ROOT
ATOM      1  O   UNL     1      46.946   6.184  13.336  0.00  0.00    +0.000 OA
ENDROOT
BRANCH   1   5
ATOM      2  C   UNL     1      48.610   4.557  16.642  0.00  0.00    +0.000 A 
ATOM      3  C   UNL     1      49.006   5.820  16.244  0.00  0.00    +0.000 A 
ATOM      4  N   UNL     1      48.478   6.420  15.142  0.00  0.00    +0.000 NA
ATOM      5  C   UNL     1      47.547   5.694  14.476  0.00  0.00    +0.000 A 
ATOM      6  C   UNL     1      47.153   4.428  14.899  0.00  0.00    +0.000 A 
ATOM      7  N   UNL     1      47.672   3.818  15.992  0.00  0.00    +0.000 NA
BRANCH   2   9
ATOM      8  C   UNL     1      50.800   4.766  18.382  0.00  0.00    +0.000 C 
ATOM      9  S   UNL     1      49.352   3.796  18.049  0.00  0.00    +0.000 S 
ATOM     10  O   UNL     1      49.784   2.471  17.642  0.00  0.00    +0.000 OA
ATOM     11  O   UNL     1      48.433   3.969  19.161  0.00  0.00    +0.000 OA
ENDBRANCH   2   9
ENDBRANCH   1   5
BRANCH   1  12
ATOM     12  C   UNL     1      45.556   5.871  13.231  0.00  0.00    +0.000 C 
BRANCH  12  13
ATOM     13  C   UNL     1      45.353   5.027  11.989  0.00  0.00    +0.000 A 
ATOM     14  C   UNL     1      44.974   3.681  12.084  0.00  0.00    +0.000 A 
ATOM     15  C   UNL     1      44.808   2.900  10.933  0.00  0.00    +0.000 A 
ATOM     16  C   UNL     1      45.017   3.445   9.659  0.00  0.00    +0.000 A 
ATOM     17  C   UNL     1      45.374   4.797   9.564  0.00  0.00    +0.000 A 
ATOM     18  C   UNL     1      45.538   5.580  10.713  0.00  0.00    +0.000 A 
BRANCH  16  19
ATOM     19  C   UNL     1      44.920   2.587   8.421  0.00  0.00    +0.000 C 
BRANCH  19  20
ATOM     20  N   UNL     1      45.733   1.380   8.516  0.00  0.00    +0.000 NA
ATOM     21  H   UNL     1      45.115   0.570   8.540  0.00  0.00    +0.000 HD
ATOM     22  H   UNL     1      46.234   1.386   9.402  0.00  0.00    +0.000 HD
ENDBRANCH  19  20
ENDBRANCH  16  19
ENDBRANCH  12  13
ENDBRANCH   1  12
TORSDOF 6
ENDMDL
MODEL 8
REMARK VINA RESULT:    -4.938      4.401      8.374
REMARK INTER + INTRA:          -6.947
REMARK INTER:                  -6.610
REMARK INTRA:                  -0.336
REMARK UNBOUND:                -0.421
REMARK  Name = 
REMARK  7 active torsions:
REMARK  status: ('A' for Active; 'I' for Inactive)
REMARK    1  A    between atoms: C_1  and  S_2
REMARK    2  A    between atoms: S_2  and  C_5
REMARK    3  A    between atoms: C_8  and  O_9
REMARK    4  A    between atoms: O_9  and  C_10
REMARK    5  A    between atoms: C_10  and  C_11
REMARK    6  A    between atoms: C_14  and  C_15
REMARK    7  A    between atoms: C_15  and  N_16
REMARK                            x       y       z     vdW  Elec       q    Type
REMARK                         _______ _______ _______ _____ _____    ______ ____
ROOT
ATOM      1  O   UNL     1      48.583   4.508  16.481  0.00  0.00    +0.000 OA
ENDROOT
BRANCH   1   5
ATOM      2  C   UNL     1      46.304   5.674  13.351  0.00  0.00    +0.000 A 
ATOM      3  C   UNL     1      46.050   4.453  13.949  0.00  0.00    +0.000 A 
ATOM      4  N   UNL     1      46.781   4.010  15.009  0.00  0.00    +0.000 NA
ATOM      5  C   UNL     1      47.763   4.847  15.426  0.00  0.00    +0.000 A 
ATOM      6  C   UNL     1      47.997   6.077  14.818  0.00  0.00    +0.000 A 
ATOM      7  N   UNL     1      47.279   6.529  13.761  0.00  0.00    +0.000 NA
BRANCH   2   9
ATOM      8  C   UNL     1      45.264   7.957  12.097  0.00  0.00    +0.000 C 
ATOM      9  S   UNL     1      45.364   6.190  11.952  0.00  0.00    +0.000 S 
ATOM     10  O   UNL     1      44.025   5.651  12.111  0.00  0.00    +0.000 OA
ATOM     11  O   UNL     1      46.153   5.883  10.772  0.00  0.00    +0.000 OA
ENDBRANCH   2   9
ENDBRANCH   1   5
BRANCH   1  12
ATOM     12  C   UNL     1      48.699   3.101  16.699  0.00  0.00    +0.000 C 
BRANCH  12  13
ATOM     13  C   UNL     1      50.105   2.812  17.186  0.00  0.00    +0.000 A 
ATOM     14  C   UNL     1      50.643   1.520  17.114  0.00  0.00    +0.000 A 
ATOM     15  C   UNL     1      51.935   1.254  17.585  0.00  0.00    +0.000 A 
ATOM     16  C   UNL     1      52.721   2.274  18.139  0.00  0.00    +0.000 A 
ATOM     17  C   UNL     1      52.192   3.570  18.189  0.00  0.00    +0.000 A 
ATOM     18  C   UNL     1      50.901   3.838  17.717  0.00  0.00    +0.000 A 
BRANCH  16  19
ATOM     19  C   UNL     1      54.081   1.976  18.723  0.00  0.00    +0.000 C 
BRANCH  19  20
ATOM     20  N   UNL     1      54.315   0.546  18.888  0.00  0.00    +0.000 NA
ATOM     21  H   UNL     1      55.159   0.414  19.444  0.00  0.00    +0.000 HD
ATOM     22  H   UNL     1      54.502   0.133  17.977  0.00  0.00    +0.000 HD
ENDBRANCH  19  20
ENDBRANCH  16  19
ENDBRANCH  12  13
ENDBRANCH   1  12
TORSDOF 6
ENDMDL
