MODEL 1
REMARK VINA RESULT:    -8.145      0.000      0.000
REMARK INTER + INTRA:         -10.641
REMARK INTER:                 -10.049
REMARK INTRA:                  -0.591
REMARK UNBOUND:                -0.591
REMARK  Name = 
REMARK  4 active torsions:
REMARK  status: ('A' for Active; 'I' for Inactive)
REMARK    1  A    between atoms: C_2  and  C_4
REMARK    2  A    between atoms: N_8  and  C_9
REMARK    3  A    between atoms: C_9  and  C_10
REMARK    4  A    between atoms: C_14  and  N_15
REMARK                            x       y       z     vdW  Elec       q    Type
REMARK                         _______ _______ _______ _____ _____    ______ ____
ROOT
ATOM      1  C   UNL     1      46.386   2.256   7.568  0.00  0.00    +0.000 A 
ATOM      2  C   UNL     1      45.875   1.957   8.804  0.00  0.00    +0.000 A 
ATOM      3  N   UNL     1      45.021   2.759   9.472  0.00  0.00    +0.000 NA
ATOM      4  C   UNL     1      44.717   3.940   8.914  0.00  0.00    +0.000 A 
ATOM      5  N   UNL     1      43.827   4.791   9.531  0.00  0.00    +0.000 N 
ATOM      6  N   UNL     1      45.211   4.348   7.736  0.00  0.00    +0.000 NA
ATOM      7  C   UNL     1      46.031   3.491   7.078  0.00  0.00    +0.000 A 
ATOM      8  H   UNL     1      44.011   5.744   9.252  0.00  0.00    +0.000 HD
ENDROOT
BRANCH   1  10
ATOM      9  N   UNL     1      48.355   1.891   6.197  0.00  0.00    +0.000 N 
ATOM     10  C   UNL     1      47.259   1.352   6.812  0.00  0.00    +0.000 C 
ATOM     11  O   UNL     1      47.034   0.148   6.765  0.00  0.00    +0.000 OA
ATOM     12  H   UNL     1      48.997   1.237   5.765  0.00  0.00    +0.000 HD
ATOM     13  H   UNL     1      48.716   2.813   6.406  0.00  0.00    +0.000 HD
ENDBRANCH   1  10
BRANCH   5  14
ATOM     14  C   UNL     1      43.470   4.549  10.911  0.00  0.00    +0.000 C 
BRANCH  14  15
ATOM     15  C   UNL     1      44.566   4.927  11.877  0.00  0.00    +0.000 A 
ATOM     16  C   UNL     1      45.020   4.020  12.838  0.00  0.00    +0.000 A 
ATOM     17  C   UNL     1      46.014   4.392  13.737  0.00  0.00    +0.000 A 
ATOM     18  C   UNL     1      46.563   5.677  13.683  0.00  0.00    +0.000 A 
ATOM     19  C   UNL     1      46.141   6.619  12.735  0.00  0.00    +0.000 A 
ATOM     20  C   UNL     1      45.134   6.211  11.842  0.00  0.00    +0.000 A 
BRANCH  19  21
ATOM     21  N   UNL     1      46.633   7.912  12.692  0.00  0.00    +0.000 N 
ATOM     22  C   UNL     1      45.773   9.081  12.869  0.00  0.00    +0.000 C 
ATOM     23  C   UNL     1      46.191  10.143  11.849  0.00  0.00    +0.000 C 
ATOM     24  C   UNL     1      47.685  10.459  11.936  0.00  0.00    +0.000 C 
ATOM     25  C   UNL     1      48.532   9.189  11.875  0.00  0.00    +0.000 C 
ATOM     26  C   UNL     1      48.062   8.161  12.903  0.00  0.00    +0.000 C 
ENDBRANCH  19  21
ENDBRANCH  14  15
ENDBRANCH   5  14
TORSDOF 4
ENDMDL
MODEL 2
REMARK VINA RESULT:    -8.082      1.958      3.262
REMARK INTER + INTRA:         -10.563
REMARK INTER:                 -10.084
REMARK INTRA:                  -0.479
REMARK UNBOUND:                -0.591
REMARK  Name = 
REMARK  4 active torsions:
REMARK  status: ('A' for Active; 'I' for Inactive)
REMARK    1  A    between atoms: C_2  and  C_4
REMARK    2  A    between atoms: N_8  and  C_9
REMARK    3  A    between atoms: C_9  and  C_10
REMARK    4  A    between atoms: C_14  and  N_15
REMARK                            x       y       z     vdW  Elec       q    Type
REMARK                         _______ _______ _______ _____ _____    ______ ____
ROOT
ATOM      1  C   UNL     1      46.511   2.721   7.242  0.00  0.00    +0.000 A 
ATOM      2  C   UNL     1      45.861   3.834   7.708  0.00  0.00    +0.000 A 
ATOM      3  N   UNL     1      45.136   3.853   8.845  0.00  0.00    +0.000 NA
ATOM      4  C   UNL     1      44.997   2.696   9.509  0.00  0.00    +0.000 A 
ATOM      5  N   UNL     1      44.295   2.655  10.693  0.00  0.00    +0.000 N 
ATOM      6  N   UNL     1      45.546   1.542   9.103  0.00  0.00    +0.000 NA
ATOM      7  C   UNL     1      46.304   1.579   7.979  0.00  0.00    +0.000 A 
ATOM      8  H   UNL     1      43.928   1.727  10.844  0.00  0.00    +0.000 HD
ENDROOT
BRANCH   1  10
ATOM      9  N   UNL     1      48.693   2.472   6.209  0.00  0.00    +0.000 N 
ATOM     10  C   UNL     1      47.357   2.720   6.044  0.00  0.00    +0.000 C 
ATOM     11  O   UNL     1      46.879   2.896   4.930  0.00  0.00    +0.000 OA
ATOM     12  H   UNL     1      49.241   2.377   5.362  0.00  0.00    +0.000 HD
ATOM     13  H   UNL     1      49.089   2.083   7.054  0.00  0.00    +0.000 HD
ENDBRANCH   1  10
BRANCH   5  14
ATOM     14  C   UNL     1      43.456   3.778  11.048  0.00  0.00    +0.000 C 
BRANCH  14  15
ATOM     15  C   UNL     1      44.230   4.919  11.664  0.00  0.00    +0.000 A 
ATOM     16  C   UNL     1      44.015   6.236  11.254  0.00  0.00    +0.000 A 
ATOM     17  C   UNL     1      44.753   7.273  11.815  0.00  0.00    +0.000 A 
ATOM     18  C   UNL     1      45.715   7.001  12.793  0.00  0.00    +0.000 A 
ATOM     19  C   UNL     1      45.962   5.695  13.239  0.00  0.00    +0.000 A 
ATOM     20  C   UNL     1      45.199   4.670  12.649  0.00  0.00    +0.000 A 
BRANCH  19  21
ATOM     21  N   UNL     1      46.942   5.393  14.168  0.00  0.00    +0.000 N 
ATOM     22  C   UNL     1      47.031   4.083  14.813  0.00  0.00    +0.000 C 
ATOM     23  C   UNL     1      47.345   4.299  16.295  0.00  0.00    +0.000 C 
ATOM     24  C   UNL     1      48.588   5.167  16.494  0.00  0.00    +0.000 C 
ATOM     25  C   UNL     1      48.497   6.467  15.695  0.00  0.00    +0.000 C 
ATOM     26  C   UNL     1      48.168   6.194  14.229  0.00  0.00    +0.000 C 
ENDBRANCH  19  21
ENDBRANCH  14  15
ENDBRANCH   5  14
TORSDOF 4
ENDMDL
MODEL 3
REMARK VINA RESULT:    -7.688      4.411      8.145
REMARK INTER + INTRA:         -10.078
REMARK INTER:                  -9.575
REMARK INTRA:                  -0.503
REMARK UNBOUND:                -0.591
REMARK  Name = 
REMARK  4 active torsions:
REMARK  status: ('A' for Active; 'I' for Inactive)
REMARK    1  A    between atoms: C_2  and  C_4
REMARK    2  A    between atoms: N_8  and  C_9
REMARK    3  A    between atoms: C_9  and  C_10
REMARK    4  A    between atoms: C_14  and  N_15
REMARK                            x       y       z     vdW  Elec       q    Type
REMARK                         _______ _______ _______ _____ _____    ______ ____
ROOT
ATOM      1  C   UNL     1      49.284   4.356  17.695  0.00  0.00    +0.000 A 
ATOM      2  C   UNL     1      49.146   5.369  16.782  0.00  0.00    +0.000 A 
ATOM      3  N   UNL     1      48.169   5.407  15.853  0.00  0.00    +0.000 NA
ATOM      4  C   UNL     1      47.336   4.357  15.788  0.00  0.00    +0.000 A 
ATOM      5  N   UNL     1      46.299   4.349  14.882  0.00  0.00    +0.000 N 
ATOM      6  N   UNL     1      47.426   3.292  16.599  0.00  0.00    +0.000 NA
ATOM      7  C   UNL     1      48.396   3.317  17.547  0.00  0.00    +0.000 A 
ATOM      8  H   UNL     1      46.043   3.398  14.659  0.00  0.00    +0.000 HD
ENDROOT
BRANCH   1  10
ATOM      9  N   UNL     1      49.874   4.357  20.049  0.00  0.00    +0.000 N 
ATOM     10  C   UNL     1      50.303   4.351  18.750  0.00  0.00    +0.000 C 
ATOM     11  O   UNL     1      51.497   4.303  18.477  0.00  0.00    +0.000 OA
ATOM     12  H   UNL     1      50.588   4.252  20.760  0.00  0.00    +0.000 HD
ATOM     13  H   UNL     1      48.923   4.149  20.324  0.00  0.00    +0.000 HD
ENDBRANCH   1  10
BRANCH   5  14
ATOM     14  C   UNL     1      46.301   5.317  13.808  0.00  0.00    +0.000 C 
BRANCH  14  15
ATOM     15  C   UNL     1      45.228   5.057  12.779  0.00  0.00    +0.000 A 
ATOM     16  C   UNL     1      43.894   5.383  13.035  0.00  0.00    +0.000 A 
ATOM     17  C   UNL     1      42.913   5.115  12.086  0.00  0.00    +0.000 A 
ATOM     18  C   UNL     1      43.258   4.517  10.870  0.00  0.00    +0.000 A 
ATOM     19  C   UNL     1      44.583   4.175  10.568  0.00  0.00    +0.000 A 
ATOM     20  C   UNL     1      45.550   4.459  11.550  0.00  0.00    +0.000 A 
BRANCH  19  21
ATOM     21  N   UNL     1      44.944   3.538   9.393  0.00  0.00    +0.000 N 
ATOM     22  C   UNL     1      44.677   2.119   9.161  0.00  0.00    +0.000 C 
ATOM     23  C   UNL     1      45.909   1.503   8.492  0.00  0.00    +0.000 C 
ATOM     24  C   UNL     1      46.315   2.267   7.232  0.00  0.00    +0.000 C 
ATOM     25  C   UNL     1      46.454   3.765   7.503  0.00  0.00    +0.000 C 
ATOM     26  C   UNL     1      45.204   4.322   8.183  0.00  0.00    +0.000 C 
ENDBRANCH  19  21
ENDBRANCH  14  15
ENDBRANCH   5  14
TORSDOF 4
ENDMDL
MODEL 4
REMARK VINA RESULT:    -7.413      3.031      6.836
REMARK INTER + INTRA:          -9.738
REMARK INTER:                  -8.978
REMARK INTRA:                  -0.760
REMARK UNBOUND:                -0.591
REMARK  Name = 
REMARK  4 active torsions:
REMARK  status: ('A' for Active; 'I' for Inactive)
REMARK    1  A    between atoms: C_2  and  C_4
REMARK    2  A    between atoms: N_8  and  C_9
REMARK    3  A    between atoms: C_9  and  C_10
REMARK    4  A    between atoms: C_14  and  N_15
REMARK                            x       y       z     vdW  Elec       q    Type
REMARK                         _______ _______ _______ _____ _____    ______ ____
ROOT
ATOM      1  C   UNL     1      49.630   7.773  12.302  0.00  0.00    +0.000 A 
ATOM      2  C   UNL     1      48.566   7.892  11.445  0.00  0.00    +0.000 A 
ATOM      3  N   UNL     1      47.302   7.562  11.777  0.00  0.00    +0.000 NA
ATOM      4  C   UNL     1      47.100   7.028  12.991  0.00  0.00    +0.000 A 
ATOM      5  N   UNL     1      45.827   6.699  13.402  0.00  0.00    +0.000 N 
ATOM      6  N   UNL     1      48.084   6.818  13.878  0.00  0.00    +0.000 NA
ATOM      7  C   UNL     1      49.333   7.206  13.519  0.00  0.00    +0.000 A 
ATOM      8  H   UNL     1      45.867   5.967  14.096  0.00  0.00    +0.000 HD
ENDROOT
BRANCH   1  10
ATOM      9  N   UNL     1      51.700   7.428  11.082  0.00  0.00    +0.000 N 
ATOM     10  C   UNL     1      50.993   8.198  11.964  0.00  0.00    +0.000 C 
ATOM     11  O   UNL     1      51.467   9.228  12.427  0.00  0.00    +0.000 OA
ATOM     12  H   UNL     1      52.598   7.791  10.786  0.00  0.00    +0.000 HD
ATOM     13  H   UNL     1      51.277   6.722  10.493  0.00  0.00    +0.000 HD
ENDBRANCH   1  10
BRANCH   5  14
ATOM     14  C   UNL     1      44.768   6.639  12.419  0.00  0.00    +0.000 C 
BRANCH  14  15
ATOM     15  C   UNL     1      44.457   5.231  11.974  0.00  0.00    +0.000 A 
ATOM     16  C   UNL     1      43.742   4.359  12.799  0.00  0.00    +0.000 A 
ATOM     17  C   UNL     1      43.483   3.057  12.385  0.00  0.00    +0.000 A 
ATOM     18  C   UNL     1      43.939   2.613  11.139  0.00  0.00    +0.000 A 
ATOM     19  C   UNL     1      44.657   3.453  10.277  0.00  0.00    +0.000 A 
ATOM     20  C   UNL     1      44.902   4.763  10.727  0.00  0.00    +0.000 A 
BRANCH  19  21
ATOM     21  N   UNL     1      45.161   3.024   9.061  0.00  0.00    +0.000 N 
ATOM     22  C   UNL     1      45.157   1.616   8.667  0.00  0.00    +0.000 C 
ATOM     23  C   UNL     1      46.499   1.301   8.000  0.00  0.00    +0.000 C 
ATOM     24  C   UNL     1      46.803   2.261   6.850  0.00  0.00    +0.000 C 
ATOM     25  C   UNL     1      46.667   3.720   7.285  0.00  0.00    +0.000 C 
ATOM     26  C   UNL     1      45.317   3.973   7.956  0.00  0.00    +0.000 C 
ENDBRANCH  19  21
ENDBRANCH  14  15
ENDBRANCH   5  14
TORSDOF 4
ENDMDL
MODEL 5
REMARK VINA RESULT:    -6.943      2.136      3.796
REMARK INTER + INTRA:          -9.158
REMARK INTER:                  -8.511
REMARK INTRA:                  -0.646
REMARK UNBOUND:                -0.591
REMARK  Name = 
REMARK  4 active torsions:
REMARK  status: ('A' for Active; 'I' for Inactive)
REMARK    1  A    between atoms: C_2  and  C_4
REMARK    2  A    between atoms: N_8  and  C_9
REMARK    3  A    between atoms: C_9  and  C_10
REMARK    4  A    between atoms: C_14  and  N_15
REMARK                            x       y       z     vdW  Elec       q    Type
REMARK                         _______ _______ _______ _____ _____    ______ ____
ROOT
ATOM      1  C   UNL     1      46.309   2.206   7.864  0.00  0.00    +0.000 A 
ATOM      2  C   UNL     1      45.933   2.147   9.181  0.00  0.00    +0.000 A 
ATOM      3  N   UNL     1      45.417   3.193   9.857  0.00  0.00    +0.000 NA
ATOM      4  C   UNL     1      45.335   4.366   9.212  0.00  0.00    +0.000 A 
ATOM      5  N   UNL     1      44.789   5.465   9.838  0.00  0.00    +0.000 N 
ATOM      6  N   UNL     1      45.730   4.540   7.942  0.00  0.00    +0.000 NA
ATOM      7  C   UNL     1      46.201   3.450   7.287  0.00  0.00    +0.000 A 
ATOM      8  H   UNL     1      45.159   6.312   9.431  0.00  0.00    +0.000 HD
ENDROOT
BRANCH   1  10
ATOM      9  N   UNL     1      46.649  -0.189   7.671  0.00  0.00    +0.000 N 
ATOM     10  C   UNL     1      46.803   1.050   7.110  0.00  0.00    +0.000 C 
ATOM     11  O   UNL     1      47.302   1.184   5.999  0.00  0.00    +0.000 OA
ATOM     12  H   UNL     1      46.906  -0.980   7.093  0.00  0.00    +0.000 HD
ATOM     13  H   UNL     1      46.035  -0.376   8.453  0.00  0.00    +0.000 HD
ENDBRANCH   1  10
BRANCH   5  14
ATOM     14  C   UNL     1      44.597   5.431  11.270  0.00  0.00    +0.000 C 
BRANCH  14  15
ATOM     15  C   UNL     1      45.819   5.875  12.038  0.00  0.00    +0.000 A 
ATOM     16  C   UNL     1      46.652   6.881  11.543  0.00  0.00    +0.000 A 
ATOM     17  C   UNL     1      47.787   7.262  12.250  0.00  0.00    +0.000 A 
ATOM     18  C   UNL     1      48.099   6.639  13.463  0.00  0.00    +0.000 A 
ATOM     19  C   UNL     1      47.291   5.628  14.001  0.00  0.00    +0.000 A 
ATOM     20  C   UNL     1      46.152   5.266  13.258  0.00  0.00    +0.000 A 
BRANCH  19  21
ATOM     21  N   UNL     1      47.605   4.961  15.173  0.00  0.00    +0.000 N 
ATOM     22  C   UNL     1      48.092   5.659  16.362  0.00  0.00    +0.000 C 
ATOM     23  C   UNL     1      49.226   4.831  16.972  0.00  0.00    +0.000 C 
ATOM     24  C   UNL     1      48.799   3.388  17.238  0.00  0.00    +0.000 C 
ATOM     25  C   UNL     1      48.178   2.748  15.996  0.00  0.00    +0.000 C 
ATOM     26  C   UNL     1      47.064   3.622  15.423  0.00  0.00    +0.000 C 
ENDBRANCH  19  21
ENDBRANCH  14  15
ENDBRANCH   5  14
TORSDOF 4
ENDMDL
MODEL 6
REMARK VINA RESULT:    -6.898      5.519      8.223
REMARK INTER + INTRA:          -9.102
REMARK INTER:                  -8.435
REMARK INTRA:                  -0.668
REMARK UNBOUND:                -0.591
REMARK  Name = 
REMARK  4 active torsions:
REMARK  status: ('A' for Active; 'I' for Inactive)
REMARK    1  A    between atoms: C_2  and  C_4
REMARK    2  A    between atoms: N_8  and  C_9
REMARK    3  A    between atoms: C_9  and  C_10
REMARK    4  A    between atoms: C_14  and  N_15
REMARK                            x       y       z     vdW  Elec       q    Type
REMARK                         _______ _______ _______ _____ _____    ______ ____
ROOT
ATOM      1  C   UNL     1      51.648   2.623  17.771  0.00  0.00    +0.000 A 
ATOM      2  C   UNL     1      50.880   3.742  17.962  0.00  0.00    +0.000 A 
ATOM      3  N   UNL     1      49.622   3.871  17.492  0.00  0.00    +0.000 NA
ATOM      4  C   UNL     1      49.136   2.870  16.743  0.00  0.00    +0.000 A 
ATOM      5  N   UNL     1      47.847   2.928  16.260  0.00  0.00    +0.000 N 
ATOM      6  N   UNL     1      49.831   1.761  16.452  0.00  0.00    +0.000 NA
ATOM      7  C   UNL     1      51.075   1.654  16.983  0.00  0.00    +0.000 A 
ATOM      8  H   UNL     1      47.768   2.369  15.423  0.00  0.00    +0.000 HD
ENDROOT
BRANCH   1  10
ATOM      9  N   UNL     1      53.192   2.884  19.625  0.00  0.00    +0.000 N 
ATOM     10  C   UNL     1      52.989   2.455  18.342  0.00  0.00    +0.000 C 
ATOM     11  O   UNL     1      53.885   1.913  17.706  0.00  0.00    +0.000 OA
ATOM     12  H   UNL     1      54.093   2.669  20.035  0.00  0.00    +0.000 HD
ATOM     13  H   UNL     1      52.441   3.105  20.267  0.00  0.00    +0.000 HD
ENDBRANCH   1  10
BRANCH   5  14
ATOM     14  C   UNL     1      47.142   4.190  16.297  0.00  0.00    +0.000 C 
BRANCH  14  15
ATOM     15  C   UNL     1      47.239   4.957  15.001  0.00  0.00    +0.000 A 
ATOM     16  C   UNL     1      48.136   6.018  14.860  0.00  0.00    +0.000 A 
ATOM     17  C   UNL     1      48.196   6.731  13.667  0.00  0.00    +0.000 A 
ATOM     18  C   UNL     1      47.356   6.388  12.602  0.00  0.00    +0.000 A 
ATOM     19  C   UNL     1      46.443   5.329  12.697  0.00  0.00    +0.000 A 
ATOM     20  C   UNL     1      46.407   4.630  13.918  0.00  0.00    +0.000 A 
BRANCH  19  21
ATOM     21  N   UNL     1      45.567   5.001  11.676  0.00  0.00    +0.000 N 
ATOM     22  C   UNL     1      44.384   4.171  11.899  0.00  0.00    +0.000 C 
ATOM     23  C   UNL     1      44.260   3.190  10.730  0.00  0.00    +0.000 C 
ATOM     24  C   UNL     1      44.264   3.908   9.380  0.00  0.00    +0.000 C 
ATOM     25  C   UNL     1      45.453   4.859   9.253  0.00  0.00    +0.000 C 
ATOM     26  C   UNL     1      45.535   5.804  10.451  0.00  0.00    +0.000 C 
ENDBRANCH  19  21
ENDBRANCH  14  15
ENDBRANCH   5  14
TORSDOF 4
ENDMDL
MODEL 7
REMARK VINA RESULT:    -6.617      1.619      2.820
REMARK INTER + INTRA:          -8.756
REMARK INTER:                  -8.146
REMARK INTRA:                  -0.610
REMARK UNBOUND:                -0.591
REMARK  Name = 
REMARK  4 active torsions:
REMARK  status: ('A' for Active; 'I' for Inactive)
REMARK    1  A    between atoms: C_2  and  C_4
REMARK    2  A    between atoms: N_8  and  C_9
REMARK    3  A    between atoms: C_9  and  C_10
REMARK    4  A    between atoms: C_14  and  N_15
REMARK                            x       y       z     vdW  Elec       q    Type
REMARK                         _______ _______ _______ _____ _____    ______ ____
ROOT
ATOM      1  C   UNL     1      46.603   2.289   7.638  0.00  0.00    +0.000 A 
ATOM      2  C   UNL     1      46.056   2.185   8.891  0.00  0.00    +0.000 A 
ATOM      3  N   UNL     1      45.457   3.211   9.529  0.00  0.00    +0.000 NA
ATOM      4  C   UNL     1      45.464   4.407   8.922  0.00  0.00    +0.000 A 
ATOM      5  N   UNL     1      44.841   5.487   9.508  0.00  0.00    +0.000 N 
ATOM      6  N   UNL     1      46.024   4.622   7.722  0.00  0.00    +0.000 NA
ATOM      7  C   UNL     1      46.576   3.552   7.097  0.00  0.00    +0.000 A 
ATOM      8  H   UNL     1      45.264   6.345   9.185  0.00  0.00    +0.000 HD
ENDROOT
BRANCH   1  10
ATOM      9  N   UNL     1      48.165   1.425   5.994  0.00  0.00    +0.000 N 
ATOM     10  C   UNL     1      47.191   1.155   6.916  0.00  0.00    +0.000 C 
ATOM     11  O   UNL     1      46.847   0.004   7.156  0.00  0.00    +0.000 OA
ATOM     12  H   UNL     1      48.627   0.624   5.580  0.00  0.00    +0.000 HD
ATOM     13  H   UNL     1      48.651   2.311   5.937  0.00  0.00    +0.000 HD
ENDBRANCH   1  10
BRANCH   5  14
ATOM     14  C   UNL     1      44.461   5.404  10.900  0.00  0.00    +0.000 C 
BRANCH  14  15
ATOM     15  C   UNL     1      45.119   6.461  11.754  0.00  0.00    +0.000 A 
ATOM     16  C   UNL     1      44.675   7.784  11.728  0.00  0.00    +0.000 A 
ATOM     17  C   UNL     1      45.307   8.751  12.502  0.00  0.00    +0.000 A 
ATOM     18  C   UNL     1      46.393   8.401  13.311  0.00  0.00    +0.000 A 
ATOM     19  C   UNL     1      46.872   7.086  13.372  0.00  0.00    +0.000 A 
ATOM     20  C   UNL     1      46.210   6.133  12.575  0.00  0.00    +0.000 A 
BRANCH  19  21
ATOM     21  N   UNL     1      47.975   6.724  14.126  0.00  0.00    +0.000 N 
ATOM     22  C   UNL     1      47.976   5.547  14.994  0.00  0.00    +0.000 C 
ATOM     23  C   UNL     1      48.673   5.919  16.305  0.00  0.00    +0.000 C 
ATOM     24  C   UNL     1      50.064   6.508  16.065  0.00  0.00    +0.000 C 
ATOM     25  C   UNL     1      50.022   7.651  15.051  0.00  0.00    +0.000 C 
ATOM     26  C   UNL     1      49.305   7.228  13.770  0.00  0.00    +0.000 C 
ENDBRANCH  19  21
ENDBRANCH  14  15
ENDBRANCH   5  14
TORSDOF 4
ENDMDL
MODEL 8
REMARK VINA RESULT:    -6.290      3.352      6.033
REMARK INTER + INTRA:          -8.352
REMARK INTER:                  -7.646
REMARK INTRA:                  -0.706
REMARK UNBOUND:                -0.591
REMARK  Name = 
REMARK  4 active torsions:
REMARK  status: ('A' for Active; 'I' for Inactive)
REMARK    1  A    between atoms: C_2  and  C_4
REMARK    2  A    between atoms: N_8  and  C_9
REMARK    3  A    between atoms: C_9  and  C_10
REMARK    4  A    between atoms: C_14  and  N_15
REMARK                            x       y       z     vdW  Elec       q    Type
REMARK                         _______ _______ _______ _____ _____    ______ ____
ROOT
ATOM      1  C   UNL     1      44.672   5.034  10.834  0.00  0.00    +0.000 A 
ATOM      2  C   UNL     1      45.862   5.680  10.623  0.00  0.00    +0.000 A 
ATOM      3  N   UNL     1      46.395   6.564  11.491  0.00  0.00    +0.000 NA
ATOM      4  C   UNL     1      45.677   6.867  12.583  0.00  0.00    +0.000 A 
ATOM      5  N   UNL     1      46.180   7.739  13.523  0.00  0.00    +0.000 N 
ATOM      6  N   UNL     1      44.477   6.333  12.849  0.00  0.00    +0.000 NA
ATOM      7  C   UNL     1      44.000   5.415  11.971  0.00  0.00    +0.000 A 
ATOM      8  H   UNL     1      45.422   8.178  14.026  0.00  0.00    +0.000 HD
ENDROOT
BRANCH   1  10
ATOM      9  N   UNL     1      44.143   4.296   8.583  0.00  0.00    +0.000 N 
ATOM     10  C   UNL     1      44.128   4.021   9.923  0.00  0.00    +0.000 C 
ATOM     11  O   UNL     1      43.711   2.949  10.346  0.00  0.00    +0.000 OA
ATOM     12  H   UNL     1      43.857   3.545   7.966  0.00  0.00    +0.000 HD
ATOM     13  H   UNL     1      44.690   5.040   8.171  0.00  0.00    +0.000 HD
ENDBRANCH   1  10
BRANCH   5  14
ATOM     14  C   UNL     1      47.324   8.554  13.181  0.00  0.00    +0.000 C 
BRANCH  14  15
ATOM     15  C   UNL     1      48.567   8.176  13.949  0.00  0.00    +0.000 A 
ATOM     16  C   UNL     1      49.795   8.779  13.670  0.00  0.00    +0.000 A 
ATOM     17  C   UNL     1      50.936   8.403  14.371  0.00  0.00    +0.000 A 
ATOM     18  C   UNL     1      50.859   7.416  15.359  0.00  0.00    +0.000 A 
ATOM     19  C   UNL     1      49.648   6.785  15.675  0.00  0.00    +0.000 A 
ATOM     20  C   UNL     1      48.514   7.189  14.947  0.00  0.00    +0.000 A 
BRANCH  19  21
ATOM     21  N   UNL     1      49.554   5.772  16.613  0.00  0.00    +0.000 N 
ATOM     22  C   UNL     1      50.579   5.553  17.633  0.00  0.00    +0.000 C 
ATOM     23  C   UNL     1      50.817   4.045  17.757  0.00  0.00    +0.000 C 
ATOM     24  C   UNL     1      49.518   3.283  18.018  0.00  0.00    +0.000 C 
ATOM     25  C   UNL     1      48.439   3.647  16.999  0.00  0.00    +0.000 C 
ATOM     26  C   UNL     1      48.254   5.161  16.906  0.00  0.00    +0.000 C 
ENDBRANCH  19  21
ENDBRANCH  14  15
ENDBRANCH   5  14
TORSDOF 4
ENDMDL
MODEL 9
REMARK VINA RESULT:    -6.273      4.645      8.360
REMARK INTER + INTRA:          -8.331
REMARK INTER:                  -7.611
REMARK INTRA:                  -0.720
REMARK UNBOUND:                -0.591
REMARK  Name = 
REMARK  4 active torsions:
REMARK  status: ('A' for Active; 'I' for Inactive)
REMARK    1  A    between atoms: C_2  and  C_4
REMARK    2  A    between atoms: N_8  and  C_9
REMARK    3  A    between atoms: C_9  and  C_10
REMARK    4  A    between atoms: C_14  and  N_15
REMARK                            x       y       z     vdW  Elec       q    Type
REMARK                         _______ _______ _______ _____ _____    ______ ____
ROOT
ATOM      1  C   UNL     1      48.742   5.317  18.279  0.00  0.00    +0.000 A 
ATOM      2  C   UNL     1      48.703   4.759  17.028  0.00  0.00    +0.000 A 
ATOM      3  N   UNL     1      48.863   5.466  15.891  0.00  0.00    +0.000 NA
ATOM      4  C   UNL     1      49.001   6.795  16.004  0.00  0.00    +0.000 A 
ATOM      5  N   UNL     1      49.200   7.570  14.883  0.00  0.00    +0.000 N 
ATOM      6  N   UNL     1      48.995   7.441  17.180  0.00  0.00    +0.000 NA
ATOM      7  C   UNL     1      48.876   6.685  18.300  0.00  0.00    +0.000 A 
ATOM      8  H   UNL     1      48.876   8.511  15.052  0.00  0.00    +0.000 HD
ENDROOT
BRANCH   1  10
ATOM      9  N   UNL     1      48.325   3.209  19.409  0.00  0.00    +0.000 N 
ATOM     10  C   UNL     1      48.639   4.537  19.517  0.00  0.00    +0.000 C 
ATOM     11  O   UNL     1      48.863   5.047  20.608  0.00  0.00    +0.000 OA
ATOM     12  H   UNL     1      48.357   2.668  20.264  0.00  0.00    +0.000 HD
ATOM     13  H   UNL     1      48.374   2.693  18.540  0.00  0.00    +0.000 HD
ENDBRANCH   1  10
BRANCH   5  14
ATOM     14  C   UNL     1      48.948   6.994  13.581  0.00  0.00    +0.000 C 
BRANCH  14  15
ATOM     15  C   UNL     1      47.563   7.296  13.061  0.00  0.00    +0.000 A 
ATOM     16  C   UNL     1      47.104   8.611  12.965  0.00  0.00    +0.000 A 
ATOM     17  C   UNL     1      45.816   8.872  12.507  0.00  0.00    +0.000 A 
ATOM     18  C   UNL     1      44.975   7.816  12.141  0.00  0.00    +0.000 A 
ATOM     19  C   UNL     1      45.394   6.480  12.218  0.00  0.00    +0.000 A 
ATOM     20  C   UNL     1      46.701   6.253  12.686  0.00  0.00    +0.000 A 
BRANCH  19  21
ATOM     21  N   UNL     1      44.565   5.416  11.909  0.00  0.00    +0.000 N 
ATOM     22  C   UNL     1      43.517   4.953  12.819  0.00  0.00    +0.000 C 
ATOM     23  C   UNL     1      43.526   3.422  12.819  0.00  0.00    +0.000 C 
ATOM     24  C   UNL     1      43.410   2.851  11.405  0.00  0.00    +0.000 C 
ATOM     25  C   UNL     1      44.447   3.466  10.465  0.00  0.00    +0.000 C 
ATOM     26  C   UNL     1      44.403   4.992  10.516  0.00  0.00    +0.000 C 
ENDBRANCH  19  21
ENDBRANCH  14  15
ENDBRANCH   5  14
TORSDOF 4
ENDMDL
