MODEL 1
REMARK VINA RESULT:    -7.839      0.000      0.000
REMARK INTER + INTRA:         -10.289
REMARK INTER:                  -9.672
REMARK INTRA:                  -0.617
REMARK UNBOUND:                -0.617
REMARK  Name = 
REMARK  5 active torsions:
REMARK  status: ('A' for Active; 'I' for Inactive)
REMARK    1  A    between atoms: C_1  and  C_2
REMARK    2  A    between atoms: C_2  and  C_3
REMARK    3  A    between atoms: C_2  and  C_14
REMARK    4  A    between atoms: C_3  and  N_4
REMARK    5  A    between atoms: C_8  and  C_9
REMARK                            x       y       z     vdW  Elec       q    Type
REMARK                         _______ _______ _______ _____ _____    ______ ____
ROOT
ATOM      1  N   UNL     1      43.967   3.221  10.442  0.00  0.00    +0.000 N 
ATOM      2  C   UNL     1      44.849   3.105   9.352  0.00  0.00    +0.000 A 
ATOM      3  C   UNL     1      45.303   1.837   9.005  0.00  0.00    +0.000 A 
ATOM      4  C   UNL     1      46.175   1.686   7.928  0.00  0.00    +0.000 A 
ATOM      5  C   UNL     1      46.556   2.823   7.243  0.00  0.00    +0.000 A 
ATOM      6  N   UNL     1      46.127   4.055   7.596  0.00  0.00    +0.000 NA
ATOM      7  N   UNL     1      45.280   4.189   8.667  0.00  0.00    +0.000 NA
ATOM      8  H   UNL     1      43.168   2.611  10.284  0.00  0.00    +0.000 HD
ENDROOT
BRANCH   5   9
ATOM      9  C   UNL     1      47.452   2.746   6.055  0.00  0.00    +0.000 C 
ATOM     10  N   UNL     1      48.771   2.489   6.313  0.00  0.00    +0.000 N 
ATOM     11  O   UNL     1      47.039   2.912   4.914  0.00  0.00    +0.000 OA
ATOM     12  H   UNL     1      49.102   2.366   7.263  0.00  0.00    +0.000 HD
ATOM     13  H   UNL     1      49.426   2.446   5.545  0.00  0.00    +0.000 HD
ENDBRANCH   5   9
BRANCH   1  14
ATOM     14  C   UNL     1      43.534   4.588  10.712  0.00  0.00    +0.000 C 
BRANCH  14  16
ATOM     15  C   UNL     1      42.914   5.179  13.137  0.00  0.00    +0.000 C 
ATOM     16  C   UNL     1      43.969   4.913  12.111  0.00  0.00    +0.000 C 
BRANCH  16  17
ATOM     17  C   UNL     1      45.343   5.393  12.325  0.00  0.00    +0.000 A 
ATOM     18  C   UNL     1      45.919   6.329  11.457  0.00  0.00    +0.000 A 
ATOM     19  C   UNL     1      47.195   6.839  11.708  0.00  0.00    +0.000 A 
ATOM     20  C   UNL     1      47.904   6.422  12.833  0.00  0.00    +0.000 A 
ATOM     21  C   UNL     1      47.348   5.478  13.693  0.00  0.00    +0.000 A 
ATOM     22  C   UNL     1      46.080   4.961  13.435  0.00  0.00    +0.000 A 
ENDBRANCH  16  17
ENDBRANCH  14  16
ENDBRANCH   1  14
TORSDOF 4
ENDMDL
MODEL 2
REMARK VINA RESULT:    -7.416      1.616      2.076
REMARK INTER + INTRA:          -9.768
REMARK INTER:                  -9.453
REMARK INTRA:                  -0.315
REMARK UNBOUND:                -0.617
REMARK  Name = 
REMARK  5 active torsions:
REMARK  status: ('A' for Active; 'I' for Inactive)
REMARK    1  A    between atoms: C_1  and  C_2
REMARK    2  A    between atoms: C_2  and  C_3
REMARK    3  A    between atoms: C_2  and  C_14
REMARK    4  A    between atoms: C_3  and  N_4
REMARK    5  A    between atoms: C_8  and  C_9
REMARK                            x       y       z     vdW  Elec       q    Type
REMARK                         _______ _______ _______ _____ _____    ______ ____
ROOT
ATOM      1  N   UNL     1      44.253   5.141   9.725  0.00  0.00    +0.000 N 
ATOM      2  C   UNL     1      44.960   4.104   9.091  0.00  0.00    +0.000 A 
ATOM      3  C   UNL     1      45.866   4.440   8.091  0.00  0.00    +0.000 A 
ATOM      4  C   UNL     1      46.585   3.437   7.444  0.00  0.00    +0.000 A 
ATOM      5  C   UNL     1      46.362   2.130   7.832  0.00  0.00    +0.000 A 
ATOM      6  N   UNL     1      45.467   1.807   8.792  0.00  0.00    +0.000 NA
ATOM      7  N   UNL     1      44.755   2.805   9.410  0.00  0.00    +0.000 NA
ATOM      8  H   UNL     1      44.920   5.817  10.091  0.00  0.00    +0.000 HD
ENDROOT
BRANCH   5   9
ATOM      9  C   UNL     1      47.119   1.002   7.221  0.00  0.00    +0.000 C 
ATOM     10  N   UNL     1      46.777  -0.252   7.650  0.00  0.00    +0.000 N 
ATOM     11  O   UNL     1      48.003   1.182   6.392  0.00  0.00    +0.000 OA
ATOM     12  H   UNL     1      46.052  -0.386   8.345  0.00  0.00    +0.000 HD
ATOM     13  H   UNL     1      47.273  -1.052   7.283  0.00  0.00    +0.000 HD
ENDBRANCH   5   9
BRANCH   1  14
ATOM     14  C   UNL     1      43.345   4.686  10.772  0.00  0.00    +0.000 C 
BRANCH  14  16
ATOM     15  C   UNL     1      43.357   4.481  13.337  0.00  0.00    +0.000 C 
ATOM     16  C   UNL     1      44.025   4.954  12.084  0.00  0.00    +0.000 C 
BRANCH  16  17
ATOM     17  C   UNL     1      45.037   6.018  12.144  0.00  0.00    +0.000 A 
ATOM     18  C   UNL     1      46.401   5.708  12.220  0.00  0.00    +0.000 A 
ATOM     19  C   UNL     1      47.362   6.722  12.201  0.00  0.00    +0.000 A 
ATOM     20  C   UNL     1      46.967   8.056  12.099  0.00  0.00    +0.000 A 
ATOM     21  C   UNL     1      45.613   8.376  12.042  0.00  0.00    +0.000 A 
ATOM     22  C   UNL     1      44.655   7.365  12.073  0.00  0.00    +0.000 A 
ENDBRANCH  16  17
ENDBRANCH  14  16
ENDBRANCH   1  14
TORSDOF 4
ENDMDL
MODEL 3
REMARK VINA RESULT:    -7.174      3.177      6.396
REMARK INTER + INTRA:          -9.469
REMARK INTER:                  -9.074
REMARK INTRA:                  -0.395
REMARK UNBOUND:                -0.617
REMARK  Name = 
REMARK  5 active torsions:
REMARK  status: ('A' for Active; 'I' for Inactive)
REMARK    1  A    between atoms: C_1  and  C_2
REMARK    2  A    between atoms: C_2  and  C_3
REMARK    3  A    between atoms: C_2  and  C_14
REMARK    4  A    between atoms: C_3  and  N_4
REMARK    5  A    between atoms: C_8  and  C_9
REMARK                            x       y       z     vdW  Elec       q    Type
REMARK                         _______ _______ _______ _____ _____    ______ ____
ROOT
ATOM      1  N   UNL     1      43.704   4.745  10.177  0.00  0.00    +0.000 N 
ATOM      2  C   UNL     1      44.582   5.461  11.010  0.00  0.00    +0.000 A 
ATOM      3  C   UNL     1      44.175   5.740  12.310  0.00  0.00    +0.000 A 
ATOM      4  C   UNL     1      45.022   6.445  13.164  0.00  0.00    +0.000 A 
ATOM      5  C   UNL     1      46.250   6.842  12.671  0.00  0.00    +0.000 A 
ATOM      6  N   UNL     1      46.633   6.584  11.400  0.00  0.00    +0.000 NA
ATOM      7  N   UNL     1      45.782   5.902  10.567  0.00  0.00    +0.000 NA
ATOM      8  H   UNL     1      43.446   3.877  10.641  0.00  0.00    +0.000 HD
ENDROOT
BRANCH   5   9
ATOM      9  C   UNL     1      47.232   7.563  13.529  0.00  0.00    +0.000 C 
ATOM     10  N   UNL     1      46.795   8.733  14.088  0.00  0.00    +0.000 N 
ATOM     11  O   UNL     1      48.367   7.142  13.716  0.00  0.00    +0.000 OA
ATOM     12  H   UNL     1      45.857   9.076  13.914  0.00  0.00    +0.000 HD
ATOM     13  H   UNL     1      47.428   9.272  14.662  0.00  0.00    +0.000 HD
ENDBRANCH   5   9
BRANCH   1  14
ATOM     14  C   UNL     1      44.232   4.486   8.842  0.00  0.00    +0.000 C 
BRANCH  14  16
ATOM     15  C   UNL     1      44.307   2.182   9.984  0.00  0.00    +0.000 C 
ATOM     16  C   UNL     1      44.661   3.047   8.816  0.00  0.00    +0.000 C 
BRANCH  16  17
ATOM     17  C   UNL     1      45.756   2.658   7.916  0.00  0.00    +0.000 A 
ATOM     18  C   UNL     1      46.407   1.427   8.067  0.00  0.00    +0.000 A 
ATOM     19  C   UNL     1      47.395   1.031   7.163  0.00  0.00    +0.000 A 
ATOM     20  C   UNL     1      47.737   1.858   6.094  0.00  0.00    +0.000 A 
ATOM     21  C   UNL     1      47.109   3.092   5.945  0.00  0.00    +0.000 A 
ATOM     22  C   UNL     1      46.132   3.493   6.855  0.00  0.00    +0.000 A 
ENDBRANCH  16  17
ENDBRANCH  14  16
ENDBRANCH   1  14
TORSDOF 4
ENDMDL
MODEL 4
REMARK VINA RESULT:    -6.764      3.442      5.829
REMARK INTER + INTRA:          -8.963
REMARK INTER:                  -8.350
REMARK INTRA:                  -0.613
REMARK UNBOUND:                -0.617
REMARK  Name = 
REMARK  5 active torsions:
REMARK  status: ('A' for Active; 'I' for Inactive)
REMARK    1  A    between atoms: C_1  and  C_2
REMARK    2  A    between atoms: C_2  and  C_3
REMARK    3  A    between atoms: C_2  and  C_14
REMARK    4  A    between atoms: C_3  and  N_4
REMARK    5  A    between atoms: C_8  and  C_9
REMARK                            x       y       z     vdW  Elec       q    Type
REMARK                         _______ _______ _______ _____ _____    ______ ____
ROOT
ATOM      1  N   UNL     1      44.763   5.057  12.381  0.00  0.00    +0.000 N 
ATOM      2  C   UNL     1      46.003   5.714  12.475  0.00  0.00    +0.000 A 
ATOM      3  C   UNL     1      46.695   5.643  13.679  0.00  0.00    +0.000 A 
ATOM      4  C   UNL     1      47.928   6.280  13.807  0.00  0.00    +0.000 A 
ATOM      5  C   UNL     1      48.416   6.966  12.712  0.00  0.00    +0.000 A 
ATOM      6  N   UNL     1      47.731   7.048  11.549  0.00  0.00    +0.000 NA
ATOM      7  N   UNL     1      46.511   6.428  11.444  0.00  0.00    +0.000 NA
ATOM      8  H   UNL     1      44.889   4.080  12.637  0.00  0.00    +0.000 HD
ENDROOT
BRANCH   5   9
ATOM      9  C   UNL     1      49.744   7.640  12.749  0.00  0.00    +0.000 C 
ATOM     10  N   UNL     1      50.592   7.354  11.713  0.00  0.00    +0.000 N 
ATOM     11  O   UNL     1      50.067   8.396  13.657  0.00  0.00    +0.000 OA
ATOM     12  H   UNL     1      50.317   6.717  10.975  0.00  0.00    +0.000 HD
ATOM     13  H   UNL     1      51.513   7.769  11.700  0.00  0.00    +0.000 HD
ENDBRANCH   5   9
BRANCH   1  14
ATOM     14  C   UNL     1      44.128   5.175  11.072  0.00  0.00    +0.000 C 
BRANCH  14  16
ATOM     15  C   UNL     1      43.368   2.737  11.389  0.00  0.00    +0.000 C 
ATOM     16  C   UNL     1      44.001   3.782  10.525  0.00  0.00    +0.000 C 
BRANCH  16  17
ATOM     17  C   UNL     1      44.867   3.387   9.404  0.00  0.00    +0.000 A 
ATOM     18  C   UNL     1      45.440   4.351   8.566  0.00  0.00    +0.000 A 
ATOM     19  C   UNL     1      46.323   3.974   7.551  0.00  0.00    +0.000 A 
ATOM     20  C   UNL     1      46.645   2.630   7.369  0.00  0.00    +0.000 A 
ATOM     21  C   UNL     1      46.067   1.662   8.186  0.00  0.00    +0.000 A 
ATOM     22  C   UNL     1      45.177   2.037   9.190  0.00  0.00    +0.000 A 
ENDBRANCH  16  17
ENDBRANCH  14  16
ENDBRANCH   1  14
TORSDOF 4
ENDMDL
MODEL 5
REMARK VINA RESULT:    -6.692      4.907      7.328
REMARK INTER + INTRA:          -8.873
REMARK INTER:                  -8.488
REMARK INTRA:                  -0.386
REMARK UNBOUND:                -0.617
REMARK  Name = 
REMARK  5 active torsions:
REMARK  status: ('A' for Active; 'I' for Inactive)
REMARK    1  A    between atoms: C_1  and  C_2
REMARK    2  A    between atoms: C_2  and  C_3
REMARK    3  A    between atoms: C_2  and  C_14
REMARK    4  A    between atoms: C_3  and  N_4
REMARK    5  A    between atoms: C_8  and  C_9
REMARK                            x       y       z     vdW  Elec       q    Type
REMARK                         _______ _______ _______ _____ _____    ______ ____
ROOT
ATOM      1  N   UNL     1      46.104   5.033  14.314  0.00  0.00    +0.000 N 
ATOM      2  C   UNL     1      47.100   4.400  15.078  0.00  0.00    +0.000 A 
ATOM      3  C   UNL     1      47.685   5.115  16.118  0.00  0.00    +0.000 A 
ATOM      4  C   UNL     1      48.673   4.518  16.898  0.00  0.00    +0.000 A 
ATOM      5  C   UNL     1      49.034   3.218  16.598  0.00  0.00    +0.000 A 
ATOM      6  N   UNL     1      48.475   2.534  15.575  0.00  0.00    +0.000 NA
ATOM      7  N   UNL     1      47.514   3.141  14.806  0.00  0.00    +0.000 NA
ATOM      8  H   UNL     1      45.375   5.371  14.939  0.00  0.00    +0.000 HD
ENDROOT
BRANCH   5   9
ATOM      9  C   UNL     1      50.052   2.491  17.408  0.00  0.00    +0.000 C 
ATOM     10  N   UNL     1      50.550   3.164  18.491  0.00  0.00    +0.000 N 
ATOM     11  O   UNL     1      50.431   1.363  17.118  0.00  0.00    +0.000 OA
ATOM     12  H   UNL     1      50.235   4.101  18.712  0.00  0.00    +0.000 HD
ATOM     13  H   UNL     1      51.257   2.724  19.063  0.00  0.00    +0.000 HD
ENDBRANCH   5   9
BRANCH   1  14
ATOM     14  C   UNL     1      45.540   4.192  13.263  0.00  0.00    +0.000 C 
BRANCH  14  16
ATOM     15  C   UNL     1      44.929   6.481  12.259  0.00  0.00    +0.000 C 
ATOM     16  C   UNL     1      45.369   5.066  12.054  0.00  0.00    +0.000 C 
BRANCH  16  17
ATOM     17  C   UNL     1      45.193   4.422  10.743  0.00  0.00    +0.000 A 
ATOM     18  C   UNL     1      45.652   5.041   9.573  0.00  0.00    +0.000 A 
ATOM     19  C   UNL     1      45.551   4.391   8.341  0.00  0.00    +0.000 A 
ATOM     20  C   UNL     1      44.996   3.114   8.268  0.00  0.00    +0.000 A 
ATOM     21  C   UNL     1      44.520   2.498   9.422  0.00  0.00    +0.000 A 
ATOM     22  C   UNL     1      44.610   3.152  10.650  0.00  0.00    +0.000 A 
ENDBRANCH  16  17
ENDBRANCH  14  16
ENDBRANCH   1  14
TORSDOF 4
ENDMDL
MODEL 6
REMARK VINA RESULT:    -6.488      4.258      6.337
REMARK INTER + INTRA:          -8.622
REMARK INTER:                  -8.236
REMARK INTRA:                  -0.386
REMARK UNBOUND:                -0.617
REMARK  Name = 
REMARK  5 active torsions:
REMARK  status: ('A' for Active; 'I' for Inactive)
REMARK    1  A    between atoms: C_1  and  C_2
REMARK    2  A    between atoms: C_2  and  C_3
REMARK    3  A    between atoms: C_2  and  C_14
REMARK    4  A    between atoms: C_3  and  N_4
REMARK    5  A    between atoms: C_8  and  C_9
REMARK                            x       y       z     vdW  Elec       q    Type
REMARK                         _______ _______ _______ _____ _____    ______ ____
ROOT
ATOM      1  N   UNL     1      47.197   5.203  15.063  0.00  0.00    +0.000 N 
ATOM      2  C   UNL     1      46.457   4.866  13.916  0.00  0.00    +0.000 A 
ATOM      3  C   UNL     1      46.153   5.875  13.009  0.00  0.00    +0.000 A 
ATOM      4  C   UNL     1      45.423   5.576  11.860  0.00  0.00    +0.000 A 
ATOM      5  C   UNL     1      45.028   4.266  11.670  0.00  0.00    +0.000 A 
ATOM      6  N   UNL     1      45.310   3.291  12.564  0.00  0.00    +0.000 NA
ATOM      7  N   UNL     1      46.016   3.605  13.698  0.00  0.00    +0.000 NA
ATOM      8  H   UNL     1      48.057   5.664  14.775  0.00  0.00    +0.000 HD
ENDROOT
BRANCH   5   9
ATOM      9  C   UNL     1      44.281   3.852  10.449  0.00  0.00    +0.000 C 
ATOM     10  N   UNL     1      44.156   4.801   9.471  0.00  0.00    +0.000 N 
ATOM     11  O   UNL     1      43.796   2.734  10.328  0.00  0.00    +0.000 OA
ATOM     12  H   UNL     1      44.552   5.727   9.589  0.00  0.00    +0.000 HD
ATOM     13  H   UNL     1      43.642   4.580   8.630  0.00  0.00    +0.000 HD
ENDBRANCH   5   9
BRANCH   1  14
ATOM     14  C   UNL     1      47.481   4.071  15.939  0.00  0.00    +0.000 C 
BRANCH  14  16
ATOM     15  C   UNL     1      48.347   6.012  17.389  0.00  0.00    +0.000 C 
ATOM     16  C   UNL     1      48.418   4.569  17.001  0.00  0.00    +0.000 C 
BRANCH  16  17
ATOM     17  C   UNL     1      49.630   3.787  17.290  0.00  0.00    +0.000 A 
ATOM     18  C   UNL     1      49.659   2.404  17.074  0.00  0.00    +0.000 A 
ATOM     19  C   UNL     1      50.836   1.679  17.277  0.00  0.00    +0.000 A 
ATOM     20  C   UNL     1      51.996   2.331  17.692  0.00  0.00    +0.000 A 
ATOM     21  C   UNL     1      51.972   3.704  17.928  0.00  0.00    +0.000 A 
ATOM     22  C   UNL     1      50.795   4.425  17.736  0.00  0.00    +0.000 A 
ENDBRANCH  16  17
ENDBRANCH  14  16
ENDBRANCH   1  14
TORSDOF 4
ENDMDL
MODEL 7
REMARK VINA RESULT:    -6.188      5.790      8.047
REMARK INTER + INTRA:          -8.252
REMARK INTER:                  -7.864
REMARK INTRA:                  -0.388
REMARK UNBOUND:                -0.617
REMARK  Name = 
REMARK  5 active torsions:
REMARK  status: ('A' for Active; 'I' for Inactive)
REMARK    1  A    between atoms: C_1  and  C_2
REMARK    2  A    between atoms: C_2  and  C_3
REMARK    3  A    between atoms: C_2  and  C_14
REMARK    4  A    between atoms: C_3  and  N_4
REMARK    5  A    between atoms: C_8  and  C_9
REMARK                            x       y       z     vdW  Elec       q    Type
REMARK                         _______ _______ _______ _____ _____    ______ ____
ROOT
ATOM      1  N   UNL     1      47.333   4.616  15.971  0.00  0.00    +0.000 N 
ATOM      2  C   UNL     1      48.441   3.851  16.376  0.00  0.00    +0.000 A 
ATOM      3  C   UNL     1      49.336   4.416  17.279  0.00  0.00    +0.000 A 
ATOM      4  C   UNL     1      50.444   3.685  17.704  0.00  0.00    +0.000 A 
ATOM      5  C   UNL     1      50.606   2.409  17.200  0.00  0.00    +0.000 A 
ATOM      6  N   UNL     1      49.744   1.871  16.308  0.00  0.00    +0.000 NA
ATOM      7  N   UNL     1      48.666   2.609  15.888  0.00  0.00    +0.000 NA
ATOM      8  H   UNL     1      46.825   4.922  16.798  0.00  0.00    +0.000 HD
ENDROOT
BRANCH   5   9
ATOM      9  C   UNL     1      51.740   1.545  17.634  0.00  0.00    +0.000 C 
ATOM     10  N   UNL     1      51.405   0.297  18.086  0.00  0.00    +0.000 N 
ATOM     11  O   UNL     1      52.903   1.928  17.600  0.00  0.00    +0.000 OA
ATOM     12  H   UNL     1      50.437  -0.003  18.120  0.00  0.00    +0.000 HD
ATOM     13  H   UNL     1      52.133  -0.323  18.411  0.00  0.00    +0.000 HD
ENDBRANCH   5   9
BRANCH   1  14
ATOM     14  C   UNL     1      46.446   3.927  15.039  0.00  0.00    +0.000 C 
BRANCH  14  16
ATOM     15  C   UNL     1      47.331   5.926  13.684  0.00  0.00    +0.000 C 
ATOM     16  C   UNL     1      46.421   4.743  13.779  0.00  0.00    +0.000 C 
BRANCH  16  17
ATOM     17  C   UNL     1      45.241   4.648  12.906  0.00  0.00    +0.000 A 
ATOM     18  C   UNL     1      44.173   5.544  13.042  0.00  0.00    +0.000 A 
ATOM     19  C   UNL     1      43.091   5.496  12.161  0.00  0.00    +0.000 A 
ATOM     20  C   UNL     1      43.069   4.557  11.131  0.00  0.00    +0.000 A 
ATOM     21  C   UNL     1      44.117   3.650  10.998  0.00  0.00    +0.000 A 
ATOM     22  C   UNL     1      45.191   3.689  11.885  0.00  0.00    +0.000 A 
ENDBRANCH  16  17
ENDBRANCH  14  16
ENDBRANCH   1  14
TORSDOF 4
ENDMDL
MODEL 8
REMARK VINA RESULT:    -5.884      3.954      5.951
REMARK INTER + INTRA:          -7.876
REMARK INTER:                  -7.583
REMARK INTRA:                  -0.294
REMARK UNBOUND:                -0.617
REMARK  Name = 
REMARK  5 active torsions:
REMARK  status: ('A' for Active; 'I' for Inactive)
REMARK    1  A    between atoms: C_1  and  C_2
REMARK    2  A    between atoms: C_2  and  C_3
REMARK    3  A    between atoms: C_2  and  C_14
REMARK    4  A    between atoms: C_3  and  N_4
REMARK    5  A    between atoms: C_8  and  C_9
REMARK                            x       y       z     vdW  Elec       q    Type
REMARK                         _______ _______ _______ _____ _____    ______ ____
ROOT
ATOM      1  N   UNL     1      47.198   5.137  15.006  0.00  0.00    +0.000 N 
ATOM      2  C   UNL     1      46.483   4.813  13.839  0.00  0.00    +0.000 A 
ATOM      3  C   UNL     1      46.274   5.815  12.897  0.00  0.00    +0.000 A 
ATOM      4  C   UNL     1      45.573   5.528  11.727  0.00  0.00    +0.000 A 
ATOM      5  C   UNL     1      45.108   4.239  11.554  0.00  0.00    +0.000 A 
ATOM      6  N   UNL     1      45.298   3.274  12.481  0.00  0.00    +0.000 NA
ATOM      7  N   UNL     1      45.978   3.576  13.635  0.00  0.00    +0.000 NA
ATOM      8  H   UNL     1      48.094   5.540  14.742  0.00  0.00    +0.000 HD
ENDROOT
BRANCH   5   9
ATOM      9  C   UNL     1      44.385   3.837  10.314  0.00  0.00    +0.000 C 
ATOM     10  N   UNL     1      44.394   4.748   9.292  0.00  0.00    +0.000 N 
ATOM     11  O   UNL     1      43.807   2.762  10.215  0.00  0.00    +0.000 OA
ATOM     12  H   UNL     1      44.866   5.639   9.392  0.00  0.00    +0.000 HD
ATOM     13  H   UNL     1      43.902   4.534   8.436  0.00  0.00    +0.000 HD
ENDBRANCH   5   9
BRANCH   1  14
ATOM     14  C   UNL     1      47.381   4.015  15.920  0.00  0.00    +0.000 C 
BRANCH  14  16
ATOM     15  C   UNL     1      49.401   3.330  17.358  0.00  0.00    +0.000 C 
ATOM     16  C   UNL     1      48.478   4.401  16.869  0.00  0.00    +0.000 C 
BRANCH  16  17
ATOM     17  C   UNL     1      48.347   5.659  17.618  0.00  0.00    +0.000 A 
ATOM     18  C   UNL     1      49.047   6.806  17.223  0.00  0.00    +0.000 A 
ATOM     19  C   UNL     1      48.860   8.018  17.893  0.00  0.00    +0.000 A 
ATOM     20  C   UNL     1      47.966   8.095  18.960  0.00  0.00    +0.000 A 
ATOM     21  C   UNL     1      47.279   6.957  19.373  0.00  0.00    +0.000 A 
ATOM     22  C   UNL     1      47.475   5.745  18.712  0.00  0.00    +0.000 A 
ENDBRANCH  16  17
ENDBRANCH  14  16
ENDBRANCH   1  14
TORSDOF 4
ENDMDL
MODEL 9
REMARK VINA RESULT:    -5.823      4.912      7.031
REMARK INTER + INTRA:          -7.802
REMARK INTER:                  -7.527
REMARK INTRA:                  -0.275
REMARK UNBOUND:                -0.617
REMARK  Name = 
REMARK  5 active torsions:
REMARK  status: ('A' for Active; 'I' for Inactive)
REMARK    1  A    between atoms: C_1  and  C_2
REMARK    2  A    between atoms: C_2  and  C_3
REMARK    3  A    between atoms: C_2  and  C_14
REMARK    4  A    between atoms: C_3  and  N_4
REMARK    5  A    between atoms: C_8  and  C_9
REMARK                            x       y       z     vdW  Elec       q    Type
REMARK                         _______ _______ _______ _____ _____    ______ ____
ROOT
ATOM      1  N   UNL     1      46.107   5.116  14.338  0.00  0.00    +0.000 N 
ATOM      2  C   UNL     1      47.095   4.443  15.077  0.00  0.00    +0.000 A 
ATOM      3  C   UNL     1      47.633   5.081  16.190  0.00  0.00    +0.000 A 
ATOM      4  C   UNL     1      48.613   4.442  16.948  0.00  0.00    +0.000 A 
ATOM      5  C   UNL     1      49.013   3.180  16.552  0.00  0.00    +0.000 A 
ATOM      6  N   UNL     1      48.500   2.572  15.458  0.00  0.00    +0.000 NA
ATOM      7  N   UNL     1      47.547   3.221  14.714  0.00  0.00    +0.000 NA
ATOM      8  H   UNL     1      45.353   5.386  14.966  0.00  0.00    +0.000 HD
ENDROOT
BRANCH   5   9
ATOM      9  C   UNL     1      50.024   2.410  17.329  0.00  0.00    +0.000 C 
ATOM     10  N   UNL     1      50.539   3.036  18.431  0.00  0.00    +0.000 N 
ATOM     11  O   UNL     1      50.384   1.287  16.998  0.00  0.00    +0.000 OA
ATOM     12  H   UNL     1      50.240   3.971  18.687  0.00  0.00    +0.000 HD
ATOM     13  H   UNL     1      51.243   2.566  18.983  0.00  0.00    +0.000 HD
ENDBRANCH   5   9
BRANCH   1  14
ATOM     14  C   UNL     1      45.593   4.355  13.204  0.00  0.00    +0.000 C 
BRANCH  14  16
ATOM     15  C   UNL     1      45.087   4.773  10.716  0.00  0.00    +0.000 C 
ATOM     16  C   UNL     1      45.463   5.317  12.058  0.00  0.00    +0.000 C 
BRANCH  16  17
ATOM     17  C   UNL     1      46.122   6.627  12.164  0.00  0.00    +0.000 A 
ATOM     18  C   UNL     1      47.498   6.759  11.934  0.00  0.00    +0.000 A 
ATOM     19  C   UNL     1      48.104   8.017  11.961  0.00  0.00    +0.000 A 
ATOM     20  C   UNL     1      47.340   9.155  12.212  0.00  0.00    +0.000 A 
ATOM     21  C   UNL     1      45.975   9.034  12.461  0.00  0.00    +0.000 A 
ATOM     22  C   UNL     1      45.373   7.777  12.446  0.00  0.00    +0.000 A 
ENDBRANCH  16  17
ENDBRANCH  14  16
ENDBRANCH   1  14
TORSDOF 4
ENDMDL
