MODEL 1
REMARK VINA RESULT:    -7.694      0.000      0.000
REMARK INTER + INTRA:         -10.335
REMARK INTER:                  -9.718
REMARK INTRA:                  -0.617
REMARK UNBOUND:                -0.617
REMARK  Name = 
REMARK  5 active torsions:
REMARK  status: ('A' for Active; 'I' for Inactive)
REMARK    1  A    between atoms: N_1  and  C_2
REMARK    2  A    between atoms: C_2  and  C_3
REMARK    3  A    between atoms: C_3  and  C_4
REMARK    4  A    between atoms: C_7  and  C_8
REMARK    5  A    between atoms: C_8  and  N_9
REMARK                            x       y       z     vdW  Elec       q    Type
REMARK                         _______ _______ _______ _____ _____    ______ ____
ROOT
ATOM      1  C   UNL     1      46.083   2.289   7.896  0.00  0.00    +0.000 A 
ATOM      2  C   UNL     1      45.227   1.736   8.855  0.00  0.00    +0.000 A 
ATOM      3  C   UNL     1      44.516   2.559   9.734  0.00  0.00    +0.000 A 
ATOM      4  C   UNL     1      44.640   3.954   9.667  0.00  0.00    +0.000 A 
ATOM      5  C   UNL     1      45.475   4.506   8.685  0.00  0.00    +0.000 A 
ATOM      6  C   UNL     1      46.184   3.682   7.805  0.00  0.00    +0.000 A 
ENDROOT
BRANCH   1   7
ATOM      7  C   UNL     1      46.902   1.401   6.989  0.00  0.00    +0.000 C 
BRANCH   7   8
ATOM      8  C   UNL     1      48.250   2.020   6.605  0.00  0.00    +0.000 C 
BRANCH   8   9
ATOM      9  N   UNL     1      48.353   2.185   5.154  0.00  0.00    +0.000 NA
ATOM     10  H   UNL     1      47.438   2.426   4.775  0.00  0.00    +0.000 HD
ATOM     11  H   UNL     1      48.615   1.297   4.726  0.00  0.00    +0.000 HD
ENDBRANCH   8   9
ENDBRANCH   7   8
ENDBRANCH   1   7
BRANCH   4  12
ATOM     12  C   UNL     1      43.902   4.844  10.636  0.00  0.00    +0.000 C 
BRANCH  12  13
ATOM     13  N   UNL     1      44.803   5.669  11.437  0.00  0.00    +0.000 N 
ATOM     14  C   UNL     1      44.810   7.043  11.415  0.00  0.00    +0.000 A 
ATOM     15  C   UNL     1      45.705   7.484  12.363  0.00  0.00    +0.000 A 
ATOM     16  C   UNL     1      46.259   6.340  12.999  0.00  0.00    +0.000 A 
ATOM     17  C   UNL     1      47.191   6.161  14.030  0.00  0.00    +0.000 A 
ATOM     18  N   UNL     1      47.530   4.917  14.449  0.00  0.00    +0.000 NA
ATOM     19  C   UNL     1      46.955   3.855  13.848  0.00  0.00    +0.000 A 
ATOM     20  C   UNL     1      46.024   3.925  12.822  0.00  0.00    +0.000 A 
ATOM     21  C   UNL     1      45.682   5.214  12.403  0.00  0.00    +0.000 A 
ENDBRANCH  12  13
ENDBRANCH   4  12
TORSDOF 5
ENDMDL
MODEL 2
REMARK VINA RESULT:    -7.245      1.195      2.664
REMARK INTER + INTRA:          -9.768
REMARK INTER:                  -9.155
REMARK INTRA:                  -0.613
REMARK UNBOUND:                -0.617
REMARK  Name = 
REMARK  5 active torsions:
REMARK  status: ('A' for Active; 'I' for Inactive)
REMARK    1  A    between atoms: N_1  and  C_2
REMARK    2  A    between atoms: C_2  and  C_3
REMARK    3  A    between atoms: C_3  and  C_4
REMARK    4  A    between atoms: C_7  and  C_8
REMARK    5  A    between atoms: C_8  and  N_9
REMARK                            x       y       z     vdW  Elec       q    Type
REMARK                         _______ _______ _______ _____ _____    ______ ____
ROOT
ATOM      1  C   UNL     1      46.120   2.392   7.871  0.00  0.00    +0.000 A 
ATOM      2  C   UNL     1      46.191   3.789   7.847  0.00  0.00    +0.000 A 
ATOM      3  C   UNL     1      45.433   4.556   8.737  0.00  0.00    +0.000 A 
ATOM      4  C   UNL     1      44.592   3.941   9.676  0.00  0.00    +0.000 A 
ATOM      5  C   UNL     1      44.546   2.540   9.717  0.00  0.00    +0.000 A 
ATOM      6  C   UNL     1      45.306   1.774   8.828  0.00  0.00    +0.000 A 
ENDROOT
BRANCH   1   7
ATOM      7  C   UNL     1      46.886   1.563   6.868  0.00  0.00    +0.000 C 
BRANCH   7   8
ATOM      8  C   UNL     1      48.230   2.187   6.479  0.00  0.00    +0.000 C 
BRANCH   8   9
ATOM      9  N   UNL     1      48.273   2.476   5.044  0.00  0.00    +0.000 NA
ATOM     10  H   UNL     1      47.978   3.437   4.883  0.00  0.00    +0.000 HD
ATOM     11  H   UNL     1      47.602   1.885   4.554  0.00  0.00    +0.000 HD
ENDBRANCH   8   9
ENDBRANCH   7   8
ENDBRANCH   1   7
BRANCH   4  12
ATOM     12  C   UNL     1      43.746   4.765  10.615  0.00  0.00    +0.000 C 
BRANCH  12  13
ATOM     13  N   UNL     1      44.541   5.437  11.641  0.00  0.00    +0.000 N 
ATOM     14  C   UNL     1      45.317   4.778  12.565  0.00  0.00    +0.000 A 
ATOM     15  C   UNL     1      46.002   5.719  13.299  0.00  0.00    +0.000 A 
ATOM     16  C   UNL     1      45.644   7.001  12.802  0.00  0.00    +0.000 A 
ATOM     17  C   UNL     1      46.022   8.309  13.134  0.00  0.00    +0.000 A 
ATOM     18  N   UNL     1      45.510   9.369  12.461  0.00  0.00    +0.000 NA
ATOM     19  C   UNL     1      44.626   9.138  11.469  0.00  0.00    +0.000 A 
ATOM     20  C   UNL     1      44.188   7.885  11.064  0.00  0.00    +0.000 A 
ATOM     21  C   UNL     1      44.727   6.802  11.765  0.00  0.00    +0.000 A 
ENDBRANCH  12  13
ENDBRANCH   4  12
TORSDOF 5
ENDMDL
MODEL 3
REMARK VINA RESULT:    -7.015      1.172      2.364
REMARK INTER + INTRA:          -9.477
REMARK INTER:                  -8.873
REMARK INTRA:                  -0.603
REMARK UNBOUND:                -0.617
REMARK  Name = 
REMARK  5 active torsions:
REMARK  status: ('A' for Active; 'I' for Inactive)
REMARK    1  A    between atoms: N_1  and  C_2
REMARK    2  A    between atoms: C_2  and  C_3
REMARK    3  A    between atoms: C_3  and  C_4
REMARK    4  A    between atoms: C_7  and  C_8
REMARK    5  A    between atoms: C_8  and  N_9
REMARK                            x       y       z     vdW  Elec       q    Type
REMARK                         _______ _______ _______ _____ _____    ______ ____
ROOT
ATOM      1  C   UNL     1      45.895   3.018   7.821  0.00  0.00    +0.000 A 
ATOM      2  C   UNL     1      46.100   4.390   8.003  0.00  0.00    +0.000 A 
ATOM      3  C   UNL     1      45.642   5.032   9.158  0.00  0.00    +0.000 A 
ATOM      4  C   UNL     1      44.976   4.312  10.161  0.00  0.00    +0.000 A 
ATOM      5  C   UNL     1      44.799   2.931   9.989  0.00  0.00    +0.000 A 
ATOM      6  C   UNL     1      45.259   2.291   8.835  0.00  0.00    +0.000 A 
ENDROOT
BRANCH   1   7
ATOM      7  C   UNL     1      46.329   2.335   6.546  0.00  0.00    +0.000 C 
BRANCH   7   8
ATOM      8  C   UNL     1      47.609   1.511   6.715  0.00  0.00    +0.000 C 
BRANCH   8   9
ATOM      9  N   UNL     1      48.600   1.875   5.701  0.00  0.00    +0.000 NA
ATOM     10  H   UNL     1      48.124   2.225   4.872  0.00  0.00    +0.000 HD
ATOM     11  H   UNL     1      49.111   1.043   5.406  0.00  0.00    +0.000 HD
ENDBRANCH   8   9
ENDBRANCH   7   8
ENDBRANCH   1   7
BRANCH   4  12
ATOM     12  C   UNL     1      44.450   5.006  11.393  0.00  0.00    +0.000 C 
BRANCH  12  13
ATOM     13  N   UNL     1      45.458   5.121  12.444  0.00  0.00    +0.000 N 
ATOM     14  C   UNL     1      45.721   4.137  13.367  0.00  0.00    +0.000 A 
ATOM     15  C   UNL     1      46.793   4.539  14.130  0.00  0.00    +0.000 A 
ATOM     16  C   UNL     1      47.212   5.810  13.652  0.00  0.00    +0.000 A 
ATOM     17  C   UNL     1      48.240   6.691  14.015  0.00  0.00    +0.000 A 
ATOM     18  N   UNL     1      48.413   7.862  13.355  0.00  0.00    +0.000 NA
ATOM     19  C   UNL     1      47.571   8.164  12.345  0.00  0.00    +0.000 A 
ATOM     20  C   UNL     1      46.526   7.363  11.909  0.00  0.00    +0.000 A 
ATOM     21  C   UNL     1      46.362   6.157  12.597  0.00  0.00    +0.000 A 
ENDBRANCH  12  13
ENDBRANCH   4  12
TORSDOF 5
ENDMDL
MODEL 4
REMARK VINA RESULT:    -5.958      1.483      6.471
REMARK INTER + INTRA:          -8.142
REMARK INTER:                  -7.515
REMARK INTRA:                  -0.628
REMARK UNBOUND:                -0.617
REMARK  Name = 
REMARK  5 active torsions:
REMARK  status: ('A' for Active; 'I' for Inactive)
REMARK    1  A    between atoms: N_1  and  C_2
REMARK    2  A    between atoms: C_2  and  C_3
REMARK    3  A    between atoms: C_3  and  C_4
REMARK    4  A    between atoms: C_7  and  C_8
REMARK    5  A    between atoms: C_8  and  N_9
REMARK                            x       y       z     vdW  Elec       q    Type
REMARK                         _______ _______ _______ _____ _____    ______ ____
ROOT
ATOM      1  C   UNL     1      46.123   6.460  12.454  0.00  0.00    +0.000 A 
ATOM      2  C   UNL     1      46.676   6.627  11.179  0.00  0.00    +0.000 A 
ATOM      3  C   UNL     1      46.102   6.002  10.068  0.00  0.00    +0.000 A 
ATOM      4  C   UNL     1      44.958   5.203  10.206  0.00  0.00    +0.000 A 
ATOM      5  C   UNL     1      44.389   5.063  11.481  0.00  0.00    +0.000 A 
ATOM      6  C   UNL     1      44.963   5.690  12.591  0.00  0.00    +0.000 A 
ENDROOT
BRANCH   1   7
ATOM      7  C   UNL     1      46.778   7.079  13.666  0.00  0.00    +0.000 C 
BRANCH   7   8
ATOM      8  C   UNL     1      48.085   6.384  14.060  0.00  0.00    +0.000 C 
BRANCH   8   9
ATOM      9  N   UNL     1      47.874   5.486  15.197  0.00  0.00    +0.000 NA
ATOM     10  H   UNL     1      47.181   5.890  15.824  0.00  0.00    +0.000 HD
ATOM     11  H   UNL     1      48.736   5.407  15.737  0.00  0.00    +0.000 HD
ENDBRANCH   8   9
ENDBRANCH   7   8
ENDBRANCH   1   7
BRANCH   4  12
ATOM     12  C   UNL     1      44.356   4.499   9.015  0.00  0.00    +0.000 C 
BRANCH  12  13
ATOM     13  N   UNL     1      44.920   3.168   8.808  0.00  0.00    +0.000 N 
ATOM     14  C   UNL     1      44.358   2.011   9.295  0.00  0.00    +0.000 A 
ATOM     15  C   UNL     1      45.090   0.946   8.823  0.00  0.00    +0.000 A 
ATOM     16  C   UNL     1      46.132   1.465   8.007  0.00  0.00    +0.000 A 
ATOM     17  C   UNL     1      47.162   0.877   7.260  0.00  0.00    +0.000 A 
ATOM     18  N   UNL     1      48.026   1.643   6.549  0.00  0.00    +0.000 NA
ATOM     19  C   UNL     1      47.876   2.983   6.581  0.00  0.00    +0.000 A 
ATOM     20  C   UNL     1      46.893   3.661   7.287  0.00  0.00    +0.000 A 
ATOM     21  C   UNL     1      46.008   2.858   8.012  0.00  0.00    +0.000 A 
ENDBRANCH  12  13
ENDBRANCH   4  12
TORSDOF 5
ENDMDL
MODEL 5
REMARK VINA RESULT:    -5.787      1.611      6.401
REMARK INTER + INTRA:          -7.927
REMARK INTER:                  -7.307
REMARK INTRA:                  -0.619
REMARK UNBOUND:                -0.617
REMARK  Name = 
REMARK  5 active torsions:
REMARK  status: ('A' for Active; 'I' for Inactive)
REMARK    1  A    between atoms: N_1  and  C_2
REMARK    2  A    between atoms: C_2  and  C_3
REMARK    3  A    between atoms: C_3  and  C_4
REMARK    4  A    between atoms: C_7  and  C_8
REMARK    5  A    between atoms: C_8  and  N_9
REMARK                            x       y       z     vdW  Elec       q    Type
REMARK                         _______ _______ _______ _____ _____    ______ ____
ROOT
ATOM      1  C   UNL     1      46.113   4.770  13.281  0.00  0.00    +0.000 A 
ATOM      2  C   UNL     1      46.049   5.833  12.373  0.00  0.00    +0.000 A 
ATOM      3  C   UNL     1      45.507   5.649  11.098  0.00  0.00    +0.000 A 
ATOM      4  C   UNL     1      45.011   4.398  10.704  0.00  0.00    +0.000 A 
ATOM      5  C   UNL     1      45.049   3.342  11.626  0.00  0.00    +0.000 A 
ATOM      6  C   UNL     1      45.589   3.528  12.902  0.00  0.00    +0.000 A 
ENDROOT
BRANCH   1   7
ATOM      7  C   UNL     1      46.757   4.948  14.635  0.00  0.00    +0.000 C 
BRANCH   7   8
ATOM      8  C   UNL     1      47.281   3.636  15.225  0.00  0.00    +0.000 C 
BRANCH   8   9
ATOM      9  N   UNL     1      47.245   3.672  16.688  0.00  0.00    +0.000 NA
ATOM     10  H   UNL     1      46.808   2.821  17.038  0.00  0.00    +0.000 HD
ATOM     11  H   UNL     1      46.656   4.444  16.999  0.00  0.00    +0.000 HD
ENDBRANCH   8   9
ENDBRANCH   7   8
ENDBRANCH   1   7
BRANCH   4  12
ATOM     12  C   UNL     1      44.458   4.186   9.316  0.00  0.00    +0.000 C 
BRANCH  12  13
ATOM     13  N   UNL     1      45.494   3.835   8.348  0.00  0.00    +0.000 N 
ATOM     14  C   UNL     1      46.252   4.757   7.666  0.00  0.00    +0.000 A 
ATOM     15  C   UNL     1      47.193   4.077   6.926  0.00  0.00    +0.000 A 
ATOM     16  C   UNL     1      47.015   2.689   7.170  0.00  0.00    +0.000 A 
ATOM     17  C   UNL     1      47.669   1.534   6.722  0.00  0.00    +0.000 A 
ATOM     18  N   UNL     1      47.277   0.307   7.144  0.00  0.00    +0.000 NA
ATOM     19  C   UNL     1      46.240   0.221   8.002  0.00  0.00    +0.000 A 
ATOM     20  C   UNL     1      45.527   1.300   8.505  0.00  0.00    +0.000 A 
ATOM     21  C   UNL     1      45.945   2.558   8.062  0.00  0.00    +0.000 A 
ENDBRANCH  12  13
ENDBRANCH   4  12
TORSDOF 5
ENDMDL
MODEL 6
REMARK VINA RESULT:    -5.756      2.378      3.922
REMARK INTER + INTRA:          -7.887
REMARK INTER:                  -7.354
REMARK INTRA:                  -0.533
REMARK UNBOUND:                -0.617
REMARK  Name = 
REMARK  5 active torsions:
REMARK  status: ('A' for Active; 'I' for Inactive)
REMARK    1  A    between atoms: N_1  and  C_2
REMARK    2  A    between atoms: C_2  and  C_3
REMARK    3  A    between atoms: C_3  and  C_4
REMARK    4  A    between atoms: C_7  and  C_8
REMARK    5  A    between atoms: C_8  and  N_9
REMARK                            x       y       z     vdW  Elec       q    Type
REMARK                         _______ _______ _______ _____ _____    ______ ____
ROOT
ATOM      1  C   UNL     1      45.011   3.170   9.873  0.00  0.00    +0.000 A 
ATOM      2  C   UNL     1      45.208   4.500   9.485  0.00  0.00    +0.000 A 
ATOM      3  C   UNL     1      45.221   5.524  10.436  0.00  0.00    +0.000 A 
ATOM      4  C   UNL     1      45.043   5.240  11.798  0.00  0.00    +0.000 A 
ATOM      5  C   UNL     1      44.876   3.903  12.186  0.00  0.00    +0.000 A 
ATOM      6  C   UNL     1      44.865   2.878  11.234  0.00  0.00    +0.000 A 
ENDROOT
BRANCH   1   7
ATOM      7  C   UNL     1      44.930   2.069   8.842  0.00  0.00    +0.000 C 
BRANCH   7   8
ATOM      8  C   UNL     1      46.251   1.850   8.097  0.00  0.00    +0.000 C 
BRANCH   8   9
ATOM      9  N   UNL     1      46.538   0.422   7.956  0.00  0.00    +0.000 NA
ATOM     10  H   UNL     1      46.460   0.156   6.975  0.00  0.00    +0.000 HD
ATOM     11  H   UNL     1      45.834  -0.121   8.455  0.00  0.00    +0.000 HD
ENDBRANCH   8   9
ENDBRANCH   7   8
ENDBRANCH   1   7
BRANCH   4  12
ATOM     12  C   UNL     1      45.021   6.346  12.824  0.00  0.00    +0.000 C 
BRANCH  12  13
ATOM     13  N   UNL     1      46.178   7.231  12.717  0.00  0.00    +0.000 N 
ATOM     14  C   UNL     1      47.481   6.813  12.851  0.00  0.00    +0.000 A 
ATOM     15  C   UNL     1      48.305   7.883  12.586  0.00  0.00    +0.000 A 
ATOM     16  C   UNL     1      47.481   8.995  12.266  0.00  0.00    +0.000 A 
ATOM     17  C   UNL     1      47.743  10.323  11.901  0.00  0.00    +0.000 A 
ATOM     18  N   UNL     1      46.728  11.181  11.636  0.00  0.00    +0.000 NA
ATOM     19  C   UNL     1      45.460  10.732  11.736  0.00  0.00    +0.000 A 
ATOM     20  C   UNL     1      45.095   9.441  12.088  0.00  0.00    +0.000 A 
ATOM     21  C   UNL     1      46.152   8.567  12.355  0.00  0.00    +0.000 A 
ENDBRANCH  12  13
ENDBRANCH   4  12
TORSDOF 5
ENDMDL
MODEL 7
REMARK VINA RESULT:    -5.279      2.105      6.486
REMARK INTER + INTRA:          -7.284
REMARK INTER:                  -6.917
REMARK INTRA:                  -0.367
REMARK UNBOUND:                -0.617
REMARK  Name = 
REMARK  5 active torsions:
REMARK  status: ('A' for Active; 'I' for Inactive)
REMARK    1  A    between atoms: N_1  and  C_2
REMARK    2  A    between atoms: C_2  and  C_3
REMARK    3  A    between atoms: C_3  and  C_4
REMARK    4  A    between atoms: C_7  and  C_8
REMARK    5  A    between atoms: C_8  and  N_9
REMARK                            x       y       z     vdW  Elec       q    Type
REMARK                         _______ _______ _______ _____ _____    ______ ____
ROOT
ATOM      1  C   UNL     1      48.611   8.140  13.400  0.00  0.00    +0.000 A 
ATOM      2  C   UNL     1      48.666   7.286  12.293  0.00  0.00    +0.000 A 
ATOM      3  C   UNL     1      47.496   6.904  11.630  0.00  0.00    +0.000 A 
ATOM      4  C   UNL     1      46.245   7.375  12.055  0.00  0.00    +0.000 A 
ATOM      5  C   UNL     1      46.196   8.255  13.146  0.00  0.00    +0.000 A 
ATOM      6  C   UNL     1      47.367   8.638  13.807  0.00  0.00    +0.000 A 
ENDROOT
BRANCH   1   7
ATOM      7  C   UNL     1      49.866   8.501  14.159  0.00  0.00    +0.000 C 
BRANCH   7   8
ATOM      8  C   UNL     1      50.389   7.354  15.030  0.00  0.00    +0.000 C 
BRANCH   8   9
ATOM      9  N   UNL     1      49.304   6.441  15.394  0.00  0.00    +0.000 NA
ATOM     10  H   UNL     1      48.616   6.416  14.644  0.00  0.00    +0.000 HD
ATOM     11  H   UNL     1      48.817   6.796  16.216  0.00  0.00    +0.000 HD
ENDBRANCH   8   9
ENDBRANCH   7   8
ENDBRANCH   1   7
BRANCH   4  12
ATOM     12  C   UNL     1      44.977   6.939  11.363  0.00  0.00    +0.000 C 
BRANCH  12  13
ATOM     13  N   UNL     1      44.816   5.486  11.353  0.00  0.00    +0.000 N 
ATOM     14  C   UNL     1      44.280   4.766  12.394  0.00  0.00    +0.000 A 
ATOM     15  C   UNL     1      44.184   3.450  12.001  0.00  0.00    +0.000 A 
ATOM     16  C   UNL     1      44.668   3.360  10.668  0.00  0.00    +0.000 A 
ATOM     17  C   UNL     1      44.800   2.306   9.753  0.00  0.00    +0.000 A 
ATOM     18  N   UNL     1      45.297   2.525   8.512  0.00  0.00    +0.000 NA
ATOM     19  C   UNL     1      45.668   3.778   8.177  0.00  0.00    +0.000 A 
ATOM     20  C   UNL     1      45.578   4.887   9.006  0.00  0.00    +0.000 A 
ATOM     21  C   UNL     1      45.060   4.646  10.281  0.00  0.00    +0.000 A 
ENDBRANCH  12  13
ENDBRANCH   4  12
TORSDOF 5
ENDMDL
MODEL 8
REMARK VINA RESULT:    -5.093      3.738      5.825
REMARK INTER + INTRA:          -7.049
REMARK INTER:                  -6.435
REMARK INTRA:                  -0.615
REMARK UNBOUND:                -0.617
REMARK  Name = 
REMARK  5 active torsions:
REMARK  status: ('A' for Active; 'I' for Inactive)
REMARK    1  A    between atoms: N_1  and  C_2
REMARK    2  A    between atoms: C_2  and  C_3
REMARK    3  A    between atoms: C_3  and  C_4
REMARK    4  A    between atoms: C_7  and  C_8
REMARK    5  A    between atoms: C_8  and  N_9
REMARK                            x       y       z     vdW  Elec       q    Type
REMARK                         _______ _______ _______ _____ _____    ______ ____
ROOT
ATOM      1  C   UNL     1      44.787   5.147  12.854  0.00  0.00    +0.000 A 
ATOM      2  C   UNL     1      45.011   6.510  12.631  0.00  0.00    +0.000 A 
ATOM      3  C   UNL     1      46.256   7.081  12.912  0.00  0.00    +0.000 A 
ATOM      4  C   UNL     1      47.306   6.300  13.415  0.00  0.00    +0.000 A 
ATOM      5  C   UNL     1      47.087   4.928  13.608  0.00  0.00    +0.000 A 
ATOM      6  C   UNL     1      45.842   4.357  13.325  0.00  0.00    +0.000 A 
ENDROOT
BRANCH   1   7
ATOM      7  C   UNL     1      43.425   4.540  12.614  0.00  0.00    +0.000 C 
BRANCH   7   8
ATOM      8  C   UNL     1      43.371   3.672  11.353  0.00  0.00    +0.000 C 
BRANCH   8   9
ATOM      9  N   UNL     1      43.038   2.286  11.689  0.00  0.00    +0.000 NA
ATOM     10  H   UNL     1      42.128   2.257  12.145  0.00  0.00    +0.000 HD
ATOM     11  H   UNL     1      43.709   1.926  12.367  0.00  0.00    +0.000 HD
ENDBRANCH   8   9
ENDBRANCH   7   8
ENDBRANCH   1   7
BRANCH   4  12
ATOM     12  C   UNL     1      48.640   6.919  13.752  0.00  0.00    +0.000 C 
BRANCH  12  13
ATOM     13  N   UNL     1      48.636   7.581  15.055  0.00  0.00    +0.000 N 
ATOM     14  C   UNL     1      48.354   8.914  15.239  0.00  0.00    +0.000 A 
ATOM     15  C   UNL     1      48.338   9.167  16.592  0.00  0.00    +0.000 A 
ATOM     16  C   UNL     1      48.609   7.945  17.264  0.00  0.00    +0.000 A 
ATOM     17  C   UNL     1      48.705   7.582  18.614  0.00  0.00    +0.000 A 
ATOM     18  N   UNL     1      48.971   6.301  18.970  0.00  0.00    +0.000 NA
ATOM     19  C   UNL     1      49.147   5.384  17.996  0.00  0.00    +0.000 A 
ATOM     20  C   UNL     1      49.072   5.640  16.635  0.00  0.00    +0.000 A 
ATOM     21  C   UNL     1      48.794   6.964  16.283  0.00  0.00    +0.000 A 
ENDBRANCH  12  13
ENDBRANCH   4  12
TORSDOF 5
ENDMDL
MODEL 9
REMARK VINA RESULT:    -5.069      3.539      7.375
REMARK INTER + INTRA:          -7.019
REMARK INTER:                  -6.434
REMARK INTRA:                  -0.585
REMARK UNBOUND:                -0.617
REMARK  Name = 
REMARK  5 active torsions:
REMARK  status: ('A' for Active; 'I' for Inactive)
REMARK    1  A    between atoms: N_1  and  C_2
REMARK    2  A    between atoms: C_2  and  C_3
REMARK    3  A    between atoms: C_3  and  C_4
REMARK    4  A    between atoms: C_7  and  C_8
REMARK    5  A    between atoms: C_8  and  N_9
REMARK                            x       y       z     vdW  Elec       q    Type
REMARK                         _______ _______ _______ _____ _____    ______ ____
ROOT
ATOM      1  C   UNL     1      48.008   5.194  17.416  0.00  0.00    +0.000 A 
ATOM      2  C   UNL     1      47.261   4.254  16.699  0.00  0.00    +0.000 A 
ATOM      3  C   UNL     1      47.123   4.362  15.312  0.00  0.00    +0.000 A 
ATOM      4  C   UNL     1      47.736   5.411  14.610  0.00  0.00    +0.000 A 
ATOM      5  C   UNL     1      48.510   6.334  15.328  0.00  0.00    +0.000 A 
ATOM      6  C   UNL     1      48.649   6.223  16.715  0.00  0.00    +0.000 A 
ENDROOT
BRANCH   1   7
ATOM      7  C   UNL     1      48.105   5.118  18.921  0.00  0.00    +0.000 C 
BRANCH   7   8
ATOM      8  C   UNL     1      49.545   4.969  19.421  0.00  0.00    +0.000 C 
BRANCH   8   9
ATOM      9  N   UNL     1      50.168   3.768  18.863  0.00  0.00    +0.000 NA
ATOM     10  H   UNL     1      51.106   3.995  18.535  0.00  0.00    +0.000 HD
ATOM     11  H   UNL     1      49.646   3.459  18.043  0.00  0.00    +0.000 HD
ENDBRANCH   8   9
ENDBRANCH   7   8
ENDBRANCH   1   7
BRANCH   4  12
ATOM     12  C   UNL     1      47.562   5.551  13.118  0.00  0.00    +0.000 C 
BRANCH  12  13
ATOM     13  N   UNL     1      46.187   5.876  12.744  0.00  0.00    +0.000 N 
ATOM     14  C   UNL     1      45.699   7.157  12.652  0.00  0.00    +0.000 A 
ATOM     15  C   UNL     1      44.409   7.093  12.176  0.00  0.00    +0.000 A 
ATOM     16  C   UNL     1      44.097   5.724  11.957  0.00  0.00    +0.000 A 
ATOM     17  C   UNL     1      42.964   5.053  11.476  0.00  0.00    +0.000 A 
ATOM     18  N   UNL     1      42.957   3.702  11.361  0.00  0.00    +0.000 NA
ATOM     19  C   UNL     1      44.060   3.017  11.724  0.00  0.00    +0.000 A 
ATOM     20  C   UNL     1      45.229   3.585  12.211  0.00  0.00    +0.000 A 
ATOM     21  C   UNL     1      45.223   4.978  12.320  0.00  0.00    +0.000 A 
ENDBRANCH  12  13
ENDBRANCH   4  12
TORSDOF 5
ENDMDL
