MODEL 1
REMARK VINA RESULT:    -8.344      0.000      0.000
REMARK INTER + INTRA:         -10.729
REMARK INTER:                 -10.296
REMARK INTRA:                  -0.433
REMARK UNBOUND:                -0.433
REMARK  Name = 
REMARK  5 active torsions:
REMARK  status: ('A' for Active; 'I' for Inactive)
REMARK    1  A    between atoms: N_1  and  C_2
REMARK    2  A    between atoms: C_2  and  C_3
REMARK    3  A    between atoms: C_6  and  C_7
REMARK    4  A    between atoms: C_7  and  C_8
REMARK    5  A    between atoms: C_14  and  O_15
REMARK                            x       y       z     vdW  Elec       q    Type
REMARK                         _______ _______ _______ _____ _____    ______ ____
ROOT
ATOM      1  C   UNL     1      44.126   3.877   9.926  0.00  0.00    +0.000 C 
ENDROOT
BRANCH   1   2
ATOM      2  C   UNL     1      45.193   3.887   8.891  0.00  0.00    +0.000 A 
ATOM      3  N   UNL     1      45.642   5.058   8.408  0.00  0.00    +0.000 NA
ATOM      4  O   UNL     1      46.628   4.735   7.490  0.00  0.00    +0.000 OA
ATOM      5  C   UNL     1      46.772   3.385   7.432  0.00  0.00    +0.000 A 
ATOM      6  C   UNL     1      47.653   2.685   6.610  0.00  0.00    +0.000 A 
ATOM      7  C   UNL     1      47.633   1.290   6.728  0.00  0.00    +0.000 A 
ATOM      8  C   UNL     1      46.774   0.665   7.634  0.00  0.00    +0.000 A 
ATOM      9  C   UNL     1      45.896   1.394   8.445  0.00  0.00    +0.000 A 
ATOM     10  C   UNL     1      45.897   2.793   8.325  0.00  0.00    +0.000 A 
BRANCH   8  11
ATOM     11  O   UNL     1      46.752  -0.692   7.766  0.00  0.00    +0.000 OA
ATOM     12  H   UNL     1      46.273  -0.920   8.580  0.00  0.00    +0.000 HD
ENDBRANCH   8  11
ENDBRANCH   1   2
BRANCH   1  16
ATOM     13  C   UNL     1      46.193   4.499  13.618  0.00  0.00    +0.000 A 
ATOM     14  C   UNL     1      45.586   5.593  12.997  0.00  0.00    +0.000 A 
ATOM     15  C   UNL     1      44.865   5.414  11.816  0.00  0.00    +0.000 A 
ATOM     16  C   UNL     1      44.759   4.132  11.274  0.00  0.00    +0.000 A 
ATOM     17  N   UNL     1      45.313   3.052  11.881  0.00  0.00    +0.000 NA
ATOM     18  C   UNL     1      46.008   3.258  13.024  0.00  0.00    +0.000 A 
BRANCH  13  19
ATOM     19  C   UNL     1      47.061   4.652  14.835  0.00  0.00    +0.000 C 
BRANCH  19  20
ATOM     20  N   UNL     1      47.563   3.375  15.321  0.00  0.00    +0.000 NA
ATOM     21  H   UNL     1      47.442   3.332  16.331  0.00  0.00    +0.000 HD
ATOM     22  H   UNL     1      48.567   3.325  15.151  0.00  0.00    +0.000 HD
ENDBRANCH  19  20
ENDBRANCH  13  19
ENDBRANCH   1  16
TORSDOF 5
ENDMDL
MODEL 2
REMARK VINA RESULT:    -8.066      2.491      6.230
REMARK INTER + INTRA:         -10.385
REMARK INTER:                  -9.859
REMARK INTRA:                  -0.526
REMARK UNBOUND:                -0.433
REMARK  Name = 
REMARK  5 active torsions:
REMARK  status: ('A' for Active; 'I' for Inactive)
REMARK    1  A    between atoms: N_1  and  C_2
REMARK    2  A    between atoms: C_2  and  C_3
REMARK    3  A    between atoms: C_6  and  C_7
REMARK    4  A    between atoms: C_7  and  C_8
REMARK    5  A    between atoms: C_14  and  O_15
REMARK                            x       y       z     vdW  Elec       q    Type
REMARK                         _______ _______ _______ _____ _____    ______ ____
ROOT
ATOM      1  C   UNL     1      43.869   4.357  10.293  0.00  0.00    +0.000 C 
ENDROOT
BRANCH   1   2
ATOM      2  C   UNL     1      44.618   4.407  11.575  0.00  0.00    +0.000 A 
ATOM      3  N   UNL     1      44.300   3.558  12.567  0.00  0.00    +0.000 NA
ATOM      4  O   UNL     1      45.176   3.841  13.602  0.00  0.00    +0.000 OA
ATOM      5  C   UNL     1      46.015   4.842  13.229  0.00  0.00    +0.000 A 
ATOM      6  C   UNL     1      47.019   5.410  14.010  0.00  0.00    +0.000 A 
ATOM      7  C   UNL     1      47.768   6.430  13.410  0.00  0.00    +0.000 A 
ATOM      8  C   UNL     1      47.506   6.826  12.098  0.00  0.00    +0.000 A 
ATOM      9  C   UNL     1      46.487   6.241  11.336  0.00  0.00    +0.000 A 
ATOM     10  C   UNL     1      45.720   5.227  11.934  0.00  0.00    +0.000 A 
BRANCH   8  11
ATOM     11  O   UNL     1      48.234   7.811  11.498  0.00  0.00    +0.000 OA
ATOM     12  H   UNL     1      48.792   7.412  10.810  0.00  0.00    +0.000 HD
ENDBRANCH   8  11
ENDBRANCH   1   2
BRANCH   1  16
ATOM     13  C   UNL     1      46.468   2.380   7.531  0.00  0.00    +0.000 A 
ATOM     14  C   UNL     1      45.773   1.610   8.467  0.00  0.00    +0.000 A 
ATOM     15  C   UNL     1      44.883   2.220   9.351  0.00  0.00    +0.000 A 
ATOM     16  C   UNL     1      44.697   3.602   9.279  0.00  0.00    +0.000 A 
ATOM     17  N   UNL     1      45.337   4.362   8.354  0.00  0.00    +0.000 NA
ATOM     18  C   UNL     1      46.195   3.741   7.512  0.00  0.00    +0.000 A 
BRANCH  13  19
ATOM     19  C   UNL     1      47.508   1.787   6.624  0.00  0.00    +0.000 C 
BRANCH  19  20
ATOM     20  N   UNL     1      48.661   2.661   6.457  0.00  0.00    +0.000 NA
ATOM     21  H   UNL     1      49.434   2.302   7.014  0.00  0.00    +0.000 HD
ATOM     22  H   UNL     1      48.438   3.581   6.837  0.00  0.00    +0.000 HD
ENDBRANCH  19  20
ENDBRANCH  13  19
ENDBRANCH   1  16
TORSDOF 5
ENDMDL
MODEL 3
REMARK VINA RESULT:    -7.604      2.295      3.308
REMARK INTER + INTRA:          -9.815
REMARK INTER:                  -9.266
REMARK INTRA:                  -0.549
REMARK UNBOUND:                -0.433
REMARK  Name = 
REMARK  5 active torsions:
REMARK  status: ('A' for Active; 'I' for Inactive)
REMARK    1  A    between atoms: N_1  and  C_2
REMARK    2  A    between atoms: C_2  and  C_3
REMARK    3  A    between atoms: C_6  and  C_7
REMARK    4  A    between atoms: C_7  and  C_8
REMARK    5  A    between atoms: C_14  and  O_15
REMARK                            x       y       z     vdW  Elec       q    Type
REMARK                         _______ _______ _______ _____ _____    ______ ____
ROOT
ATOM      1  C   UNL     1      43.336   5.698  11.325  0.00  0.00    +0.000 C 
ENDROOT
BRANCH   1   2
ATOM      2  C   UNL     1      43.647   4.332  10.829  0.00  0.00    +0.000 A 
ATOM      3  N   UNL     1      43.035   3.268  11.376  0.00  0.00    +0.000 NA
ATOM      4  O   UNL     1      43.518   2.162  10.695  0.00  0.00    +0.000 OA
ATOM      5  C   UNL     1      44.404   2.563   9.746  0.00  0.00    +0.000 A 
ATOM      6  C   UNL     1      45.110   1.735   8.876  0.00  0.00    +0.000 A 
ATOM      7  C   UNL     1      45.966   2.374   7.971  0.00  0.00    +0.000 A 
ATOM      8  C   UNL     1      46.077   3.765   7.959  0.00  0.00    +0.000 A 
ATOM      9  C   UNL     1      45.358   4.574   8.847  0.00  0.00    +0.000 A 
ATOM     10  C   UNL     1      44.507   3.942   9.769  0.00  0.00    +0.000 A 
BRANCH   8  11
ATOM     11  O   UNL     1      46.899   4.401   7.075  0.00  0.00    +0.000 OA
ATOM     12  H   UNL     1      47.261   3.746   6.457  0.00  0.00    +0.000 HD
ENDBRANCH   8  11
ENDBRANCH   1   2
BRANCH   1  16
ATOM     13  C   UNL     1      46.999   7.064  13.059  0.00  0.00    +0.000 A 
ATOM     14  C   UNL     1      46.332   7.897  12.157  0.00  0.00    +0.000 A 
ATOM     15  C   UNL     1      45.112   7.499  11.610  0.00  0.00    +0.000 A 
ATOM     16  C   UNL     1      44.572   6.266  11.982  0.00  0.00    +0.000 A 
ATOM     17  N   UNL     1      45.189   5.460  12.883  0.00  0.00    +0.000 NA
ATOM     18  C   UNL     1      46.372   5.872  13.394  0.00  0.00    +0.000 A 
BRANCH  13  19
ATOM     19  C   UNL     1      48.359   7.402  13.600  0.00  0.00    +0.000 C 
BRANCH  19  20
ATOM     20  N   UNL     1      49.418   6.648  12.944  0.00  0.00    +0.000 NA
ATOM     21  H   UNL     1      49.466   5.716  13.351  0.00  0.00    +0.000 HD
ATOM     22  H   UNL     1      50.315   7.093  13.141  0.00  0.00    +0.000 HD
ENDBRANCH  19  20
ENDBRANCH  13  19
ENDBRANCH   1  16
TORSDOF 5
ENDMDL
MODEL 4
REMARK VINA RESULT:    -7.305      3.160      6.193
REMARK INTER + INTRA:          -9.446
REMARK INTER:                  -9.101
REMARK INTRA:                  -0.346
REMARK UNBOUND:                -0.433
REMARK  Name = 
REMARK  5 active torsions:
REMARK  status: ('A' for Active; 'I' for Inactive)
REMARK    1  A    between atoms: N_1  and  C_2
REMARK    2  A    between atoms: C_2  and  C_3
REMARK    3  A    between atoms: C_6  and  C_7
REMARK    4  A    between atoms: C_7  and  C_8
REMARK    5  A    between atoms: C_14  and  O_15
REMARK                            x       y       z     vdW  Elec       q    Type
REMARK                         _______ _______ _______ _____ _____    ______ ____
ROOT
ATOM      1  C   UNL     1      44.157   2.671  10.347  0.00  0.00    +0.000 C 
ENDROOT
BRANCH   1   2
ATOM      2  C   UNL     1      43.975   4.060  10.842  0.00  0.00    +0.000 A 
ATOM      3  N   UNL     1      42.827   4.712  10.592  0.00  0.00    +0.000 NA
ATOM      4  O   UNL     1      42.959   5.955  11.189  0.00  0.00    +0.000 OA
ATOM      5  C   UNL     1      44.171   6.041  11.797  0.00  0.00    +0.000 A 
ATOM      6  C   UNL     1      44.671   7.144  12.485  0.00  0.00    +0.000 A 
ATOM      7  C   UNL     1      45.948   7.002  13.040  0.00  0.00    +0.000 A 
ATOM      8  C   UNL     1      46.653   5.805  12.902  0.00  0.00    +0.000 A 
ATOM      9  C   UNL     1      46.128   4.712  12.202  0.00  0.00    +0.000 A 
ATOM     10  C   UNL     1      44.853   4.850  11.628  0.00  0.00    +0.000 A 
BRANCH   8  11
ATOM     11  O   UNL     1      47.894   5.649  13.446  0.00  0.00    +0.000 OA
ATOM     12  H   UNL     1      48.292   6.525  13.575  0.00  0.00    +0.000 HD
ENDBRANCH   8  11
ENDBRANCH   1   2
BRANCH   1  16
ATOM     13  C   UNL     1      46.587   2.531   6.830  0.00  0.00    +0.000 A 
ATOM     14  C   UNL     1      45.946   3.729   7.155  0.00  0.00    +0.000 A 
ATOM     15  C   UNL     1      45.184   3.819   8.320  0.00  0.00    +0.000 A 
ATOM     16  C   UNL     1      45.080   2.701   9.150  0.00  0.00    +0.000 A 
ATOM     17  N   UNL     1      45.724   1.540   8.869  0.00  0.00    +0.000 NA
ATOM     18  C   UNL     1      46.453   1.483   7.731  0.00  0.00    +0.000 A 
BRANCH  13  19
ATOM     19  C   UNL     1      47.338   2.351   5.541  0.00  0.00    +0.000 C 
BRANCH  19  20
ATOM     20  N   UNL     1      48.666   1.790   5.747  0.00  0.00    +0.000 NA
ATOM     21  H   UNL     1      49.124   2.289   6.507  0.00  0.00    +0.000 HD
ATOM     22  H   UNL     1      49.231   1.956   4.915  0.00  0.00    +0.000 HD
ENDBRANCH  19  20
ENDBRANCH  13  19
ENDBRANCH   1  16
TORSDOF 5
ENDMDL
MODEL 5
REMARK VINA RESULT:    -6.160      4.064      6.054
REMARK INTER + INTRA:          -8.033
REMARK INTER:                  -8.188
REMARK INTRA:                   0.155
REMARK UNBOUND:                -0.433
REMARK  Name = 
REMARK  5 active torsions:
REMARK  status: ('A' for Active; 'I' for Inactive)
REMARK    1  A    between atoms: N_1  and  C_2
REMARK    2  A    between atoms: C_2  and  C_3
REMARK    3  A    between atoms: C_6  and  C_7
REMARK    4  A    between atoms: C_7  and  C_8
REMARK    5  A    between atoms: C_14  and  O_15
REMARK                            x       y       z     vdW  Elec       q    Type
REMARK                         _______ _______ _______ _____ _____    ______ ____
ROOT
ATOM      1  C   UNL     1      47.354   5.783  14.318  0.00  0.00    +0.000 C 
ENDROOT
BRANCH   1   2
ATOM      2  C   UNL     1      46.560   4.733  13.630  0.00  0.00    +0.000 A 
ATOM      3  N   UNL     1      47.005   3.465  13.611  0.00  0.00    +0.000 NA
ATOM      4  O   UNL     1      46.049   2.739  12.920  0.00  0.00    +0.000 OA
ATOM      5  C   UNL     1      45.038   3.562  12.539  0.00  0.00    +0.000 A 
ATOM      6  C   UNL     1      43.908   3.198  11.810  0.00  0.00    +0.000 A 
ATOM      7  C   UNL     1      42.991   4.220  11.538  0.00  0.00    +0.000 A 
ATOM      8  C   UNL     1      43.218   5.519  11.993  0.00  0.00    +0.000 A 
ATOM      9  C   UNL     1      44.365   5.859  12.721  0.00  0.00    +0.000 A 
ATOM     10  C   UNL     1      45.300   4.845  12.987  0.00  0.00    +0.000 A 
BRANCH   8  11
ATOM     11  O   UNL     1      42.328   6.522  11.744  0.00  0.00    +0.000 OA
ATOM     12  H   UNL     1      41.460   6.129  11.555  0.00  0.00    +0.000 HD
ENDBRANCH   8  11
ENDBRANCH   1   2
BRANCH   1  16
ATOM     13  C   UNL     1      48.841   4.468  18.107  0.00  0.00    +0.000 A 
ATOM     14  C   UNL     1      47.655   3.911  17.621  0.00  0.00    +0.000 A 
ATOM     15  C   UNL     1      47.169   4.285  16.368  0.00  0.00    +0.000 A 
ATOM     16  C   UNL     1      47.887   5.215  15.613  0.00  0.00    +0.000 A 
ATOM     17  N   UNL     1      49.058   5.741  16.054  0.00  0.00    +0.000 NA
ATOM     18  C   UNL     1      49.502   5.360  17.274  0.00  0.00    +0.000 A 
BRANCH  13  19
ATOM     19  C   UNL     1      49.354   4.173  19.487  0.00  0.00    +0.000 C 
BRANCH  19  20
ATOM     20  N   UNL     1      48.303   3.705  20.380  0.00  0.00    +0.000 NA
ATOM     21  H   UNL     1      48.455   2.720  20.586  0.00  0.00    +0.000 HD
ATOM     22  H   UNL     1      47.407   3.761  19.898  0.00  0.00    +0.000 HD
ENDBRANCH  19  20
ENDBRANCH  13  19
ENDBRANCH   1  16
TORSDOF 5
ENDMDL
MODEL 6
REMARK VINA RESULT:    -6.067      4.039      6.232
REMARK INTER + INTRA:          -7.919
REMARK INTER:                  -7.420
REMARK INTRA:                  -0.499
REMARK UNBOUND:                -0.433
REMARK  Name = 
REMARK  5 active torsions:
REMARK  status: ('A' for Active; 'I' for Inactive)
REMARK    1  A    between atoms: N_1  and  C_2
REMARK    2  A    between atoms: C_2  and  C_3
REMARK    3  A    between atoms: C_6  and  C_7
REMARK    4  A    between atoms: C_7  and  C_8
REMARK    5  A    between atoms: C_14  and  O_15
REMARK                            x       y       z     vdW  Elec       q    Type
REMARK                         _______ _______ _______ _____ _____    ______ ____
ROOT
ATOM      1  C   UNL     1      47.244   5.803  14.432  0.00  0.00    +0.000 C 
ENDROOT
BRANCH   1   2
ATOM      2  C   UNL     1      46.498   4.751  13.695  0.00  0.00    +0.000 A 
ATOM      3  N   UNL     1      46.976   3.496  13.658  0.00  0.00    +0.000 NA
ATOM      4  O   UNL     1      46.060   2.762  12.923  0.00  0.00    +0.000 OA
ATOM      5  C   UNL     1      45.039   3.570  12.532  0.00  0.00    +0.000 A 
ATOM      6  C   UNL     1      43.941   3.195  11.761  0.00  0.00    +0.000 A 
ATOM      7  C   UNL     1      43.005   4.200  11.487  0.00  0.00    +0.000 A 
ATOM      8  C   UNL     1      43.186   5.493  11.980  0.00  0.00    +0.000 A 
ATOM      9  C   UNL     1      44.301   5.843  12.750  0.00  0.00    +0.000 A 
ATOM     10  C   UNL     1      45.254   4.847  13.018  0.00  0.00    +0.000 A 
BRANCH   8  11
ATOM     11  O   UNL     1      42.277   6.479  11.729  0.00  0.00    +0.000 OA
ATOM     12  H   UNL     1      42.324   7.137  12.442  0.00  0.00    +0.000 HD
ENDBRANCH   8  11
ENDBRANCH   1   2
BRANCH   1  16
ATOM     13  C   UNL     1      48.490   9.028  11.915  0.00  0.00    +0.000 A 
ATOM     14  C   UNL     1      49.069   7.770  11.729  0.00  0.00    +0.000 A 
ATOM     15  C   UNL     1      48.651   6.688  12.503  0.00  0.00    +0.000 A 
ATOM     16  C   UNL     1      47.648   6.883  13.455  0.00  0.00    +0.000 A 
ATOM     17  N   UNL     1      47.050   8.090  13.625  0.00  0.00    +0.000 NA
ATOM     18  C   UNL     1      47.479   9.120  12.861  0.00  0.00    +0.000 A 
BRANCH  13  19
ATOM     19  C   UNL     1      48.972  10.245  11.177  0.00  0.00    +0.000 C 
BRANCH  19  20
ATOM     20  N   UNL     1      47.908  11.212  10.950  0.00  0.00    +0.000 NA
ATOM     21  H   UNL     1      47.024  10.717  10.848  0.00  0.00    +0.000 HD
ATOM     22  H   UNL     1      48.073  11.687  10.062  0.00  0.00    +0.000 HD
ENDBRANCH  19  20
ENDBRANCH  13  19
ENDBRANCH   1  16
TORSDOF 5
ENDMDL
MODEL 7
REMARK VINA RESULT:    -5.879      4.935      8.564
REMARK INTER + INTRA:          -7.687
REMARK INTER:                  -7.221
REMARK INTRA:                  -0.465
REMARK UNBOUND:                -0.433
REMARK  Name = 
REMARK  5 active torsions:
REMARK  status: ('A' for Active; 'I' for Inactive)
REMARK    1  A    between atoms: N_1  and  C_2
REMARK    2  A    between atoms: C_2  and  C_3
REMARK    3  A    between atoms: C_6  and  C_7
REMARK    4  A    between atoms: C_7  and  C_8
REMARK    5  A    between atoms: C_14  and  O_15
REMARK                            x       y       z     vdW  Elec       q    Type
REMARK                         _______ _______ _______ _____ _____    ______ ____
ROOT
ATOM      1  C   UNL     1      47.166   3.887  16.470  0.00  0.00    +0.000 C 
ENDROOT
BRANCH   1   2
ATOM      2  C   UNL     1      48.465   3.178  16.597  0.00  0.00    +0.000 A 
ATOM      3  N   UNL     1      48.694   2.069  15.873  0.00  0.00    +0.000 NA
ATOM      4  O   UNL     1      49.978   1.663  16.198  0.00  0.00    +0.000 OA
ATOM      5  C   UNL     1      50.514   2.525  17.102  0.00  0.00    +0.000 A 
ATOM      6  C   UNL     1      51.779   2.434  17.677  0.00  0.00    +0.000 A 
ATOM      7  C   UNL     1      52.122   3.446  18.582  0.00  0.00    +0.000 A 
ATOM      8  C   UNL     1      51.228   4.481  18.863  0.00  0.00    +0.000 A 
ATOM      9  C   UNL     1      49.961   4.546  18.272  0.00  0.00    +0.000 A 
ATOM     10  C   UNL     1      49.600   3.527  17.375  0.00  0.00    +0.000 A 
BRANCH   8  11
ATOM     11  O   UNL     1      51.554   5.479  19.734  0.00  0.00    +0.000 OA
ATOM     12  H   UNL     1      50.773   5.694  20.269  0.00  0.00    +0.000 HD
ENDBRANCH   8  11
ENDBRANCH   1   2
BRANCH   1  16
ATOM     13  C   UNL     1      46.647   5.731  12.646  0.00  0.00    +0.000 A 
ATOM     14  C   UNL     1      47.629   6.232  13.504  0.00  0.00    +0.000 A 
ATOM     15  C   UNL     1      47.853   5.624  14.739  0.00  0.00    +0.000 A 
ATOM     16  C   UNL     1      47.089   4.511  15.095  0.00  0.00    +0.000 A 
ATOM     17  N   UNL     1      46.155   3.989  14.260  0.00  0.00    +0.000 NA
ATOM     18  C   UNL     1      45.959   4.603  13.070  0.00  0.00    +0.000 A 
BRANCH  13  19
ATOM     19  C   UNL     1      46.300   6.408  11.350  0.00  0.00    +0.000 C 
BRANCH  19  20
ATOM     20  N   UNL     1      45.084   5.871  10.754  0.00  0.00    +0.000 NA
ATOM     21  H   UNL     1      45.283   4.953  10.360  0.00  0.00    +0.000 HD
ATOM     22  H   UNL     1      44.807   6.464   9.972  0.00  0.00    +0.000 HD
ENDBRANCH  19  20
ENDBRANCH  13  19
ENDBRANCH   1  16
TORSDOF 5
ENDMDL
MODEL 8
REMARK VINA RESULT:    -5.843      4.441      6.423
REMARK INTER + INTRA:          -7.643
REMARK INTER:                  -7.521
REMARK INTRA:                  -0.121
REMARK UNBOUND:                -0.433
REMARK  Name = 
REMARK  5 active torsions:
REMARK  status: ('A' for Active; 'I' for Inactive)
REMARK    1  A    between atoms: N_1  and  C_2
REMARK    2  A    between atoms: C_2  and  C_3
REMARK    3  A    between atoms: C_6  and  C_7
REMARK    4  A    between atoms: C_7  and  C_8
REMARK    5  A    between atoms: C_14  and  O_15
REMARK                            x       y       z     vdW  Elec       q    Type
REMARK                         _______ _______ _______ _____ _____    ______ ____
ROOT
ATOM      1  C   UNL     1      46.850   4.073  16.143  0.00  0.00    +0.000 C 
ENDROOT
BRANCH   1   2
ATOM      2  C   UNL     1      47.178   4.901  14.953  0.00  0.00    +0.000 A 
ATOM      3  N   UNL     1      48.352   5.552  14.897  0.00  0.00    +0.000 NA
ATOM      4  O   UNL     1      48.363   6.208  13.677  0.00  0.00    +0.000 OA
ATOM      5  C   UNL     1      47.211   5.944  13.007  0.00  0.00    +0.000 A 
ATOM      6  C   UNL     1      46.853   6.440  11.756  0.00  0.00    +0.000 A 
ATOM      7  C   UNL     1      45.614   6.023  11.255  0.00  0.00    +0.000 A 
ATOM      8  C   UNL     1      44.808   5.151  11.989  0.00  0.00    +0.000 A 
ATOM      9  C   UNL     1      45.191   4.670  13.247  0.00  0.00    +0.000 A 
ATOM     10  C   UNL     1      46.426   5.094  13.765  0.00  0.00    +0.000 A 
BRANCH   8  11
ATOM     11  O   UNL     1      43.603   4.729  11.509  0.00  0.00    +0.000 OA
ATOM     12  H   UNL     1      42.897   5.221  11.959  0.00  0.00    +0.000 HD
ENDBRANCH   8  11
ENDBRANCH   1   2
BRANCH   1  16
ATOM     13  C   UNL     1      50.585   2.365  17.334  0.00  0.00    +0.000 A 
ATOM     14  C   UNL     1      50.121   3.498  18.006  0.00  0.00    +0.000 A 
ATOM     15  C   UNL     1      48.885   4.051  17.672  0.00  0.00    +0.000 A 
ATOM     16  C   UNL     1      48.125   3.452  16.665  0.00  0.00    +0.000 A 
ATOM     17  N   UNL     1      48.544   2.331  16.025  0.00  0.00    +0.000 NA
ATOM     18  C   UNL     1      49.748   1.820  16.371  0.00  0.00    +0.000 A 
BRANCH  13  19
ATOM     19  C   UNL     1      51.950   1.790  17.588  0.00  0.00    +0.000 C 
BRANCH  19  20
ATOM     20  N   UNL     1      51.890   0.424  18.091  0.00  0.00    +0.000 NA
ATOM     21  H   UNL     1      51.769   0.447  19.102  0.00  0.00    +0.000 HD
ATOM     22  H   UNL     1      52.785  -0.033  17.921  0.00  0.00    +0.000 HD
ENDBRANCH  19  20
ENDBRANCH  13  19
ENDBRANCH   1  16
TORSDOF 5
ENDMDL
MODEL 9
REMARK VINA RESULT:    -5.584      3.693      5.365
REMARK INTER + INTRA:          -7.323
REMARK INTER:                  -6.835
REMARK INTRA:                  -0.487
REMARK UNBOUND:                -0.433
REMARK  Name = 
REMARK  5 active torsions:
REMARK  status: ('A' for Active; 'I' for Inactive)
REMARK    1  A    between atoms: N_1  and  C_2
REMARK    2  A    between atoms: C_2  and  C_3
REMARK    3  A    between atoms: C_6  and  C_7
REMARK    4  A    between atoms: C_7  and  C_8
REMARK    5  A    between atoms: C_14  and  O_15
REMARK                            x       y       z     vdW  Elec       q    Type
REMARK                         _______ _______ _______ _____ _____    ______ ____
ROOT
ATOM      1  C   UNL     1      45.830   7.522  12.876  0.00  0.00    +0.000 C 
ENDROOT
BRANCH   1   2
ATOM      2  C   UNL     1      45.677   6.044  12.836  0.00  0.00    +0.000 A 
ATOM      3  N   UNL     1      46.032   5.308  13.903  0.00  0.00    +0.000 NA
ATOM      4  O   UNL     1      45.757   3.993  13.564  0.00  0.00    +0.000 OA
ATOM      5  C   UNL     1      45.234   3.945  12.310  0.00  0.00    +0.000 A 
ATOM      6  C   UNL     1      44.852   2.798  11.620  0.00  0.00    +0.000 A 
ATOM      7  C   UNL     1      44.329   2.992  10.336  0.00  0.00    +0.000 A 
ATOM      8  C   UNL     1      44.202   4.278   9.808  0.00  0.00    +0.000 A 
ATOM      9  C   UNL     1      44.598   5.415  10.523  0.00  0.00    +0.000 A 
ATOM     10  C   UNL     1      45.138   5.230  11.806  0.00  0.00    +0.000 A 
BRANCH   8  11
ATOM     11  O   UNL     1      43.684   4.483   8.563  0.00  0.00    +0.000 OA
ATOM     12  H   UNL     1      43.877   3.707   8.012  0.00  0.00    +0.000 HD
ENDBRANCH   8  11
ENDBRANCH   1   2
BRANCH   1  16
ATOM     13  C   UNL     1      50.042   8.263  12.908  0.00  0.00    +0.000 A 
ATOM     14  C   UNL     1      49.458   7.758  11.744  0.00  0.00    +0.000 A 
ATOM     15  C   UNL     1      48.080   7.549  11.687  0.00  0.00    +0.000 A 
ATOM     16  C   UNL     1      47.301   7.857  12.804  0.00  0.00    +0.000 A 
ATOM     17  N   UNL     1      47.846   8.381  13.931  0.00  0.00    +0.000 NA
ATOM     18  C   UNL     1      49.185   8.570  13.957  0.00  0.00    +0.000 A 
BRANCH  13  19
ATOM     19  C   UNL     1      51.529   8.414  13.055  0.00  0.00    +0.000 C 
BRANCH  19  20
ATOM     20  N   UNL     1      52.025   7.833  14.295  0.00  0.00    +0.000 NA
ATOM     21  H   UNL     1      52.822   8.375  14.622  0.00  0.00    +0.000 HD
ATOM     22  H   UNL     1      52.375   6.895  14.107  0.00  0.00    +0.000 HD
ENDBRANCH  19  20
ENDBRANCH  13  19
ENDBRANCH   1  16
TORSDOF 5
ENDMDL
