MODEL 1
REMARK VINA RESULT:    -8.082      0.000      0.000
REMARK INTER + INTRA:         -12.976
REMARK INTER:                 -11.862
REMARK INTRA:                  -1.114
REMARK UNBOUND:                -1.114
REMARK  Name = 
REMARK  12 active torsions:
REMARK  status: ('A' for Active; 'I' for Inactive)
REMARK    1  A    between atoms: C_1  and  O_2
REMARK    2  A    between atoms: O_2  and  C_3
REMARK    3  A    between atoms: C_6  and  C_7
REMARK    4  A    between atoms: C_11  and  C_12
REMARK    5  A    between atoms: C_12  and  C_13
REMARK    6  A    between atoms: C_12  and  C_14
REMARK    7  A    between atoms: C_12  and  C_15
REMARK    8  A    between atoms: C_15  and  N_16
REMARK    9  A    between atoms: N_16  and  C_17
REMARK   10  A    between atoms: C_20  and  C_21
REMARK   11  A    between atoms: C_27  and  O_28
REMARK   12  A    between atoms: O_28  and  C_29
REMARK                            x       y       z     vdW  Elec       q    Type
REMARK                         _______ _______ _______ _____ _____    ______ ____
ROOT
ATOM      1  C   UNL     1      43.862   4.840  12.022  0.00  0.00    +0.000 C 
ATOM      2  C   UNL     1      43.080   4.746  13.366  0.00  0.00    +0.000 C 
ATOM      3  C   UNL     1      43.007   5.671  11.040  0.00  0.00    +0.000 C 
ENDROOT
BRANCH   1   8
ATOM      4  C   UNL     1      47.129   5.769  13.884  0.00  0.00    +0.000 A 
ATOM      5  C   UNL     1      47.851   6.389  12.856  0.00  0.00    +0.000 A 
ATOM      6  C   UNL     1      47.288   6.589  11.598  0.00  0.00    +0.000 A 
ATOM      7  C   UNL     1      46.014   6.107  11.315  0.00  0.00    +0.000 A 
ATOM      8  C   UNL     1      45.226   5.509  12.306  0.00  0.00    +0.000 A 
ATOM      9  C   UNL     1      45.787   5.423  13.594  0.00  0.00    +0.000 A 
BRANCH   4  13
ATOM     10  C   UNL     1      48.984   4.394  17.462  0.00  0.00    +0.000 A 
ATOM     11  C   UNL     1      48.067   3.581  16.841  0.00  0.00    +0.000 A 
ATOM     12  C   UNL     1      47.461   4.068  15.687  0.00  0.00    +0.000 A 
ATOM     13  C   UNL     1      47.763   5.347  15.162  0.00  0.00    +0.000 A 
ATOM     14  C   UNL     1      48.718   6.074  15.891  0.00  0.00    +0.000 A 
ATOM     15  N   UNL     1      49.322   5.609  17.008  0.00  0.00    +0.000 NA
BRANCH  10  17
ATOM     16  C   UNL     1      50.975   4.239  18.619  0.00  0.00    +0.000 C 
ATOM     17  O   UNL     1      49.582   3.928  18.609  0.00  0.00    +0.000 OA
ENDBRANCH  10  17
BRANCH  14  18
ATOM     18  O   UNL     1      49.086   7.344  15.493  0.00  0.00    +0.000 OA
ATOM     19  C   UNL     1      50.494   7.470  15.265  0.00  0.00    +0.000 C 
ENDBRANCH  14  18
ENDBRANCH   4  13
ENDBRANCH   1   8
BRANCH   1  20
ATOM     20  C   UNL     1      43.952   3.379  11.490  0.00  0.00    +0.000 C 
BRANCH  20  21
ATOM     21  N   UNL     1      43.585   3.252  10.071  0.00  0.00    +0.000 N 
ATOM     22  H   UNL     1      42.944   3.975   9.750  0.00  0.00    +0.000 HD
BRANCH  21  23
ATOM     23  C   UNL     1      44.637   3.015   9.175  0.00  0.00    +0.000 A 
ATOM     24  C   UNL     1      45.182   1.742   8.993  0.00  0.00    +0.000 A 
ATOM     25  C   UNL     1      46.161   1.523   8.026  0.00  0.00    +0.000 A 
ATOM     26  C   UNL     1      46.568   2.598   7.252  0.00  0.00    +0.000 A 
ATOM     27  N   UNL     1      46.074   3.859   7.382  0.00  0.00    +0.000 NA
ATOM     28  C   UNL     1      45.114   4.022   8.329  0.00  0.00    +0.000 A 
BRANCH  26  29
ATOM     29  C   UNL     1      47.591   2.384   6.186  0.00  0.00    +0.000 C 
ATOM     30  N   UNL     1      47.455   3.169   5.077  0.00  0.00    +0.000 N 
ATOM     31  O   UNL     1      48.486   1.551   6.281  0.00  0.00    +0.000 OA
ATOM     32  H   UNL     1      46.684   3.819   5.007  0.00  0.00    +0.000 HD
ATOM     33  H   UNL     1      48.093   3.047   4.297  0.00  0.00    +0.000 HD
ENDBRANCH  26  29
ENDBRANCH  21  23
ENDBRANCH  20  21
ENDBRANCH   1  20
TORSDOF 8
ENDMDL
MODEL 2
REMARK VINA RESULT:    -7.626      2.421      8.162
REMARK INTER + INTRA:         -12.307
REMARK INTER:                 -10.533
REMARK INTRA:                  -1.774
REMARK UNBOUND:                -1.114
REMARK  Name = 
REMARK  12 active torsions:
REMARK  status: ('A' for Active; 'I' for Inactive)
REMARK    1  A    between atoms: C_1  and  O_2
REMARK    2  A    between atoms: O_2  and  C_3
REMARK    3  A    between atoms: C_6  and  C_7
REMARK    4  A    between atoms: C_11  and  C_12
REMARK    5  A    between atoms: C_12  and  C_13
REMARK    6  A    between atoms: C_12  and  C_14
REMARK    7  A    between atoms: C_12  and  C_15
REMARK    8  A    between atoms: C_15  and  N_16
REMARK    9  A    between atoms: N_16  and  C_17
REMARK   10  A    between atoms: C_20  and  C_21
REMARK   11  A    between atoms: C_27  and  O_28
REMARK   12  A    between atoms: O_28  and  C_29
REMARK                            x       y       z     vdW  Elec       q    Type
REMARK                         _______ _______ _______ _____ _____    ______ ____
ROOT
ATOM      1  C   UNL     1      49.085   8.659  12.386  0.00  0.00    +0.000 C 
ATOM      2  C   UNL     1      49.864   7.470  11.747  0.00  0.00    +0.000 C 
ATOM      3  C   UNL     1      49.580   9.958  11.713  0.00  0.00    +0.000 C 
ENDROOT
BRANCH   1   8
ATOM      4  C   UNL     1      45.812   6.886  11.315  0.00  0.00    +0.000 A 
ATOM      5  C   UNL     1      44.856   7.705  11.929  0.00  0.00    +0.000 A 
ATOM      6  C   UNL     1      45.227   8.859  12.615  0.00  0.00    +0.000 A 
ATOM      7  C   UNL     1      46.572   9.183  12.765  0.00  0.00    +0.000 A 
ATOM      8  C   UNL     1      47.576   8.427  12.149  0.00  0.00    +0.000 A 
ATOM      9  C   UNL     1      47.155   7.330  11.372  0.00  0.00    +0.000 A 
BRANCH   4  13
ATOM     10  C   UNL     1      45.025   3.047   9.648  0.00  0.00    +0.000 A 
ATOM     11  C   UNL     1      45.463   4.049   8.817  0.00  0.00    +0.000 A 
ATOM     12  C   UNL     1      45.688   5.298   9.386  0.00  0.00    +0.000 A 
ATOM     13  C   UNL     1      45.479   5.544  10.764  0.00  0.00    +0.000 A 
ATOM     14  C   UNL     1      45.034   4.435  11.501  0.00  0.00    +0.000 A 
ATOM     15  N   UNL     1      44.821   3.213  10.963  0.00  0.00    +0.000 NA
BRANCH  10  17
ATOM     16  C   UNL     1      45.904   1.383   8.312  0.00  0.00    +0.000 C 
ATOM     17  O   UNL     1      44.789   1.811   9.094  0.00  0.00    +0.000 OA
ENDBRANCH  10  17
BRANCH  14  18
ATOM     18  O   UNL     1      44.776   4.549  12.853  0.00  0.00    +0.000 OA
ATOM     19  C   UNL     1      43.377   4.526  13.157  0.00  0.00    +0.000 C 
ENDBRANCH  14  18
ENDBRANCH   4  13
ENDBRANCH   1   8
BRANCH   1  20
ATOM     20  C   UNL     1      49.513   8.679  13.883  0.00  0.00    +0.000 C 
BRANCH  20  21
ATOM     21  N   UNL     1      50.163   7.433  14.319  0.00  0.00    +0.000 N 
ATOM     22  H   UNL     1      51.115   7.565  14.652  0.00  0.00    +0.000 HD
BRANCH  21  23
ATOM     23  C   UNL     1      49.405   6.591  15.145  0.00  0.00    +0.000 A 
ATOM     24  C   UNL     1      48.245   5.958  14.694  0.00  0.00    +0.000 A 
ATOM     25  C   UNL     1      47.568   5.055  15.510  0.00  0.00    +0.000 A 
ATOM     26  C   UNL     1      48.083   4.799  16.771  0.00  0.00    +0.000 A 
ATOM     27  N   UNL     1      49.208   5.383  17.265  0.00  0.00    +0.000 NA
ATOM     28  C   UNL     1      49.840   6.248  16.430  0.00  0.00    +0.000 A 
BRANCH  26  29
ATOM     29  C   UNL     1      47.396   3.809  17.652  0.00  0.00    +0.000 C 
ATOM     30  N   UNL     1      47.946   3.648  18.893  0.00  0.00    +0.000 N 
ATOM     31  O   UNL     1      46.417   3.165  17.293  0.00  0.00    +0.000 OA
ATOM     32  H   UNL     1      48.778   4.162  19.149  0.00  0.00    +0.000 HD
ATOM     33  H   UNL     1      47.553   2.962  19.528  0.00  0.00    +0.000 HD
ENDBRANCH  26  29
ENDBRANCH  21  23
ENDBRANCH  20  21
ENDBRANCH   1  20
TORSDOF 8
ENDMDL
MODEL 3
REMARK VINA RESULT:    -7.625      2.953      3.588
REMARK INTER + INTRA:         -12.306
REMARK INTER:                 -11.253
REMARK INTRA:                  -1.053
REMARK UNBOUND:                -1.114
REMARK  Name = 
REMARK  12 active torsions:
REMARK  status: ('A' for Active; 'I' for Inactive)
REMARK    1  A    between atoms: C_1  and  O_2
REMARK    2  A    between atoms: O_2  and  C_3
REMARK    3  A    between atoms: C_6  and  C_7
REMARK    4  A    between atoms: C_11  and  C_12
REMARK    5  A    between atoms: C_12  and  C_13
REMARK    6  A    between atoms: C_12  and  C_14
REMARK    7  A    between atoms: C_12  and  C_15
REMARK    8  A    between atoms: C_15  and  N_16
REMARK    9  A    between atoms: N_16  and  C_17
REMARK   10  A    between atoms: C_20  and  C_21
REMARK   11  A    between atoms: C_27  and  O_28
REMARK   12  A    between atoms: O_28  and  C_29
REMARK                            x       y       z     vdW  Elec       q    Type
REMARK                         _______ _______ _______ _____ _____    ______ ____
ROOT
ATOM      1  C   UNL     1      44.063   5.148  12.173  0.00  0.00    +0.000 C 
ATOM      2  C   UNL     1      45.241   4.175  12.480  0.00  0.00    +0.000 C 
ATOM      3  C   UNL     1      43.014   4.980  13.294  0.00  0.00    +0.000 C 
ENDROOT
BRANCH   1   8
ATOM      4  C   UNL     1      46.625   8.046  12.366  0.00  0.00    +0.000 A 
ATOM      5  C   UNL     1      45.893   9.084  11.776  0.00  0.00    +0.000 A 
ATOM      6  C   UNL     1      44.569   8.904  11.387  0.00  0.00    +0.000 A 
ATOM      7  C   UNL     1      43.965   7.656  11.512  0.00  0.00    +0.000 A 
ATOM      8  C   UNL     1      44.629   6.585  12.124  0.00  0.00    +0.000 A 
ATOM      9  C   UNL     1      45.928   6.837  12.604  0.00  0.00    +0.000 A 
BRANCH   4  13
ATOM     10  C   UNL     1      50.843   8.383  12.852  0.00  0.00    +0.000 A 
ATOM     11  C   UNL     1      50.354   7.883  11.669  0.00  0.00    +0.000 A 
ATOM     12  C   UNL     1      48.973   7.763  11.550  0.00  0.00    +0.000 A 
ATOM     13  C   UNL     1      48.093   8.134  12.594  0.00  0.00    +0.000 A 
ATOM     14  C   UNL     1      48.722   8.632  13.747  0.00  0.00    +0.000 A 
ATOM     15  N   UNL     1      50.062   8.764  13.873  0.00  0.00    +0.000 NA
BRANCH  10  17
ATOM     16  C   UNL     1      52.617   8.166  14.312  0.00  0.00    +0.000 C 
ATOM     17  O   UNL     1      52.206   8.496  12.985  0.00  0.00    +0.000 OA
ENDBRANCH  10  17
BRANCH  14  18
ATOM     18  O   UNL     1      47.975   9.012  14.845  0.00  0.00    +0.000 OA
ATOM     19  C   UNL     1      48.771   9.579  15.891  0.00  0.00    +0.000 C 
ENDBRANCH  14  18
ENDBRANCH   4  13
ENDBRANCH   1   8
BRANCH   1  20
ATOM     20  C   UNL     1      43.446   4.645  10.834  0.00  0.00    +0.000 C 
BRANCH  20  21
ATOM     21  N   UNL     1      44.199   5.079   9.647  0.00  0.00    +0.000 N 
ATOM     22  H   UNL     1      44.750   5.921   9.800  0.00  0.00    +0.000 HD
BRANCH  21  23
ATOM     23  C   UNL     1      44.902   4.082   8.957  0.00  0.00    +0.000 A 
ATOM     24  C   UNL     1      45.864   4.386   7.992  0.00  0.00    +0.000 A 
ATOM     25  C   UNL     1      46.611   3.374   7.393  0.00  0.00    +0.000 A 
ATOM     26  C   UNL     1      46.377   2.067   7.788  0.00  0.00    +0.000 A 
ATOM     27  N   UNL     1      45.454   1.709   8.723  0.00  0.00    +0.000 NA
ATOM     28  C   UNL     1      44.758   2.729   9.286  0.00  0.00    +0.000 A 
BRANCH  26  29
ATOM     29  C   UNL     1      47.187   0.966   7.188  0.00  0.00    +0.000 C 
ATOM     30  N   UNL     1      46.848  -0.296   7.585  0.00  0.00    +0.000 N 
ATOM     31  O   UNL     1      48.107   1.170   6.404  0.00  0.00    +0.000 OA
ATOM     32  H   UNL     1      46.111  -0.433   8.264  0.00  0.00    +0.000 HD
ATOM     33  H   UNL     1      47.384  -1.088   7.246  0.00  0.00    +0.000 HD
ENDBRANCH  26  29
ENDBRANCH  21  23
ENDBRANCH  20  21
ENDBRANCH   1  20
TORSDOF 8
ENDMDL
MODEL 4
REMARK VINA RESULT:    -7.382      1.369      1.955
REMARK INTER + INTRA:         -11.949
REMARK INTER:                 -10.881
REMARK INTRA:                  -1.068
REMARK UNBOUND:                -1.114
REMARK  Name = 
REMARK  12 active torsions:
REMARK  status: ('A' for Active; 'I' for Inactive)
REMARK    1  A    between atoms: C_1  and  O_2
REMARK    2  A    between atoms: O_2  and  C_3
REMARK    3  A    between atoms: C_6  and  C_7
REMARK    4  A    between atoms: C_11  and  C_12
REMARK    5  A    between atoms: C_12  and  C_13
REMARK    6  A    between atoms: C_12  and  C_14
REMARK    7  A    between atoms: C_12  and  C_15
REMARK    8  A    between atoms: C_15  and  N_16
REMARK    9  A    between atoms: N_16  and  C_17
REMARK   10  A    between atoms: C_20  and  C_21
REMARK   11  A    between atoms: C_27  and  O_28
REMARK   12  A    between atoms: O_28  and  C_29
REMARK                            x       y       z     vdW  Elec       q    Type
REMARK                         _______ _______ _______ _____ _____    ______ ____
ROOT
ATOM      1  C   UNL     1      44.164   4.953  12.047  0.00  0.00    +0.000 C 
ATOM      2  C   UNL     1      43.567   4.903  13.486  0.00  0.00    +0.000 C 
ATOM      3  C   UNL     1      43.100   5.582  11.121  0.00  0.00    +0.000 C 
ENDROOT
BRANCH   1   8
ATOM      4  C   UNL     1      47.373   6.598  13.461  0.00  0.00    +0.000 A 
ATOM      5  C   UNL     1      47.991   7.028  12.280  0.00  0.00    +0.000 A 
ATOM      6  C   UNL     1      47.369   6.876  11.043  0.00  0.00    +0.000 A 
ATOM      7  C   UNL     1      46.144   6.222  10.950  0.00  0.00    +0.000 A 
ATOM      8  C   UNL     1      45.457   5.797  12.094  0.00  0.00    +0.000 A 
ATOM      9  C   UNL     1      46.066   6.067  13.334  0.00  0.00    +0.000 A 
BRANCH   4  13
ATOM     10  C   UNL     1      49.322   6.602  17.248  0.00  0.00    +0.000 A 
ATOM     11  C   UNL     1      49.222   7.785  16.557  0.00  0.00    +0.000 A 
ATOM     12  C   UNL     1      48.602   7.747  15.313  0.00  0.00    +0.000 A 
ATOM     13  C   UNL     1      48.090   6.547  14.765  0.00  0.00    +0.000 A 
ATOM     14  C   UNL     1      48.254   5.411  15.574  0.00  0.00    +0.000 A 
ATOM     15  N   UNL     1      48.846   5.435  16.789  0.00  0.00    +0.000 NA
BRANCH  10  17
ATOM     16  C   UNL     1      50.640   7.856  18.667  0.00  0.00    +0.000 C 
ATOM     17  O   UNL     1      49.943   6.625  18.474  0.00  0.00    +0.000 OA
ENDBRANCH  10  17
BRANCH  14  18
ATOM     18  O   UNL     1      47.812   4.174  15.145  0.00  0.00    +0.000 OA
ATOM     19  C   UNL     1      47.621   3.247  16.219  0.00  0.00    +0.000 C 
ENDBRANCH  14  18
ENDBRANCH   4  13
ENDBRANCH   1   8
BRANCH   1  20
ATOM     20  C   UNL     1      44.371   3.467  11.631  0.00  0.00    +0.000 C 
BRANCH  20  21
ATOM     21  N   UNL     1      43.862   3.164  10.284  0.00  0.00    +0.000 N 
ATOM     22  H   UNL     1      43.078   3.749  10.003  0.00  0.00    +0.000 HD
BRANCH  21  23
ATOM     23  C   UNL     1      44.823   3.014   9.275  0.00  0.00    +0.000 A 
ATOM     24  C   UNL     1      45.410   1.780   8.987  0.00  0.00    +0.000 A 
ATOM     25  C   UNL     1      46.291   1.647   7.916  0.00  0.00    +0.000 A 
ATOM     26  C   UNL     1      46.558   2.767   7.145  0.00  0.00    +0.000 A 
ATOM     27  N   UNL     1      46.016   3.994   7.375  0.00  0.00    +0.000 NA
ATOM     28  C   UNL     1      45.155   4.073   8.422  0.00  0.00    +0.000 A 
BRANCH  26  29
ATOM     29  C   UNL     1      47.470   2.644   5.970  0.00  0.00    +0.000 C 
ATOM     30  N   UNL     1      48.784   2.422   6.270  0.00  0.00    +0.000 N 
ATOM     31  O   UNL     1      47.082   2.751   4.812  0.00  0.00    +0.000 OA
ATOM     32  H   UNL     1      49.084   2.378   7.235  0.00  0.00    +0.000 HD
ATOM     33  H   UNL     1      49.466   2.368   5.520  0.00  0.00    +0.000 HD
ENDBRANCH  26  29
ENDBRANCH  21  23
ENDBRANCH  20  21
ENDBRANCH   1  20
TORSDOF 8
ENDMDL
MODEL 5
REMARK VINA RESULT:    -6.915      3.634      8.295
REMARK INTER + INTRA:         -11.263
REMARK INTER:                  -9.517
REMARK INTRA:                  -1.746
REMARK UNBOUND:                -1.114
REMARK  Name = 
REMARK  12 active torsions:
REMARK  status: ('A' for Active; 'I' for Inactive)
REMARK    1  A    between atoms: C_1  and  O_2
REMARK    2  A    between atoms: O_2  and  C_3
REMARK    3  A    between atoms: C_6  and  C_7
REMARK    4  A    between atoms: C_11  and  C_12
REMARK    5  A    between atoms: C_12  and  C_13
REMARK    6  A    between atoms: C_12  and  C_14
REMARK    7  A    between atoms: C_12  and  C_15
REMARK    8  A    between atoms: C_15  and  N_16
REMARK    9  A    between atoms: N_16  and  C_17
REMARK   10  A    between atoms: C_20  and  C_21
REMARK   11  A    between atoms: C_27  and  O_28
REMARK   12  A    between atoms: O_28  and  C_29
REMARK                            x       y       z     vdW  Elec       q    Type
REMARK                         _______ _______ _______ _____ _____    ______ ____
ROOT
ATOM      1  C   UNL     1      49.388   9.151  16.246  0.00  0.00    +0.000 C 
ATOM      2  C   UNL     1      49.822  10.608  15.906  0.00  0.00    +0.000 C 
ATOM      3  C   UNL     1      47.996   9.220  16.912  0.00  0.00    +0.000 C 
ENDROOT
BRANCH   1   8
ATOM      4  C   UNL     1      48.059   6.822  13.450  0.00  0.00    +0.000 A 
ATOM      5  C   UNL     1      49.002   7.057  12.442  0.00  0.00    +0.000 A 
ATOM      6  C   UNL     1      50.101   7.884  12.659  0.00  0.00    +0.000 A 
ATOM      7  C   UNL     1      50.245   8.555  13.870  0.00  0.00    +0.000 A 
ATOM      8  C   UNL     1      49.357   8.340  14.931  0.00  0.00    +0.000 A 
ATOM      9  C   UNL     1      48.321   7.413  14.710  0.00  0.00    +0.000 A 
BRANCH   4  13
ATOM     10  C   UNL     1      44.375   4.893  12.531  0.00  0.00    +0.000 A 
ATOM     11  C   UNL     1      44.532   6.213  12.184  0.00  0.00    +0.000 A 
ATOM     12  C   UNL     1      45.737   6.822  12.519  0.00  0.00    +0.000 A 
ATOM     13  C   UNL     1      46.769   6.126  13.191  0.00  0.00    +0.000 A 
ATOM     14  C   UNL     1      46.482   4.783  13.485  0.00  0.00    +0.000 A 
ATOM     15  N   UNL     1      45.319   4.176  13.157  0.00  0.00    +0.000 NA
BRANCH  10  17
ATOM     16  C   UNL     1      43.379   2.896  11.945  0.00  0.00    +0.000 C 
ATOM     17  O   UNL     1      43.184   4.284  12.215  0.00  0.00    +0.000 OA
ENDBRANCH  10  17
BRANCH  14  18
ATOM     18  O   UNL     1      47.401   3.999  14.155  0.00  0.00    +0.000 OA
ATOM     19  C   UNL     1      47.153   3.931  15.564  0.00  0.00    +0.000 C 
ENDBRANCH  14  18
ENDBRANCH   4  13
ENDBRANCH   1   8
BRANCH   1  20
ATOM     20  C   UNL     1      50.418   8.644  17.298  0.00  0.00    +0.000 C 
BRANCH  20  21
ATOM     21  N   UNL     1      49.823   7.769  18.320  0.00  0.00    +0.000 N 
ATOM     22  H   UNL     1      48.874   8.029  18.577  0.00  0.00    +0.000 HD
BRANCH  21  23
ATOM     23  C   UNL     1      49.980   6.390  18.126  0.00  0.00    +0.000 A 
ATOM     24  C   UNL     1      49.037   5.465  18.579  0.00  0.00    +0.000 A 
ATOM     25  C   UNL     1      49.176   4.110  18.286  0.00  0.00    +0.000 A 
ATOM     26  C   UNL     1      50.268   3.712  17.529  0.00  0.00    +0.000 A 
ATOM     27  N   UNL     1      51.218   4.566  17.059  0.00  0.00    +0.000 NA
ATOM     28  C   UNL     1      51.034   5.877  17.360  0.00  0.00    +0.000 A 
BRANCH  26  29
ATOM     29  C   UNL     1      50.422   2.272  17.172  0.00  0.00    +0.000 C 
ATOM     30  N   UNL     1      51.321   1.573  17.927  0.00  0.00    +0.000 N 
ATOM     31  O   UNL     1      49.803   1.744  16.255  0.00  0.00    +0.000 OA
ATOM     32  H   UNL     1      51.848   2.043  18.651  0.00  0.00    +0.000 HD
ATOM     33  H   UNL     1      51.505   0.599  17.711  0.00  0.00    +0.000 HD
ENDBRANCH  26  29
ENDBRANCH  21  23
ENDBRANCH  20  21
ENDBRANCH   1  20
TORSDOF 8
ENDMDL
MODEL 6
REMARK VINA RESULT:    -6.909      2.960      5.015
REMARK INTER + INTRA:         -11.255
REMARK INTER:                  -9.561
REMARK INTRA:                  -1.693
REMARK UNBOUND:                -1.114
REMARK  Name = 
REMARK  12 active torsions:
REMARK  status: ('A' for Active; 'I' for Inactive)
REMARK    1  A    between atoms: C_1  and  O_2
REMARK    2  A    between atoms: O_2  and  C_3
REMARK    3  A    between atoms: C_6  and  C_7
REMARK    4  A    between atoms: C_11  and  C_12
REMARK    5  A    between atoms: C_12  and  C_13
REMARK    6  A    between atoms: C_12  and  C_14
REMARK    7  A    between atoms: C_12  and  C_15
REMARK    8  A    between atoms: C_15  and  N_16
REMARK    9  A    between atoms: N_16  and  C_17
REMARK   10  A    between atoms: C_20  and  C_21
REMARK   11  A    between atoms: C_27  and  O_28
REMARK   12  A    between atoms: O_28  and  C_29
REMARK                            x       y       z     vdW  Elec       q    Type
REMARK                         _______ _______ _______ _____ _____    ______ ____
ROOT
ATOM      1  C   UNL     1      48.269   8.477  13.072  0.00  0.00    +0.000 C 
ATOM      2  C   UNL     1      48.980   9.817  12.720  0.00  0.00    +0.000 C 
ATOM      3  C   UNL     1      48.993   7.347  12.307  0.00  0.00    +0.000 C 
ENDROOT
BRANCH   1   8
ATOM      4  C   UNL     1      49.161   6.864  16.479  0.00  0.00    +0.000 A 
ATOM      5  C   UNL     1      48.862   7.916  17.354  0.00  0.00    +0.000 A 
ATOM      6  C   UNL     1      48.307   9.106  16.891  0.00  0.00    +0.000 A 
ATOM      7  C   UNL     1      48.104   9.301  15.528  0.00  0.00    +0.000 A 
ATOM      8  C   UNL     1      48.349   8.278  14.603  0.00  0.00    +0.000 A 
ATOM      9  C   UNL     1      48.806   7.052  15.121  0.00  0.00    +0.000 A 
BRANCH   4  13
ATOM     10  C   UNL     1      51.508   3.567  17.803  0.00  0.00    +0.000 A 
ATOM     11  C   UNL     1      52.149   4.719  17.417  0.00  0.00    +0.000 A 
ATOM     12  C   UNL     1      51.357   5.770  16.968  0.00  0.00    +0.000 A 
ATOM     13  C   UNL     1      49.946   5.673  16.901  0.00  0.00    +0.000 A 
ATOM     14  C   UNL     1      49.419   4.443  17.327  0.00  0.00    +0.000 A 
ATOM     15  N   UNL     1      50.176   3.417  17.776  0.00  0.00    +0.000 NA
BRANCH  10  17
ATOM     16  C   UNL     1      51.905   1.303  17.591  0.00  0.00    +0.000 C 
ATOM     17  O   UNL     1      52.282   2.518  18.239  0.00  0.00    +0.000 OA
ENDBRANCH  10  17
BRANCH  14  18
ATOM     18  O   UNL     1      48.057   4.215  17.294  0.00  0.00    +0.000 OA
ATOM     19  C   UNL     1      47.642   3.484  16.135  0.00  0.00    +0.000 C 
ENDBRANCH  14  18
ENDBRANCH   4  13
ENDBRANCH   1   8
BRANCH   1  20
ATOM     20  C   UNL     1      46.823   8.612  12.509  0.00  0.00    +0.000 C 
BRANCH  20  21
ATOM     21  N   UNL     1      45.829   7.836  13.266  0.00  0.00    +0.000 N 
ATOM     22  H   UNL     1      45.035   8.388  13.583  0.00  0.00    +0.000 HD
BRANCH  21  23
ATOM     23  C   UNL     1      45.453   6.602  12.717  0.00  0.00    +0.000 A 
ATOM     24  C   UNL     1      45.820   5.388  13.301  0.00  0.00    +0.000 A 
ATOM     25  C   UNL     1      45.351   4.182  12.784  0.00  0.00    +0.000 A 
ATOM     26  C   UNL     1      44.509   4.226  11.684  0.00  0.00    +0.000 A 
ATOM     27  N   UNL     1      44.115   5.377  11.073  0.00  0.00    +0.000 NA
ATOM     28  C   UNL     1      44.589   6.526  11.619  0.00  0.00    +0.000 A 
BRANCH  26  29
ATOM     29  C   UNL     1      43.964   2.951  11.131  0.00  0.00    +0.000 C 
ATOM     30  N   UNL     1      44.690   2.395  10.117  0.00  0.00    +0.000 N 
ATOM     31  O   UNL     1      42.928   2.438  11.540  0.00  0.00    +0.000 OA
ATOM     32  H   UNL     1      45.518   2.860   9.771  0.00  0.00    +0.000 HD
ATOM     33  H   UNL     1      44.355   1.548   9.668  0.00  0.00    +0.000 HD
ENDBRANCH  26  29
ENDBRANCH  21  23
ENDBRANCH  20  21
ENDBRANCH   1  20
TORSDOF 8
ENDMDL
MODEL 7
REMARK VINA RESULT:    -6.879      3.839      8.024
REMARK INTER + INTRA:         -11.210
REMARK INTER:                  -9.257
REMARK INTRA:                  -1.954
REMARK UNBOUND:                -1.114
REMARK  Name = 
REMARK  12 active torsions:
REMARK  status: ('A' for Active; 'I' for Inactive)
REMARK    1  A    between atoms: C_1  and  O_2
REMARK    2  A    between atoms: O_2  and  C_3
REMARK    3  A    between atoms: C_6  and  C_7
REMARK    4  A    between atoms: C_11  and  C_12
REMARK    5  A    between atoms: C_12  and  C_13
REMARK    6  A    between atoms: C_12  and  C_14
REMARK    7  A    between atoms: C_12  and  C_15
REMARK    8  A    between atoms: C_15  and  N_16
REMARK    9  A    between atoms: N_16  and  C_17
REMARK   10  A    between atoms: C_20  and  C_21
REMARK   11  A    between atoms: C_27  and  O_28
REMARK   12  A    between atoms: O_28  and  C_29
REMARK                            x       y       z     vdW  Elec       q    Type
REMARK                         _______ _______ _______ _____ _____    ______ ____
ROOT
ATOM      1  C   UNL     1      49.784   9.556  15.619  0.00  0.00    +0.000 C 
ATOM      2  C   UNL     1      50.490  10.911  15.312  0.00  0.00    +0.000 C 
ATOM      3  C   UNL     1      48.475   9.871  16.375  0.00  0.00    +0.000 C 
ENDROOT
BRANCH   1   8
ATOM      4  C   UNL     1      48.115   7.207  13.030  0.00  0.00    +0.000 A 
ATOM      5  C   UNL     1      48.684   7.680  11.841  0.00  0.00    +0.000 A 
ATOM      6  C   UNL     1      49.650   8.681  11.851  0.00  0.00    +0.000 A 
ATOM      7  C   UNL     1      50.019   9.288  13.048  0.00  0.00    +0.000 A 
ATOM      8  C   UNL     1      49.515   8.841  14.275  0.00  0.00    +0.000 A 
ATOM      9  C   UNL     1      48.623   7.752  14.234  0.00  0.00    +0.000 A 
BRANCH   4  13
ATOM     10  C   UNL     1      44.810   4.528  13.233  0.00  0.00    +0.000 A 
ATOM     11  C   UNL     1      46.080   4.017  13.345  0.00  0.00    +0.000 A 
ATOM     12  C   UNL     1      47.139   4.914  13.251  0.00  0.00    +0.000 A 
ATOM     13  C   UNL     1      46.936   6.299  13.047  0.00  0.00    +0.000 A 
ATOM     14  C   UNL     1      45.590   6.690  12.953  0.00  0.00    +0.000 A 
ATOM     15  N   UNL     1      44.550   5.831  13.052  0.00  0.00    +0.000 NA
BRANCH  10  17
ATOM     16  C   UNL     1      43.468   3.082  12.037  0.00  0.00    +0.000 C 
ATOM     17  O   UNL     1      43.756   3.650  13.314  0.00  0.00    +0.000 OA
ENDBRANCH  10  17
BRANCH  14  18
ATOM     18  O   UNL     1      45.258   8.013  12.736  0.00  0.00    +0.000 OA
ATOM     19  C   UNL     1      44.767   8.255  11.412  0.00  0.00    +0.000 C 
ENDBRANCH  14  18
ENDBRANCH   4  13
ENDBRANCH   1   8
BRANCH   1  20
ATOM     20  C   UNL     1      50.744   8.794  16.580  0.00  0.00    +0.000 C 
BRANCH  20  21
ATOM     21  N   UNL     1      50.062   8.224  17.752  0.00  0.00    +0.000 N 
ATOM     22  H   UNL     1      49.397   8.860  18.185  0.00  0.00    +0.000 HD
BRANCH  21  23
ATOM     23  C   UNL     1      49.563   6.922  17.609  0.00  0.00    +0.000 A 
ATOM     24  C   UNL     1      48.254   6.587  17.963  0.00  0.00    +0.000 A 
ATOM     25  C   UNL     1      47.760   5.307  17.719  0.00  0.00    +0.000 A 
ATOM     26  C   UNL     1      48.599   4.386  17.111  0.00  0.00    +0.000 A 
ATOM     27  N   UNL     1      49.882   4.655  16.743  0.00  0.00    +0.000 NA
ATOM     28  C   UNL     1      50.315   5.917  16.990  0.00  0.00    +0.000 A 
BRANCH  26  29
ATOM     29  C   UNL     1      48.084   3.019  16.808  0.00  0.00    +0.000 C 
ATOM     30  N   UNL     1      47.057   2.590  17.599  0.00  0.00    +0.000 N 
ATOM     31  O   UNL     1      48.554   2.313  15.922  0.00  0.00    +0.000 OA
ATOM     32  H   UNL     1      46.715   3.177  18.349  0.00  0.00    +0.000 HD
ATOM     33  H   UNL     1      46.686   1.654  17.473  0.00  0.00    +0.000 HD
ENDBRANCH  26  29
ENDBRANCH  21  23
ENDBRANCH  20  21
ENDBRANCH   1  20
TORSDOF 8
ENDMDL
MODEL 8
REMARK VINA RESULT:    -6.781      3.265      5.720
REMARK INTER + INTRA:         -11.066
REMARK INTER:                  -9.482
REMARK INTRA:                  -1.585
REMARK UNBOUND:                -1.114
REMARK  Name = 
REMARK  12 active torsions:
REMARK  status: ('A' for Active; 'I' for Inactive)
REMARK    1  A    between atoms: C_1  and  O_2
REMARK    2  A    between atoms: O_2  and  C_3
REMARK    3  A    between atoms: C_6  and  C_7
REMARK    4  A    between atoms: C_11  and  C_12
REMARK    5  A    between atoms: C_12  and  C_13
REMARK    6  A    between atoms: C_12  and  C_14
REMARK    7  A    between atoms: C_12  and  C_15
REMARK    8  A    between atoms: C_15  and  N_16
REMARK    9  A    between atoms: N_16  and  C_17
REMARK   10  A    between atoms: C_20  and  C_21
REMARK   11  A    between atoms: C_27  and  O_28
REMARK   12  A    between atoms: O_28  and  C_29
REMARK                            x       y       z     vdW  Elec       q    Type
REMARK                         _______ _______ _______ _____ _____    ______ ____
ROOT
ATOM      1  C   UNL     1      48.959   8.518  14.875  0.00  0.00    +0.000 C 
ATOM      2  C   UNL     1      48.904  10.033  15.238  0.00  0.00    +0.000 C 
ATOM      3  C   UNL     1      50.281   8.266  14.119  0.00  0.00    +0.000 C 
ENDROOT
BRANCH   1   8
ATOM      4  C   UNL     1      49.416   5.578  17.354  0.00  0.00    +0.000 A 
ATOM      5  C   UNL     1      49.111   6.207  18.568  0.00  0.00    +0.000 A 
ATOM      6  C   UNL     1      48.685   7.531  18.608  0.00  0.00    +0.000 A 
ATOM      7  C   UNL     1      48.623   8.284  17.438  0.00  0.00    +0.000 A 
ATOM      8  C   UNL     1      48.883   7.707  16.188  0.00  0.00    +0.000 A 
ATOM      9  C   UNL     1      49.203   6.337  16.178  0.00  0.00    +0.000 A 
BRANCH   4  13
ATOM     10  C   UNL     1      51.355   1.786  17.348  0.00  0.00    +0.000 A 
ATOM     11  C   UNL     1      52.039   2.874  17.832  0.00  0.00    +0.000 A 
ATOM     12  C   UNL     1      51.388   4.103  17.799  0.00  0.00    +0.000 A 
ATOM     13  C   UNL     1      50.075   4.245  17.289  0.00  0.00    +0.000 A 
ATOM     14  C   UNL     1      49.489   3.054  16.829  0.00  0.00    +0.000 A 
ATOM     15  N   UNL     1      50.106   1.852  16.865  0.00  0.00    +0.000 NA
BRANCH  10  17
ATOM     16  C   UNL     1      53.409   0.736  17.406  0.00  0.00    +0.000 C 
ATOM     17  O   UNL     1      51.992   0.568  17.366  0.00  0.00    +0.000 OA
ENDBRANCH  10  17
BRANCH  14  18
ATOM     18  O   UNL     1      48.217   3.061  16.291  0.00  0.00    +0.000 OA
ATOM     19  C   UNL     1      47.192   2.921  17.282  0.00  0.00    +0.000 C 
ENDBRANCH  14  18
ENDBRANCH   4  13
ENDBRANCH   1   8
BRANCH   1  20
ATOM     20  C   UNL     1      47.771   8.283  13.895  0.00  0.00    +0.000 C 
BRANCH  20  21
ATOM     21  N   UNL     1      48.102   7.368  12.791  0.00  0.00    +0.000 N 
ATOM     22  H   UNL     1      49.064   7.038  12.809  0.00  0.00    +0.000 HD
BRANCH  21  23
ATOM     23  C   UNL     1      47.177   6.347  12.531  0.00  0.00    +0.000 A 
ATOM     24  C   UNL     1      46.916   5.330  13.452  0.00  0.00    +0.000 A 
ATOM     25  C   UNL     1      45.923   4.386  13.202  0.00  0.00    +0.000 A 
ATOM     26  C   UNL     1      45.202   4.491  12.023  0.00  0.00    +0.000 A 
ATOM     27  N   UNL     1      45.409   5.459  11.090  0.00  0.00    +0.000 NA
ATOM     28  C   UNL     1      46.379   6.363  11.381  0.00  0.00    +0.000 A 
BRANCH  26  29
ATOM     29  C   UNL     1      44.109   3.512  11.747  0.00  0.00    +0.000 C 
ATOM     30  N   UNL     1      44.009   2.479  12.634  0.00  0.00    +0.000 N 
ATOM     31  O   UNL     1      43.357   3.610  10.784  0.00  0.00    +0.000 OA
ATOM     32  H   UNL     1      44.668   2.400  13.398  0.00  0.00    +0.000 HD
ATOM     33  H   UNL     1      43.313   1.756  12.483  0.00  0.00    +0.000 HD
ENDBRANCH  26  29
ENDBRANCH  21  23
ENDBRANCH  20  21
ENDBRANCH   1  20
TORSDOF 8
ENDMDL
MODEL 9
REMARK VINA RESULT:    -6.321      2.837      5.521
REMARK INTER + INTRA:         -10.392
REMARK INTER:                  -9.179
REMARK INTRA:                  -1.213
REMARK UNBOUND:                -1.114
REMARK  Name = 
REMARK  12 active torsions:
REMARK  status: ('A' for Active; 'I' for Inactive)
REMARK    1  A    between atoms: C_1  and  O_2
REMARK    2  A    between atoms: O_2  and  C_3
REMARK    3  A    between atoms: C_6  and  C_7
REMARK    4  A    between atoms: C_11  and  C_12
REMARK    5  A    between atoms: C_12  and  C_13
REMARK    6  A    between atoms: C_12  and  C_14
REMARK    7  A    between atoms: C_12  and  C_15
REMARK    8  A    between atoms: C_15  and  N_16
REMARK    9  A    between atoms: N_16  and  C_17
REMARK   10  A    between atoms: C_20  and  C_21
REMARK   11  A    between atoms: C_27  and  O_28
REMARK   12  A    between atoms: O_28  and  C_29
REMARK                            x       y       z     vdW  Elec       q    Type
REMARK                         _______ _______ _______ _____ _____    ______ ____
ROOT
ATOM      1  C   UNL     1      49.082   7.743  14.951  0.00  0.00    +0.000 C 
ATOM      2  C   UNL     1      48.312   9.086  15.133  0.00  0.00    +0.000 C 
ATOM      3  C   UNL     1      50.518   8.086  14.497  0.00  0.00    +0.000 C 
ENDROOT
BRANCH   1   8
ATOM      4  C   UNL     1      49.914   5.067  17.625  0.00  0.00    +0.000 A 
ATOM      5  C   UNL     1      49.410   5.682  18.778  0.00  0.00    +0.000 A 
ATOM      6  C   UNL     1      48.738   6.899  18.713  0.00  0.00    +0.000 A 
ATOM      7  C   UNL     1      48.618   7.569  17.499  0.00  0.00    +0.000 A 
ATOM      8  C   UNL     1      49.069   6.996  16.303  0.00  0.00    +0.000 A 
ATOM      9  C   UNL     1      49.644   5.714  16.395  0.00  0.00    +0.000 A 
BRANCH   4  13
ATOM     10  C   UNL     1      52.422   1.625  17.616  0.00  0.00    +0.000 A 
ATOM     11  C   UNL     1      51.077   1.461  17.390  0.00  0.00    +0.000 A 
ATOM     12  C   UNL     1      50.281   2.601  17.422  0.00  0.00    +0.000 A 
ATOM     13  C   UNL     1      50.817   3.885  17.679  0.00  0.00    +0.000 A 
ATOM     14  C   UNL     1      52.205   3.914  17.890  0.00  0.00    +0.000 A 
ATOM     15  N   UNL     1      52.992   2.816  17.851  0.00  0.00    +0.000 NA
BRANCH  10  17
ATOM     16  C   UNL     1      54.260   0.603  18.567  0.00  0.00    +0.000 C 
ATOM     17  O   UNL     1      53.218   0.504  17.596  0.00  0.00    +0.000 OA
ENDBRANCH  10  17
BRANCH  14  18
ATOM     18  O   UNL     1      52.847   5.105  18.168  0.00  0.00    +0.000 OA
ATOM     19  C   UNL     1      53.813   5.462  17.173  0.00  0.00    +0.000 C 
ENDBRANCH  14  18
ENDBRANCH   4  13
ENDBRANCH   1   8
BRANCH   1  20
ATOM     20  C   UNL     1      48.356   7.001  13.790  0.00  0.00    +0.000 C 
BRANCH  20  21
ATOM     21  N   UNL     1      46.948   6.696  14.086  0.00  0.00    +0.000 N 
ATOM     22  H   UNL     1      46.440   7.474  14.500  0.00  0.00    +0.000 HD
BRANCH  21  23
ATOM     23  C   UNL     1      46.226   6.047  13.075  0.00  0.00    +0.000 A 
ATOM     24  C   UNL     1      46.267   6.471  11.745  0.00  0.00    +0.000 A 
ATOM     25  C   UNL     1      45.614   5.747  10.750  0.00  0.00    +0.000 A 
ATOM     26  C   UNL     1      44.934   4.596  11.117  0.00  0.00    +0.000 A 
ATOM     27  N   UNL     1      44.860   4.133  12.394  0.00  0.00    +0.000 NA
ATOM     28  C   UNL     1      45.520   4.865  13.328  0.00  0.00    +0.000 A 
BRANCH  26  29
ATOM     29  C   UNL     1      44.255   3.783  10.065  0.00  0.00    +0.000 C 
ATOM     30  N   UNL     1      44.108   4.396   8.854  0.00  0.00    +0.000 N 
ATOM     31  O   UNL     1      43.839   2.648  10.268  0.00  0.00    +0.000 OA
ATOM     32  H   UNL     1      44.425   5.348   8.725  0.00  0.00    +0.000 HD
ATOM     33  H   UNL     1      43.620   3.915   8.106  0.00  0.00    +0.000 HD
ENDBRANCH  26  29
ENDBRANCH  21  23
ENDBRANCH  20  21
ENDBRANCH   1  20
TORSDOF 8
ENDMDL
