MODEL 1
REMARK VINA RESULT:    -8.331      0.000      0.000
REMARK INTER + INTRA:          -9.505
REMARK INTER:                  -9.792
REMARK INTRA:                   0.287
REMARK UNBOUND:                 0.287
REMARK  Name = 
REMARK  3 active torsions:
REMARK  status: ('A' for Active; 'I' for Inactive)
REMARK    1  A    between atoms: C_2  and  C_4
REMARK    2  A    between atoms: N_8  and  C_9
REMARK    3  A    between atoms: C_9  and  C_10
REMARK                            x       y       z     vdW  Elec       q    Type
REMARK                         _______ _______ _______ _____ _____    ______ ____
ROOT
ATOM      1  C   UNL     1      46.398   2.748   7.569  0.00  0.00    +0.000 A 
ATOM      2  C   UNL     1      46.125   4.071   7.900  0.00  0.00    +0.000 A 
ATOM      3  C   UNL     1      45.271   4.343   8.973  0.00  0.00    +0.000 A 
ATOM      4  C   UNL     1      44.720   3.291   9.700  0.00  0.00    +0.000 A 
ATOM      5  N   UNL     1      43.867   3.481  10.788  0.00  0.00    +0.000 N 
ATOM      6  N   UNL     1      44.964   2.003   9.374  0.00  0.00    +0.000 NA
ATOM      7  C   UNL     1      45.782   1.757   8.317  0.00  0.00    +0.000 A 
ATOM      8  H   UNL     1      43.690   2.584  11.225  0.00  0.00    +0.000 HD
ENDROOT
BRANCH   1  10
ATOM      9  N   UNL     1      47.290   3.163   5.346  0.00  0.00    +0.000 N 
ATOM     10  C   UNL     1      47.282   2.355   6.451  0.00  0.00    +0.000 C 
ATOM     11  O   UNL     1      48.005   1.373   6.520  0.00  0.00    +0.000 OA
ATOM     12  H   UNL     1      47.969   2.938   4.629  0.00  0.00    +0.000 HD
ATOM     13  H   UNL     1      46.903   4.096   5.347  0.00  0.00    +0.000 HD
ENDBRANCH   1  10
BRANCH   5  14
ATOM     14  C   UNL     1      43.832   4.719  11.586  0.00  0.00    +0.000 C 
ATOM     15  C   UNL     1      42.495   5.186  12.140  0.00  0.00    +0.000 C 
ATOM     16  C   UNL     1      43.114   5.933  11.004  0.00  0.00    +0.000 C 
BRANCH  14  17
ATOM     17  C   UNL     1      45.131   5.041  12.347  0.00  0.00    +0.000 A 
ATOM     18  C   UNL     1      45.976   6.063  11.899  0.00  0.00    +0.000 A 
ATOM     19  C   UNL     1      47.120   6.393  12.621  0.00  0.00    +0.000 A 
ATOM     20  C   UNL     1      47.406   5.700  13.786  0.00  0.00    +0.000 A 
ATOM     21  C   UNL     1      46.538   4.693  14.170  0.00  0.00    +0.000 A 
ATOM     22  N   UNL     1      45.427   4.348  13.482  0.00  0.00    +0.000 NA
ENDBRANCH  14  17
ENDBRANCH   5  14
TORSDOF 3
ENDMDL
MODEL 2
REMARK VINA RESULT:    -7.422      2.885      6.303
REMARK INTER + INTRA:          -8.437
REMARK INTER:                  -8.159
REMARK INTRA:                  -0.277
REMARK UNBOUND:                 0.287
REMARK  Name = 
REMARK  3 active torsions:
REMARK  status: ('A' for Active; 'I' for Inactive)
REMARK    1  A    between atoms: C_2  and  C_4
REMARK    2  A    between atoms: N_8  and  C_9
REMARK    3  A    between atoms: C_9  and  C_10
REMARK                            x       y       z     vdW  Elec       q    Type
REMARK                         _______ _______ _______ _____ _____    ______ ____
ROOT
ATOM      1  C   UNL     1      47.947   5.846  14.804  0.00  0.00    +0.000 A 
ATOM      2  C   UNL     1      47.683   6.250  13.499  0.00  0.00    +0.000 A 
ATOM      3  C   UNL     1      46.768   5.523  12.733  0.00  0.00    +0.000 A 
ATOM      4  C   UNL     1      46.127   4.419  13.288  0.00  0.00    +0.000 A 
ATOM      5  N   UNL     1      45.195   3.649  12.590  0.00  0.00    +0.000 N 
ATOM      6  N   UNL     1      46.390   4.007  14.547  0.00  0.00    +0.000 NA
ATOM      7  C   UNL     1      47.296   4.715  15.272  0.00  0.00    +0.000 A 
ATOM      8  H   UNL     1      44.781   2.979  13.228  0.00  0.00    +0.000 HD
ENDROOT
BRANCH   1  10
ATOM      9  N   UNL     1      48.397   7.089  16.844  0.00  0.00    +0.000 N 
ATOM     10  C   UNL     1      48.900   6.542  15.695  0.00  0.00    +0.000 C 
ATOM     11  O   UNL     1      50.093   6.599  15.438  0.00  0.00    +0.000 OA
ATOM     12  H   UNL     1      49.073   7.478  17.490  0.00  0.00    +0.000 HD
ATOM     13  H   UNL     1      47.483   6.857  17.207  0.00  0.00    +0.000 HD
ENDBRANCH   1  10
BRANCH   5  14
ATOM     14  C   UNL     1      44.431   4.149  11.434  0.00  0.00    +0.000 C 
ATOM     15  C   UNL     1      43.689   5.469  11.572  0.00  0.00    +0.000 C 
ATOM     16  C   UNL     1      42.910   4.196  11.540  0.00  0.00    +0.000 C 
BRANCH  14  17
ATOM     17  C   UNL     1      44.968   3.713  10.058  0.00  0.00    +0.000 A 
ATOM     18  C   UNL     1      45.406   4.671   9.137  0.00  0.00    +0.000 A 
ATOM     19  C   UNL     1      45.946   4.272   7.917  0.00  0.00    +0.000 A 
ATOM     20  C   UNL     1      46.048   2.920   7.634  0.00  0.00    +0.000 A 
ATOM     21  C   UNL     1      45.588   2.023   8.581  0.00  0.00    +0.000 A 
ATOM     22  N   UNL     1      45.051   2.385   9.767  0.00  0.00    +0.000 NA
ENDBRANCH  14  17
ENDBRANCH   5  14
TORSDOF 3
ENDMDL
MODEL 3
REMARK VINA RESULT:    -6.423      3.369      6.243
REMARK INTER + INTRA:          -7.262
REMARK INTER:                  -7.093
REMARK INTRA:                  -0.169
REMARK UNBOUND:                 0.287
REMARK  Name = 
REMARK  3 active torsions:
REMARK  status: ('A' for Active; 'I' for Inactive)
REMARK    1  A    between atoms: C_2  and  C_4
REMARK    2  A    between atoms: N_8  and  C_9
REMARK    3  A    between atoms: C_9  and  C_10
REMARK                            x       y       z     vdW  Elec       q    Type
REMARK                         _______ _______ _______ _____ _____    ______ ____
ROOT
ATOM      1  C   UNL     1      48.818   7.498  13.335  0.00  0.00    +0.000 A 
ATOM      2  C   UNL     1      48.284   7.442  12.051  0.00  0.00    +0.000 A 
ATOM      3  C   UNL     1      47.222   6.571  11.793  0.00  0.00    +0.000 A 
ATOM      4  C   UNL     1      46.708   5.785  12.821  0.00  0.00    +0.000 A 
ATOM      5  N   UNL     1      45.645   4.899  12.644  0.00  0.00    +0.000 N 
ATOM      6  N   UNL     1      47.232   5.818  14.065  0.00  0.00    +0.000 NA
ATOM      7  C   UNL     1      48.276   6.659  14.295  0.00  0.00    +0.000 A 
ATOM      8  H   UNL     1      45.373   4.530  13.547  0.00  0.00    +0.000 HD
ENDROOT
BRANCH   1  10
ATOM      9  N   UNL     1      51.199   7.838  13.690  0.00  0.00    +0.000 N 
ATOM     10  C   UNL     1      49.943   8.382  13.710  0.00  0.00    +0.000 C 
ATOM     11  O   UNL     1      49.768   9.558  13.991  0.00  0.00    +0.000 OA
ATOM     12  H   UNL     1      51.968   8.476  13.854  0.00  0.00    +0.000 HD
ATOM     13  H   UNL     1      51.409   6.960  13.237  0.00  0.00    +0.000 HD
ENDBRANCH   1  10
BRANCH   5  14
ATOM     14  C   UNL     1      44.654   5.025  11.561  0.00  0.00    +0.000 C 
ATOM     15  C   UNL     1      43.839   6.306  11.471  0.00  0.00    +0.000 C 
ATOM     16  C   UNL     1      43.175   5.051  11.935  0.00  0.00    +0.000 C 
BRANCH  14  17
ATOM     17  C   UNL     1      44.982   4.235  10.281  0.00  0.00    +0.000 A 
ATOM     18  C   UNL     1      44.754   2.855  10.227  0.00  0.00    +0.000 A 
ATOM     19  C   UNL     1      44.995   2.151   9.050  0.00  0.00    +0.000 A 
ATOM     20  C   UNL     1      45.458   2.836   7.937  0.00  0.00    +0.000 A 
ATOM     21  C   UNL     1      45.674   4.197   8.058  0.00  0.00    +0.000 A 
ATOM     22  N   UNL     1      45.456   4.900   9.191  0.00  0.00    +0.000 NA
ENDBRANCH  14  17
ENDBRANCH   5  14
TORSDOF 3
ENDMDL
MODEL 4
REMARK VINA RESULT:    -6.282      2.763      4.602
REMARK INTER + INTRA:          -7.097
REMARK INTER:                  -6.929
REMARK INTRA:                  -0.168
REMARK UNBOUND:                 0.287
REMARK  Name = 
REMARK  3 active torsions:
REMARK  status: ('A' for Active; 'I' for Inactive)
REMARK    1  A    between atoms: C_2  and  C_4
REMARK    2  A    between atoms: N_8  and  C_9
REMARK    3  A    between atoms: C_9  and  C_10
REMARK                            x       y       z     vdW  Elec       q    Type
REMARK                         _______ _______ _______ _____ _____    ______ ____
ROOT
ATOM      1  C   UNL     1      45.120   3.973  10.154  0.00  0.00    +0.000 A 
ATOM      2  C   UNL     1      45.641   5.233   9.879  0.00  0.00    +0.000 A 
ATOM      3  C   UNL     1      46.026   6.058  10.940  0.00  0.00    +0.000 A 
ATOM      4  C   UNL     1      45.896   5.603  12.249  0.00  0.00    +0.000 A 
ATOM      5  N   UNL     1      46.266   6.363  13.360  0.00  0.00    +0.000 N 
ATOM      6  N   UNL     1      45.374   4.389  12.528  0.00  0.00    +0.000 NA
ATOM      7  C   UNL     1      44.989   3.607  11.484  0.00  0.00    +0.000 A 
ATOM      8  H   UNL     1      46.191   5.787  14.190  0.00  0.00    +0.000 HD
ENDROOT
BRANCH   1  10
ATOM      9  N   UNL     1      44.463   1.731   9.483  0.00  0.00    +0.000 N 
ATOM     10  C   UNL     1      44.680   3.028   9.105  0.00  0.00    +0.000 C 
ATOM     11  O   UNL     1      44.482   3.393   7.956  0.00  0.00    +0.000 OA
ATOM     12  H   UNL     1      44.070   1.117   8.780  0.00  0.00    +0.000 HD
ATOM     13  H   UNL     1      44.379   1.448  10.449  0.00  0.00    +0.000 HD
ENDBRANCH   1  10
BRANCH   5  14
ATOM     14  C   UNL     1      47.245   7.463  13.302  0.00  0.00    +0.000 C 
ATOM     15  C   UNL     1      48.720   7.115  13.175  0.00  0.00    +0.000 C 
ATOM     16  C   UNL     1      48.203   7.639  14.475  0.00  0.00    +0.000 C 
BRANCH  14  17
ATOM     17  C   UNL     1      46.714   8.777  12.700  0.00  0.00    +0.000 A 
ATOM     18  C   UNL     1      47.594   9.683  12.098  0.00  0.00    +0.000 A 
ATOM     19  C   UNL     1      47.105  10.843  11.502  0.00  0.00    +0.000 A 
ATOM     20  C   UNL     1      45.740  11.082  11.510  0.00  0.00    +0.000 A 
ATOM     21  C   UNL     1      44.924  10.154  12.131  0.00  0.00    +0.000 A 
ATOM     22  N   UNL     1      45.375   9.027  12.725  0.00  0.00    +0.000 NA
ENDBRANCH  14  17
ENDBRANCH   5  14
TORSDOF 3
ENDMDL
MODEL 5
REMARK VINA RESULT:    -6.275      2.170      2.789
REMARK INTER + INTRA:          -7.088
REMARK INTER:                  -6.707
REMARK INTRA:                  -0.381
REMARK UNBOUND:                 0.287
REMARK  Name = 
REMARK  3 active torsions:
REMARK  status: ('A' for Active; 'I' for Inactive)
REMARK    1  A    between atoms: C_2  and  C_4
REMARK    2  A    between atoms: N_8  and  C_9
REMARK    3  A    between atoms: C_9  and  C_10
REMARK                            x       y       z     vdW  Elec       q    Type
REMARK                         _______ _______ _______ _____ _____    ______ ____
ROOT
ATOM      1  C   UNL     1      46.295   3.667   7.378  0.00  0.00    +0.000 A 
ATOM      2  C   UNL     1      46.791   4.637   8.244  0.00  0.00    +0.000 A 
ATOM      3  C   UNL     1      45.968   5.128   9.262  0.00  0.00    +0.000 A 
ATOM      4  C   UNL     1      44.674   4.632   9.402  0.00  0.00    +0.000 A 
ATOM      5  N   UNL     1      43.797   5.065  10.397  0.00  0.00    +0.000 N 
ATOM      6  N   UNL     1      44.177   3.705   8.556  0.00  0.00    +0.000 NA
ATOM      7  C   UNL     1      44.985   3.252   7.561  0.00  0.00    +0.000 A 
ATOM      8  H   UNL     1      42.966   4.485  10.375  0.00  0.00    +0.000 HD
ENDROOT
BRANCH   1  10
ATOM      9  N   UNL     1      48.386   2.766   6.529  0.00  0.00    +0.000 N 
ATOM     10  C   UNL     1      47.082   3.088   6.269  0.00  0.00    +0.000 C 
ATOM     11  O   UNL     1      46.583   2.870   5.175  0.00  0.00    +0.000 OA
ATOM     12  H   UNL     1      48.885   2.283   5.792  0.00  0.00    +0.000 HD
ATOM     13  H   UNL     1      48.759   2.703   7.465  0.00  0.00    +0.000 HD
ENDBRANCH   1  10
BRANCH   5  14
ATOM     14  C   UNL     1      44.240   5.684  11.659  0.00  0.00    +0.000 C 
ATOM     15  C   UNL     1      45.036   4.838  12.640  0.00  0.00    +0.000 C 
ATOM     16  C   UNL     1      43.621   5.190  12.962  0.00  0.00    +0.000 C 
BRANCH  14  17
ATOM     17  C   UNL     1      44.475   7.204  11.591  0.00  0.00    +0.000 A 
ATOM     18  C   UNL     1      45.644   7.761  12.122  0.00  0.00    +0.000 A 
ATOM     19  C   UNL     1      45.883   9.128  12.008  0.00  0.00    +0.000 A 
ATOM     20  C   UNL     1      44.952   9.924  11.360  0.00  0.00    +0.000 A 
ATOM     21  C   UNL     1      43.811   9.316  10.868  0.00  0.00    +0.000 A 
ATOM     22  N   UNL     1      43.552   7.993  10.974  0.00  0.00    +0.000 NA
ENDBRANCH  14  17
ENDBRANCH   5  14
TORSDOF 3
ENDMDL
MODEL 6
REMARK VINA RESULT:    -6.142      3.511      5.457
REMARK INTER + INTRA:          -6.932
REMARK INTER:                  -6.645
REMARK INTRA:                  -0.287
REMARK UNBOUND:                 0.287
REMARK  Name = 
REMARK  3 active torsions:
REMARK  status: ('A' for Active; 'I' for Inactive)
REMARK    1  A    between atoms: C_2  and  C_4
REMARK    2  A    between atoms: N_8  and  C_9
REMARK    3  A    between atoms: C_9  and  C_10
REMARK                            x       y       z     vdW  Elec       q    Type
REMARK                         _______ _______ _______ _____ _____    ______ ____
ROOT
ATOM      1  C   UNL     1      44.686   5.007  10.762  0.00  0.00    +0.000 A 
ATOM      2  C   UNL     1      45.822   5.730  10.412  0.00  0.00    +0.000 A 
ATOM      3  C   UNL     1      46.316   6.693  11.296  0.00  0.00    +0.000 A 
ATOM      4  C   UNL     1      45.676   6.906  12.514  0.00  0.00    +0.000 A 
ATOM      5  N   UNL     1      46.113   7.842  13.451  0.00  0.00    +0.000 N 
ATOM      6  N   UNL     1      44.561   6.223  12.855  0.00  0.00    +0.000 NA
ATOM      7  C   UNL     1      44.084   5.302  11.976  0.00  0.00    +0.000 A 
ATOM      8  H   UNL     1      45.566   7.737  14.298  0.00  0.00    +0.000 HD
ENDROOT
BRANCH   1  10
ATOM      9  N   UNL     1      44.018   4.236   8.556  0.00  0.00    +0.000 N 
ATOM     10  C   UNL     1      44.082   3.971   9.898  0.00  0.00    +0.000 C 
ATOM     11  O   UNL     1      43.690   2.907  10.351  0.00  0.00    +0.000 OA
ATOM     12  H   UNL     1      43.692   3.481   7.965  0.00  0.00    +0.000 HD
ATOM     13  H   UNL     1      44.542   4.980   8.119  0.00  0.00    +0.000 HD
ENDBRANCH   1  10
BRANCH   5  14
ATOM     14  C   UNL     1      47.497   8.343  13.515  0.00  0.00    +0.000 C 
ATOM     15  C   UNL     1      48.578   7.417  14.050  0.00  0.00    +0.000 C 
ATOM     16  C   UNL     1      48.121   8.566  14.888  0.00  0.00    +0.000 C 
BRANCH  14  17
ATOM     17  C   UNL     1      47.854   9.409  12.463  0.00  0.00    +0.000 A 
ATOM     18  C   UNL     1      46.912  10.376  12.092  0.00  0.00    +0.000 A 
ATOM     19  C   UNL     1      47.255  11.375  11.184  0.00  0.00    +0.000 A 
ATOM     20  C   UNL     1      48.538  11.400  10.661  0.00  0.00    +0.000 A 
ATOM     21  C   UNL     1      49.419  10.410  11.059  0.00  0.00    +0.000 A 
ATOM     22  N   UNL     1      49.107   9.425  11.930  0.00  0.00    +0.000 NA
ENDBRANCH  14  17
ENDBRANCH   5  14
TORSDOF 3
ENDMDL
MODEL 7
REMARK VINA RESULT:    -6.090      3.126      6.325
REMARK INTER + INTRA:          -6.871
REMARK INTER:                  -7.583
REMARK INTRA:                   0.712
REMARK UNBOUND:                 0.287
REMARK  Name = 
REMARK  3 active torsions:
REMARK  status: ('A' for Active; 'I' for Inactive)
REMARK    1  A    between atoms: C_2  and  C_4
REMARK    2  A    between atoms: N_8  and  C_9
REMARK    3  A    between atoms: C_9  and  C_10
REMARK                            x       y       z     vdW  Elec       q    Type
REMARK                         _______ _______ _______ _____ _____    ______ ____
ROOT
ATOM      1  C   UNL     1      47.079   7.595  13.312  0.00  0.00    +0.000 A 
ATOM      2  C   UNL     1      47.060   6.216  13.497  0.00  0.00    +0.000 A 
ATOM      3  C   UNL     1      46.129   5.447  12.792  0.00  0.00    +0.000 A 
ATOM      4  C   UNL     1      45.248   6.068  11.910  0.00  0.00    +0.000 A 
ATOM      5  N   UNL     1      44.297   5.368  11.165  0.00  0.00    +0.000 N 
ATOM      6  N   UNL     1      45.246   7.407  11.738  0.00  0.00    +0.000 NA
ATOM      7  C   UNL     1      46.147   8.141  12.445  0.00  0.00    +0.000 A 
ATOM      8  H   UNL     1      43.857   6.008  10.515  0.00  0.00    +0.000 HD
ENDROOT
BRANCH   1  10
ATOM      9  N   UNL     1      47.528   9.217  15.066  0.00  0.00    +0.000 N 
ATOM     10  C   UNL     1      48.020   8.496  14.012  0.00  0.00    +0.000 C 
ATOM     11  O   UNL     1      49.196   8.570  13.690  0.00  0.00    +0.000 OA
ATOM     12  H   UNL     1      48.203   9.755  15.596  0.00  0.00    +0.000 HD
ATOM     13  H   UNL     1      46.646   9.006  15.510  0.00  0.00    +0.000 HD
ENDBRANCH   1  10
BRANCH   5  14
ATOM     14  C   UNL     1      44.414   3.936  10.839  0.00  0.00    +0.000 C 
ATOM     15  C   UNL     1      43.302   2.999  11.285  0.00  0.00    +0.000 C 
ATOM     16  C   UNL     1      44.620   2.950  11.984  0.00  0.00    +0.000 C 
BRANCH  14  17
ATOM     17  C   UNL     1      45.216   3.621   9.563  0.00  0.00    +0.000 A 
ATOM     18  C   UNL     1      45.430   2.294   9.175  0.00  0.00    +0.000 A 
ATOM     19  C   UNL     1      46.104   2.011   7.990  0.00  0.00    +0.000 A 
ATOM     20  C   UNL     1      46.553   3.060   7.203  0.00  0.00    +0.000 A 
ATOM     21  C   UNL     1      46.321   4.349   7.647  0.00  0.00    +0.000 A 
ATOM     22  N   UNL     1      45.677   4.649   8.797  0.00  0.00    +0.000 NA
ENDBRANCH  14  17
ENDBRANCH   5  14
TORSDOF 3
ENDMDL
MODEL 8
REMARK VINA RESULT:    -5.979      4.547      7.143
REMARK INTER + INTRA:          -6.741
REMARK INTER:                  -6.478
REMARK INTRA:                  -0.262
REMARK UNBOUND:                 0.287
REMARK  Name = 
REMARK  3 active torsions:
REMARK  status: ('A' for Active; 'I' for Inactive)
REMARK    1  A    between atoms: C_2  and  C_4
REMARK    2  A    between atoms: N_8  and  C_9
REMARK    3  A    between atoms: C_9  and  C_10
REMARK                            x       y       z     vdW  Elec       q    Type
REMARK                         _______ _______ _______ _____ _____    ______ ____
ROOT
ATOM      1  C   UNL     1      48.292   3.976  17.187  0.00  0.00    +0.000 A 
ATOM      2  C   UNL     1      47.839   5.189  16.678  0.00  0.00    +0.000 A 
ATOM      3  C   UNL     1      47.318   5.232  15.381  0.00  0.00    +0.000 A 
ATOM      4  C   UNL     1      47.249   4.065  14.627  0.00  0.00    +0.000 A 
ATOM      5  N   UNL     1      46.736   4.025  13.329  0.00  0.00    +0.000 N 
ATOM      6  N   UNL     1      47.704   2.886  15.104  0.00  0.00    +0.000 NA
ATOM      7  C   UNL     1      48.223   2.866  16.361  0.00  0.00    +0.000 A 
ATOM      8  H   UNL     1      46.680   3.059  13.029  0.00  0.00    +0.000 HD
ENDROOT
BRANCH   1  10
ATOM      9  N   UNL     1      48.252   2.933  19.382  0.00  0.00    +0.000 N 
ATOM     10  C   UNL     1      48.862   3.825  18.543  0.00  0.00    +0.000 C 
ATOM     11  O   UNL     1      49.857   4.442  18.892  0.00  0.00    +0.000 OA
ATOM     12  H   UNL     1      48.709   2.768  20.271  0.00  0.00    +0.000 HD
ATOM     13  H   UNL     1      47.593   2.239  19.059  0.00  0.00    +0.000 HD
ENDBRANCH   1  10
BRANCH   5  14
ATOM     14  C   UNL     1      45.796   5.027  12.797  0.00  0.00    +0.000 C 
ATOM     15  C   UNL     1      44.322   4.894  13.145  0.00  0.00    +0.000 C 
ATOM     16  C   UNL     1      44.775   4.578  11.757  0.00  0.00    +0.000 C 
BRANCH  14  17
ATOM     17  C   UNL     1      46.401   6.421  12.547  0.00  0.00    +0.000 A 
ATOM     18  C   UNL     1      45.677   7.573  12.875  0.00  0.00    +0.000 A 
ATOM     19  C   UNL     1      46.248   8.831  12.704  0.00  0.00    +0.000 A 
ATOM     20  C   UNL     1      47.540   8.924  12.211  0.00  0.00    +0.000 A 
ATOM     21  C   UNL     1      48.199   7.750  11.895  0.00  0.00    +0.000 A 
ATOM     22  N   UNL     1      47.663   6.518  12.043  0.00  0.00    +0.000 NA
ENDBRANCH  14  17
ENDBRANCH   5  14
TORSDOF 3
ENDMDL
MODEL 9
REMARK VINA RESULT:    -5.920      4.103      6.670
REMARK INTER + INTRA:          -6.671
REMARK INTER:                  -6.567
REMARK INTRA:                  -0.104
REMARK UNBOUND:                 0.287
REMARK  Name = 
REMARK  3 active torsions:
REMARK  status: ('A' for Active; 'I' for Inactive)
REMARK    1  A    between atoms: C_2  and  C_4
REMARK    2  A    between atoms: N_8  and  C_9
REMARK    3  A    between atoms: C_9  and  C_10
REMARK                            x       y       z     vdW  Elec       q    Type
REMARK                         _______ _______ _______ _____ _____    ______ ____
ROOT
ATOM      1  C   UNL     1      46.071   5.202  12.538  0.00  0.00    +0.000 A 
ATOM      2  C   UNL     1      46.351   4.139  13.391  0.00  0.00    +0.000 A 
ATOM      3  C   UNL     1      47.144   4.361  14.521  0.00  0.00    +0.000 A 
ATOM      4  C   UNL     1      47.629   5.640  14.782  0.00  0.00    +0.000 A 
ATOM      5  N   UNL     1      48.418   5.943  15.892  0.00  0.00    +0.000 N 
ATOM      6  N   UNL     1      47.379   6.674  13.950  0.00  0.00    +0.000 NA
ATOM      7  C   UNL     1      46.621   6.436  12.847  0.00  0.00    +0.000 A 
ATOM      8  H   UNL     1      48.551   6.947  15.934  0.00  0.00    +0.000 HD
ENDROOT
BRANCH   1  10
ATOM      9  N   UNL     1      45.143   6.172  10.512  0.00  0.00    +0.000 N 
ATOM     10  C   UNL     1      45.248   5.070  11.317  0.00  0.00    +0.000 C 
ATOM     11  O   UNL     1      44.712   4.014  11.016  0.00  0.00    +0.000 OA
ATOM     12  H   UNL     1      44.658   6.041   9.633  0.00  0.00    +0.000 HD
ATOM     13  H   UNL     1      45.755   6.971  10.594  0.00  0.00    +0.000 HD
ENDBRANCH   1  10
BRANCH   5  14
ATOM     14  C   UNL     1      48.430   5.137  17.125  0.00  0.00    +0.000 C 
ATOM     15  C   UNL     1      47.102   4.818  17.795  0.00  0.00    +0.000 C 
ATOM     16  C   UNL     1      48.020   5.809  18.431  0.00  0.00    +0.000 C 
BRANCH  14  17
ATOM     17  C   UNL     1      49.606   4.151  17.249  0.00  0.00    +0.000 A 
ATOM     18  C   UNL     1      50.856   4.597  17.692  0.00  0.00    +0.000 A 
ATOM     19  C   UNL     1      51.903   3.694  17.859  0.00  0.00    +0.000 A 
ATOM     20  C   UNL     1      51.687   2.353  17.586  0.00  0.00    +0.000 A 
ATOM     21  C   UNL     1      50.433   1.976  17.140  0.00  0.00    +0.000 A 
ATOM     22  N   UNL     1      49.404   2.835  16.960  0.00  0.00    +0.000 NA
ENDBRANCH  14  17
ENDBRANCH   5  14
TORSDOF 3
ENDMDL
