MODEL 1
REMARK VINA RESULT:    -7.846      0.000      0.000
REMARK INTER + INTRA:         -12.977
REMARK INTER:                 -11.515
REMARK INTRA:                  -1.462
REMARK UNBOUND:                -1.462
REMARK  Name = 
REMARK  10 active torsions:
REMARK  status: ('A' for Active; 'I' for Inactive)
REMARK    1  A    between atoms: C_1  and  O_2
REMARK    2  A    between atoms: O_2  and  C_3
REMARK    3  A    between atoms: C_10  and  C_11
REMARK    4  A    between atoms: N_13  and  C_14
REMARK    5  A    between atoms: C_14  and  C_15
REMARK    6  A    between atoms: C_18  and  C_19
REMARK    7  A    between atoms: C_19  and  N_20
REMARK    8  A    between atoms: N_20  and  C_21
REMARK    9  A    between atoms: N_20  and  C_22
REMARK   10  A    between atoms: C_22  and  C_23
REMARK                            x       y       z     vdW  Elec       q    Type
REMARK                         _______ _______ _______ _____ _____    ______ ____
ROOT
ATOM      1  C   UNL     1      47.506   8.547  13.380  0.00  0.00    +0.000 C 
ENDROOT
BRANCH   1   2
ATOM      2  C   UNL     1      46.612   7.630  12.584  0.00  0.00    +0.000 A 
ATOM      3  C   UNL     1      47.149   6.786  11.603  0.00  0.00    +0.000 A 
ATOM      4  C   UNL     1      46.319   5.936  10.867  0.00  0.00    +0.000 A 
ATOM      5  C   UNL     1      44.939   5.903  11.111  0.00  0.00    +0.000 A 
ATOM      6  C   UNL     1      44.396   6.793  12.047  0.00  0.00    +0.000 A 
ATOM      7  C   UNL     1      45.224   7.654  12.770  0.00  0.00    +0.000 A 
BRANCH   5   8
ATOM      8  C   UNL     1      44.047   4.908  10.396  0.00  0.00    +0.000 C 
BRANCH   8   9
ATOM      9  N   UNL     1      44.460   3.501  10.594  0.00  0.00    +0.000 NA
ATOM     10  C   UNL     1      43.744   2.895  11.728  0.00  0.00    +0.000 C 
BRANCH   9  11
ATOM     11  C   UNL     1      44.205   2.706   9.377  0.00  0.00    +0.000 C 
BRANCH  11  12
ATOM     12  C   UNL     1      45.379   2.614   8.436  0.00  0.00    +0.000 A 
ATOM     13  C   UNL     1      45.831   3.713   7.700  0.00  0.00    +0.000 A 
ATOM     14  C   UNL     1      46.963   3.587   6.897  0.00  0.00    +0.000 A 
ATOM     15  C   UNL     1      47.599   2.358   6.845  0.00  0.00    +0.000 A 
ATOM     16  N   UNL     1      47.175   1.265   7.513  0.00  0.00    +0.000 NA
ATOM     17  C   UNL     1      46.079   1.419   8.290  0.00  0.00    +0.000 A 
ENDBRANCH  11  12
ENDBRANCH   9  11
ENDBRANCH   8   9
ENDBRANCH   5   8
ENDBRANCH   1   2
BRANCH   1  20
ATOM     18  C   UNL     1      48.855   7.231  14.969  0.00  0.00    +0.000 C 
ATOM     19  O   UNL     1      49.702   6.980  14.118  0.00  0.00    +0.000 OA
ATOM     20  N   UNL     1      47.754   7.990  14.680  0.00  0.00    +0.000 N 
ATOM     21  H   UNL     1      47.047   8.136  15.383  0.00  0.00    +0.000 HD
BRANCH  18  29
ATOM     22  C   UNL     1      48.188   4.195  16.457  0.00  0.00    +0.000 A 
ATOM     23  N   UNL     1      48.021   3.142  17.280  0.00  0.00    +0.000 NA
ATOM     24  C   UNL     1      48.314   3.299  18.572  0.00  0.00    +0.000 A 
ATOM     25  N   UNL     1      48.766   4.402  19.160  0.00  0.00    +0.000 NA
ATOM     26  C   UNL     1      48.927   5.428  18.304  0.00  0.00    +0.000 A 
ATOM     27  S   UNL     1      49.502   6.916  18.884  0.00  0.00    +0.000 S 
ATOM     28  C   UNL     1      49.429   7.605  17.333  0.00  0.00    +0.000 A 
ATOM     29  C   UNL     1      48.971   6.735  16.351  0.00  0.00    +0.000 A 
ATOM     30  C   UNL     1      48.674   5.426  16.936  0.00  0.00    +0.000 A 
BRANCH  22  32
ATOM     31  C   UNL     1      46.602   4.434  14.760  0.00  0.00    +0.000 C 
ATOM     32  O   UNL     1      47.917   4.011  15.118  0.00  0.00    +0.000 OA
ENDBRANCH  22  32
ENDBRANCH  18  29
ENDBRANCH   1  20
TORSDOF 8
ENDMDL
MODEL 2
REMARK VINA RESULT:    -7.538      2.140      3.188
REMARK INTER + INTRA:         -12.525
REMARK INTER:                 -11.264
REMARK INTRA:                  -1.261
REMARK UNBOUND:                -1.462
REMARK  Name = 
REMARK  10 active torsions:
REMARK  status: ('A' for Active; 'I' for Inactive)
REMARK    1  A    between atoms: C_1  and  O_2
REMARK    2  A    between atoms: O_2  and  C_3
REMARK    3  A    between atoms: C_10  and  C_11
REMARK    4  A    between atoms: N_13  and  C_14
REMARK    5  A    between atoms: C_14  and  C_15
REMARK    6  A    between atoms: C_18  and  C_19
REMARK    7  A    between atoms: C_19  and  N_20
REMARK    8  A    between atoms: N_20  and  C_21
REMARK    9  A    between atoms: N_20  and  C_22
REMARK   10  A    between atoms: C_22  and  C_23
REMARK                            x       y       z     vdW  Elec       q    Type
REMARK                         _______ _______ _______ _____ _____    ______ ____
ROOT
ATOM      1  C   UNL     1      48.904   6.988  14.248  0.00  0.00    +0.000 C 
ENDROOT
BRANCH   1   2
ATOM      2  C   UNL     1      47.767   6.466  13.407  0.00  0.00    +0.000 A 
ATOM      3  C   UNL     1      46.954   5.425  13.874  0.00  0.00    +0.000 A 
ATOM      4  C   UNL     1      45.900   4.942  13.094  0.00  0.00    +0.000 A 
ATOM      5  C   UNL     1      45.629   5.504  11.839  0.00  0.00    +0.000 A 
ATOM      6  C   UNL     1      46.481   6.501  11.346  0.00  0.00    +0.000 A 
ATOM      7  C   UNL     1      47.545   6.971  12.119  0.00  0.00    +0.000 A 
BRANCH   5   8
ATOM      8  C   UNL     1      44.424   5.064  11.034  0.00  0.00    +0.000 C 
BRANCH   8   9
ATOM      9  N   UNL     1      44.497   3.655  10.589  0.00  0.00    +0.000 NA
ATOM     10  C   UNL     1      43.506   2.825  11.295  0.00  0.00    +0.000 C 
BRANCH   9  11
ATOM     11  C   UNL     1      44.266   3.553   9.134  0.00  0.00    +0.000 C 
BRANCH  11  12
ATOM     12  C   UNL     1      45.368   2.857   8.377  0.00  0.00    +0.000 A 
ATOM     13  C   UNL     1      46.211   3.540   7.494  0.00  0.00    +0.000 A 
ATOM     14  C   UNL     1      47.256   2.859   6.872  0.00  0.00    +0.000 A 
ATOM     15  C   UNL     1      47.416   1.511   7.143  0.00  0.00    +0.000 A 
ATOM     16  N   UNL     1      46.605   0.809   7.962  0.00  0.00    +0.000 NA
ATOM     17  C   UNL     1      45.605   1.497   8.558  0.00  0.00    +0.000 A 
ENDBRANCH  11  12
ENDBRANCH   9  11
ENDBRANCH   8   9
ENDBRANCH   5   8
ENDBRANCH   1   2
BRANCH   1  20
ATOM     18  C   UNL     1      49.138   6.438  16.639  0.00  0.00    +0.000 C 
ATOM     19  O   UNL     1      50.110   5.719  16.429  0.00  0.00    +0.000 OA
ATOM     20  N   UNL     1      48.498   7.089  15.621  0.00  0.00    +0.000 N 
ATOM     21  H   UNL     1      47.669   7.631  15.814  0.00  0.00    +0.000 HD
BRANCH  18  29
ATOM     22  C   UNL     1      47.885   9.190  18.294  0.00  0.00    +0.000 A 
ATOM     23  N   UNL     1      47.360  10.078  19.160  0.00  0.00    +0.000 NA
ATOM     24  C   UNL     1      47.040   9.651  20.382  0.00  0.00    +0.000 A 
ATOM     25  N   UNL     1      47.181   8.419  20.861  0.00  0.00    +0.000 NA
ATOM     26  C   UNL     1      47.701   7.561  19.964  0.00  0.00    +0.000 A 
ATOM     27  S   UNL     1      47.947   5.941  20.404  0.00  0.00    +0.000 S 
ATOM     28  C   UNL     1      48.568   5.565  18.869  0.00  0.00    +0.000 A 
ATOM     29  C   UNL     1      48.605   6.646  17.996  0.00  0.00    +0.000 A 
ATOM     30  C   UNL     1      48.080   7.844  18.656  0.00  0.00    +0.000 A 
BRANCH  22  32
ATOM     31  C   UNL     1      49.427  10.319  16.952  0.00  0.00    +0.000 C 
ATOM     32  O   UNL     1      48.178   9.633  17.021  0.00  0.00    +0.000 OA
ENDBRANCH  22  32
ENDBRANCH  18  29
ENDBRANCH   1  20
TORSDOF 8
ENDMDL
MODEL 3
REMARK VINA RESULT:    -7.071      1.746      2.129
REMARK INTER + INTRA:         -11.840
REMARK INTER:                 -10.857
REMARK INTRA:                  -0.984
REMARK UNBOUND:                -1.462
REMARK  Name = 
REMARK  10 active torsions:
REMARK  status: ('A' for Active; 'I' for Inactive)
REMARK    1  A    between atoms: C_1  and  O_2
REMARK    2  A    between atoms: O_2  and  C_3
REMARK    3  A    between atoms: C_10  and  C_11
REMARK    4  A    between atoms: N_13  and  C_14
REMARK    5  A    between atoms: C_14  and  C_15
REMARK    6  A    between atoms: C_18  and  C_19
REMARK    7  A    between atoms: C_19  and  N_20
REMARK    8  A    between atoms: N_20  and  C_21
REMARK    9  A    between atoms: N_20  and  C_22
REMARK   10  A    between atoms: C_22  and  C_23
REMARK                            x       y       z     vdW  Elec       q    Type
REMARK                         _______ _______ _______ _____ _____    ______ ____
ROOT
ATOM      1  C   UNL     1      47.661   8.874  13.794  0.00  0.00    +0.000 C 
ENDROOT
BRANCH   1   2
ATOM      2  C   UNL     1      46.750   7.922  13.061  0.00  0.00    +0.000 A 
ATOM      3  C   UNL     1      47.065   6.560  12.973  0.00  0.00    +0.000 A 
ATOM      4  C   UNL     1      46.219   5.678  12.294  0.00  0.00    +0.000 A 
ATOM      5  C   UNL     1      45.035   6.141  11.706  0.00  0.00    +0.000 A 
ATOM      6  C   UNL     1      44.753   7.513  11.740  0.00  0.00    +0.000 A 
ATOM      7  C   UNL     1      45.607   8.396  12.404  0.00  0.00    +0.000 A 
BRANCH   5   8
ATOM      8  C   UNL     1      44.057   5.177  11.064  0.00  0.00    +0.000 C 
BRANCH   8   9
ATOM      9  N   UNL     1      44.526   3.774  11.070  0.00  0.00    +0.000 NA
ATOM     10  C   UNL     1      43.981   3.040  12.224  0.00  0.00    +0.000 C 
BRANCH   9  11
ATOM     11  C   UNL     1      44.131   3.085   9.826  0.00  0.00    +0.000 C 
BRANCH  11  12
ATOM     12  C   UNL     1      45.239   2.944   8.814  0.00  0.00    +0.000 A 
ATOM     13  C   UNL     1      45.877   1.723   8.574  0.00  0.00    +0.000 A 
ATOM     14  C   UNL     1      46.848   1.636   7.579  0.00  0.00    +0.000 A 
ATOM     15  C   UNL     1      47.162   2.780   6.864  0.00  0.00    +0.000 A 
ATOM     16  N   UNL     1      46.594   3.984   7.087  0.00  0.00    +0.000 NA
ATOM     17  C   UNL     1      45.648   4.036   8.053  0.00  0.00    +0.000 A 
ENDBRANCH  11  12
ENDBRANCH   9  11
ENDBRANCH   8   9
ENDBRANCH   5   8
ENDBRANCH   1   2
BRANCH   1  20
ATOM     18  C   UNL     1      48.476   8.852  16.120  0.00  0.00    +0.000 C 
ATOM     19  O   UNL     1      49.636   9.038  15.767  0.00  0.00    +0.000 OA
ATOM     20  N   UNL     1      47.459   8.760  15.211  0.00  0.00    +0.000 N 
ATOM     21  H   UNL     1      46.522   8.554  15.524  0.00  0.00    +0.000 HD
BRANCH  18  29
ATOM     22  C   UNL     1      48.393   6.188  18.305  0.00  0.00    +0.000 A 
ATOM     23  N   UNL     1      48.272   5.347  19.350  0.00  0.00    +0.000 NA
ATOM     24  C   UNL     1      47.840   5.843  20.511  0.00  0.00    +0.000 A 
ATOM     25  N   UNL     1      47.508   7.104  20.767  0.00  0.00    +0.000 NA
ATOM     26  C   UNL     1      47.650   7.914  19.701  0.00  0.00    +0.000 A 
ATOM     27  S   UNL     1      47.274   9.562  19.848  0.00  0.00    +0.000 S 
ATOM     28  C   UNL     1      47.683   9.852  18.225  0.00  0.00    +0.000 A 
ATOM     29  C   UNL     1      48.108   8.720  17.540  0.00  0.00    +0.000 A 
ATOM     30  C   UNL     1      48.090   7.557  18.430  0.00  0.00    +0.000 A 
BRANCH  22  32
ATOM     31  C   UNL     1      47.887   4.939  16.398  0.00  0.00    +0.000 C 
ATOM     32  O   UNL     1      48.875   5.672  17.121  0.00  0.00    +0.000 OA
ENDBRANCH  22  32
ENDBRANCH  18  29
ENDBRANCH   1  20
TORSDOF 8
ENDMDL
MODEL 4
REMARK VINA RESULT:    -6.944      1.487      1.686
REMARK INTER + INTRA:         -11.654
REMARK INTER:                 -10.372
REMARK INTRA:                  -1.281
REMARK UNBOUND:                -1.462
REMARK  Name = 
REMARK  10 active torsions:
REMARK  status: ('A' for Active; 'I' for Inactive)
REMARK    1  A    between atoms: C_1  and  O_2
REMARK    2  A    between atoms: O_2  and  C_3
REMARK    3  A    between atoms: C_10  and  C_11
REMARK    4  A    between atoms: N_13  and  C_14
REMARK    5  A    between atoms: C_14  and  C_15
REMARK    6  A    between atoms: C_18  and  C_19
REMARK    7  A    between atoms: C_19  and  N_20
REMARK    8  A    between atoms: N_20  and  C_21
REMARK    9  A    between atoms: N_20  and  C_22
REMARK   10  A    between atoms: C_22  and  C_23
REMARK                            x       y       z     vdW  Elec       q    Type
REMARK                         _______ _______ _______ _____ _____    ______ ____
ROOT
ATOM      1  C   UNL     1      48.385   8.753  13.791  0.00  0.00    +0.000 C 
ENDROOT
BRANCH   1   2
ATOM      2  C   UNL     1      47.313   8.023  13.022  0.00  0.00    +0.000 A 
ATOM      3  C   UNL     1      47.634   6.913  12.229  0.00  0.00    +0.000 A 
ATOM      4  C   UNL     1      46.639   6.237  11.518  0.00  0.00    +0.000 A 
ATOM      5  C   UNL     1      45.302   6.649  11.600  0.00  0.00    +0.000 A 
ATOM      6  C   UNL     1      44.992   7.797  12.342  0.00  0.00    +0.000 A 
ATOM      7  C   UNL     1      45.990   8.482  13.039  0.00  0.00    +0.000 A 
BRANCH   5   8
ATOM      8  C   UNL     1      44.201   5.858  10.922  0.00  0.00    +0.000 C 
BRANCH   8   9
ATOM      9  N   UNL     1      44.545   4.435  10.711  0.00  0.00    +0.000 NA
ATOM     10  C   UNL     1      43.851   3.574  11.682  0.00  0.00    +0.000 C 
BRANCH   9  11
ATOM     11  C   UNL     1      44.190   4.009   9.343  0.00  0.00    +0.000 C 
BRANCH  11  12
ATOM     12  C   UNL     1      45.281   3.261   8.621  0.00  0.00    +0.000 A 
ATOM     13  C   UNL     1      45.462   1.882   8.768  0.00  0.00    +0.000 A 
ATOM     14  C   UNL     1      46.443   1.232   8.023  0.00  0.00    +0.000 A 
ATOM     15  C   UNL     1      47.226   1.986   7.165  0.00  0.00    +0.000 A 
ATOM     16  N   UNL     1      47.106   3.322   7.019  0.00  0.00    +0.000 NA
ATOM     17  C   UNL     1      46.139   3.925   7.747  0.00  0.00    +0.000 A 
ENDBRANCH  11  12
ENDBRANCH   9  11
ENDBRANCH   8   9
ENDBRANCH   5   8
ENDBRANCH   1   2
BRANCH   1  20
ATOM     18  C   UNL     1      49.153   7.652  15.858  0.00  0.00    +0.000 C 
ATOM     19  O   UNL     1      48.384   8.310  16.552  0.00  0.00    +0.000 OA
ATOM     20  N   UNL     1      49.209   7.816  14.502  0.00  0.00    +0.000 N 
ATOM     21  H   UNL     1      49.887   7.301  13.961  0.00  0.00    +0.000 HD
BRANCH  18  29
ATOM     22  C   UNL     1      48.705   4.414  16.951  0.00  0.00    +0.000 A 
ATOM     23  N   UNL     1      48.815   3.163  17.436  0.00  0.00    +0.000 NA
ATOM     24  C   UNL     1      50.009   2.760  17.876  0.00  0.00    +0.000 A 
ATOM     25  N   UNL     1      51.134   3.466  17.891  0.00  0.00    +0.000 NA
ATOM     26  C   UNL     1      50.985   4.707  17.392  0.00  0.00    +0.000 A 
ATOM     27  S   UNL     1      52.323   5.748  17.330  0.00  0.00    +0.000 S 
ATOM     28  C   UNL     1      51.391   6.988  16.638  0.00  0.00    +0.000 A 
ATOM     29  C   UNL     1      50.058   6.647  16.441  0.00  0.00    +0.000 A 
ATOM     30  C   UNL     1      49.818   5.274  16.891  0.00  0.00    +0.000 A 
BRANCH  22  32
ATOM     31  C   UNL     1      47.233   4.338  15.139  0.00  0.00    +0.000 C 
ATOM     32  O   UNL     1      47.476   4.807  16.465  0.00  0.00    +0.000 OA
ENDBRANCH  22  32
ENDBRANCH  18  29
ENDBRANCH   1  20
TORSDOF 8
ENDMDL
MODEL 5
REMARK VINA RESULT:    -6.854      2.158      2.694
REMARK INTER + INTRA:         -11.521
REMARK INTER:                 -10.560
REMARK INTRA:                  -0.961
REMARK UNBOUND:                -1.462
REMARK  Name = 
REMARK  10 active torsions:
REMARK  status: ('A' for Active; 'I' for Inactive)
REMARK    1  A    between atoms: C_1  and  O_2
REMARK    2  A    between atoms: O_2  and  C_3
REMARK    3  A    between atoms: C_10  and  C_11
REMARK    4  A    between atoms: N_13  and  C_14
REMARK    5  A    between atoms: C_14  and  C_15
REMARK    6  A    between atoms: C_18  and  C_19
REMARK    7  A    between atoms: C_19  and  N_20
REMARK    8  A    between atoms: N_20  and  C_21
REMARK    9  A    between atoms: N_20  and  C_22
REMARK   10  A    between atoms: C_22  and  C_23
REMARK                            x       y       z     vdW  Elec       q    Type
REMARK                         _______ _______ _______ _____ _____    ______ ____
ROOT
ATOM      1  C   UNL     1      48.659   7.891  15.506  0.00  0.00    +0.000 C 
ENDROOT
BRANCH   1   2
ATOM      2  C   UNL     1      47.901   7.384  14.306  0.00  0.00    +0.000 A 
ATOM      3  C   UNL     1      47.256   8.277  13.441  0.00  0.00    +0.000 A 
ATOM      4  C   UNL     1      46.554   7.806  12.327  0.00  0.00    +0.000 A 
ATOM      5  C   UNL     1      46.500   6.434  12.050  0.00  0.00    +0.000 A 
ATOM      6  C   UNL     1      47.091   5.537  12.951  0.00  0.00    +0.000 A 
ATOM      7  C   UNL     1      47.777   6.008  14.072  0.00  0.00    +0.000 A 
BRANCH   5   8
ATOM      8  C   UNL     1      45.836   5.921  10.788  0.00  0.00    +0.000 C 
BRANCH   8   9
ATOM      9  N   UNL     1      44.828   4.868  11.041  0.00  0.00    +0.000 NA
ATOM     10  C   UNL     1      43.753   5.364  11.915  0.00  0.00    +0.000 C 
BRANCH   9  11
ATOM     11  C   UNL     1      44.241   4.392   9.773  0.00  0.00    +0.000 C 
BRANCH  11  12
ATOM     12  C   UNL     1      45.160   3.529   8.946  0.00  0.00    +0.000 A 
ATOM     13  C   UNL     1      45.253   2.147   9.135  0.00  0.00    +0.000 A 
ATOM     14  C   UNL     1      46.069   1.389   8.297  0.00  0.00    +0.000 A 
ATOM     15  C   UNL     1      46.779   2.043   7.305  0.00  0.00    +0.000 A 
ATOM     16  N   UNL     1      46.743   3.378   7.111  0.00  0.00    +0.000 NA
ATOM     17  C   UNL     1      45.936   4.086   7.933  0.00  0.00    +0.000 A 
ENDBRANCH  11  12
ENDBRANCH   9  11
ENDBRANCH   8   9
ENDBRANCH   5   8
ENDBRANCH   1   2
BRANCH   1  20
ATOM     18  C   UNL     1      49.711   6.509  17.255  0.00  0.00    +0.000 C 
ATOM     19  O   UNL     1      49.001   6.991  18.132  0.00  0.00    +0.000 OA
ATOM     20  N   UNL     1      49.601   6.902  15.950  0.00  0.00    +0.000 N 
ATOM     21  H   UNL     1      50.233   6.530  15.259  0.00  0.00    +0.000 HD
BRANCH  18  29
ATOM     22  C   UNL     1      49.788   3.085  16.870  0.00  0.00    +0.000 A 
ATOM     23  N   UNL     1      50.085   1.772  16.831  0.00  0.00    +0.000 NA
ATOM     24  C   UNL     1      51.274   1.382  17.294  0.00  0.00    +0.000 A 
ATOM     25  N   UNL     1      52.227   2.156  17.802  0.00  0.00    +0.000 NA
ATOM     26  C   UNL     1      51.896   3.460  17.816  0.00  0.00    +0.000 A 
ATOM     27  S   UNL     1      52.998   4.596  18.428  0.00  0.00    +0.000 S 
ATOM     28  C   UNL     1      51.928   5.878  18.119  0.00  0.00    +0.000 A 
ATOM     29  C   UNL     1      50.722   5.480  17.553  0.00  0.00    +0.000 A 
ATOM     30  C   UNL     1      50.707   4.027  17.369  0.00  0.00    +0.000 A 
BRANCH  22  32
ATOM     31  C   UNL     1      47.527   3.451  17.327  0.00  0.00    +0.000 C 
ATOM     32  O   UNL     1      48.572   3.482  16.355  0.00  0.00    +0.000 OA
ENDBRANCH  22  32
ENDBRANCH  18  29
ENDBRANCH   1  20
TORSDOF 8
ENDMDL
MODEL 6
REMARK VINA RESULT:    -6.716      3.068      5.386
REMARK INTER + INTRA:         -11.319
REMARK INTER:                  -9.736
REMARK INTRA:                  -1.584
REMARK UNBOUND:                -1.462
REMARK  Name = 
REMARK  10 active torsions:
REMARK  status: ('A' for Active; 'I' for Inactive)
REMARK    1  A    between atoms: C_1  and  O_2
REMARK    2  A    between atoms: O_2  and  C_3
REMARK    3  A    between atoms: C_10  and  C_11
REMARK    4  A    between atoms: N_13  and  C_14
REMARK    5  A    between atoms: C_14  and  C_15
REMARK    6  A    between atoms: C_18  and  C_19
REMARK    7  A    between atoms: C_19  and  N_20
REMARK    8  A    between atoms: N_20  and  C_21
REMARK    9  A    between atoms: N_20  and  C_22
REMARK   10  A    between atoms: C_22  and  C_23
REMARK                            x       y       z     vdW  Elec       q    Type
REMARK                         _______ _______ _______ _____ _____    ______ ____
ROOT
ATOM      1  C   UNL     1      47.681   3.416  17.265  0.00  0.00    +0.000 C 
ENDROOT
BRANCH   1   2
ATOM      2  C   UNL     1      47.586   4.295  16.044  0.00  0.00    +0.000 A 
ATOM      3  C   UNL     1      46.910   3.852  14.899  0.00  0.00    +0.000 A 
ATOM      4  C   UNL     1      46.821   4.668  13.767  0.00  0.00    +0.000 A 
ATOM      5  C   UNL     1      47.392   5.947  13.767  0.00  0.00    +0.000 A 
ATOM      6  C   UNL     1      48.121   6.364  14.889  0.00  0.00    +0.000 A 
ATOM      7  C   UNL     1      48.224   5.541  16.013  0.00  0.00    +0.000 A 
BRANCH   5   8
ATOM      8  C   UNL     1      47.207   6.881  12.588  0.00  0.00    +0.000 C 
BRANCH   8   9
ATOM      9  N   UNL     1      45.897   7.569  12.583  0.00  0.00    +0.000 NA
ATOM     10  C   UNL     1      46.068   9.031  12.614  0.00  0.00    +0.000 C 
BRANCH   9  11
ATOM     11  C   UNL     1      45.115   7.196  11.387  0.00  0.00    +0.000 C 
BRANCH  11  12
ATOM     12  C   UNL     1      44.491   5.826  11.454  0.00  0.00    +0.000 A 
ATOM     13  C   UNL     1      44.826   4.810  10.554  0.00  0.00    +0.000 A 
ATOM     14  C   UNL     1      44.267   3.543  10.705  0.00  0.00    +0.000 A 
ATOM     15  C   UNL     1      43.378   3.336  11.746  0.00  0.00    +0.000 A 
ATOM     16  N   UNL     1      43.003   4.298  12.615  0.00  0.00    +0.000 NA
ATOM     17  C   UNL     1      43.567   5.515  12.450  0.00  0.00    +0.000 A 
ENDBRANCH  11  12
ENDBRANCH   9  11
ENDBRANCH   8   9
ENDBRANCH   5   8
ENDBRANCH   1   2
BRANCH   1  20
ATOM     18  C   UNL     1      49.882   2.348  16.963  0.00  0.00    +0.000 C 
ATOM     19  O   UNL     1      49.483   1.682  16.013  0.00  0.00    +0.000 OA
ATOM     20  N   UNL     1      49.057   3.216  17.624  0.00  0.00    +0.000 N 
ATOM     21  H   UNL     1      49.396   3.711  18.435  0.00  0.00    +0.000 HD
BRANCH  18  29
ATOM     22  C   UNL     1      52.148   4.679  18.108  0.00  0.00    +0.000 A 
ATOM     23  N   UNL     1      53.207   5.359  18.587  0.00  0.00    +0.000 NA
ATOM     24  C   UNL     1      54.316   4.676  18.874  0.00  0.00    +0.000 A 
ATOM     25  N   UNL     1      54.506   3.368  18.741  0.00  0.00    +0.000 NA
ATOM     26  C   UNL     1      53.423   2.723  18.267  0.00  0.00    +0.000 A 
ATOM     27  S   UNL     1      53.486   1.043  18.037  0.00  0.00    +0.000 S 
ATOM     28  C   UNL     1      51.883   1.010  17.475  0.00  0.00    +0.000 A 
ATOM     29  C   UNL     1      51.270   2.257  17.447  0.00  0.00    +0.000 A 
ATOM     30  C   UNL     1      52.197   3.285  17.926  0.00  0.00    +0.000 A 
BRANCH  22  32
ATOM     31  C   UNL     1      50.610   6.228  18.938  0.00  0.00    +0.000 C 
ATOM     32  O   UNL     1      50.994   5.390  17.849  0.00  0.00    +0.000 OA
ENDBRANCH  22  32
ENDBRANCH  18  29
ENDBRANCH   1  20
TORSDOF 8
ENDMDL
MODEL 7
REMARK VINA RESULT:    -6.620      4.244      9.350
REMARK INTER + INTRA:         -11.179
REMARK INTER:                  -9.897
REMARK INTRA:                  -1.281
REMARK UNBOUND:                -1.462
REMARK  Name = 
REMARK  10 active torsions:
REMARK  status: ('A' for Active; 'I' for Inactive)
REMARK    1  A    between atoms: C_1  and  O_2
REMARK    2  A    between atoms: O_2  and  C_3
REMARK    3  A    between atoms: C_10  and  C_11
REMARK    4  A    between atoms: N_13  and  C_14
REMARK    5  A    between atoms: C_14  and  C_15
REMARK    6  A    between atoms: C_18  and  C_19
REMARK    7  A    between atoms: C_19  and  N_20
REMARK    8  A    between atoms: N_20  and  C_21
REMARK    9  A    between atoms: N_20  and  C_22
REMARK   10  A    between atoms: C_22  and  C_23
REMARK                            x       y       z     vdW  Elec       q    Type
REMARK                         _______ _______ _______ _____ _____    ______ ____
ROOT
ATOM      1  C   UNL     1      47.251   3.313  16.825  0.00  0.00    +0.000 C 
ENDROOT
BRANCH   1   2
ATOM      2  C   UNL     1      48.686   3.493  17.250  0.00  0.00    +0.000 A 
ATOM      3  C   UNL     1      49.143   4.736  17.707  0.00  0.00    +0.000 A 
ATOM      4  C   UNL     1      50.474   4.902  18.102  0.00  0.00    +0.000 A 
ATOM      5  C   UNL     1      51.367   3.823  18.061  0.00  0.00    +0.000 A 
ATOM      6  C   UNL     1      50.925   2.597  17.544  0.00  0.00    +0.000 A 
ATOM      7  C   UNL     1      49.600   2.437  17.134  0.00  0.00    +0.000 A 
BRANCH   5   8
ATOM      8  C   UNL     1      52.781   3.963  18.589  0.00  0.00    +0.000 C 
BRANCH   8   9
ATOM      9  N   UNL     1      53.803   4.017  17.522  0.00  0.00    +0.000 NA
ATOM     10  C   UNL     1      54.172   5.409  17.214  0.00  0.00    +0.000 C 
BRANCH   9  11
ATOM     11  C   UNL     1      55.014   3.271  17.919  0.00  0.00    +0.000 C 
BRANCH  11  12
ATOM     12  C   UNL     1      54.797   1.792  18.114  0.00  0.00    +0.000 A 
ATOM     13  C   UNL     1      54.404   0.953  17.067  0.00  0.00    +0.000 A 
ATOM     14  C   UNL     1      54.284  -0.417  17.288  0.00  0.00    +0.000 A 
ATOM     15  C   UNL     1      54.548  -0.904  18.557  0.00  0.00    +0.000 A 
ATOM     16  N   UNL     1      54.897  -0.124  19.602  0.00  0.00    +0.000 NA
ATOM     17  C   UNL     1      55.014   1.200  19.356  0.00  0.00    +0.000 A 
ENDBRANCH  11  12
ENDBRANCH   9  11
ENDBRANCH   8   9
ENDBRANCH   5   8
ENDBRANCH   1   2
BRANCH   1  20
ATOM     18  C   UNL     1      46.953   4.187  14.540  0.00  0.00    +0.000 C 
ATOM     19  O   UNL     1      47.355   3.143  14.035  0.00  0.00    +0.000 OA
ATOM     20  N   UNL     1      46.877   4.342  15.897  0.00  0.00    +0.000 N 
ATOM     21  H   UNL     1      46.595   5.228  16.286  0.00  0.00    +0.000 HD
BRANCH  18  29
ATOM     22  C   UNL     1      44.171   4.807  12.603  0.00  0.00    +0.000 A 
ATOM     23  N   UNL     1      43.214   5.305  11.797  0.00  0.00    +0.000 NA
ATOM     24  C   UNL     1      43.395   6.523  11.281  0.00  0.00    +0.000 A 
ATOM     25  N   UNL     1      44.437   7.325  11.474  0.00  0.00    +0.000 NA
ATOM     26  C   UNL     1      45.367   6.795  12.290  0.00  0.00    +0.000 A 
ATOM     27  S   UNL     1      46.766   7.685  12.650  0.00  0.00    +0.000 S 
ATOM     28  C   UNL     1      47.363   6.441  13.640  0.00  0.00    +0.000 A 
ATOM     29  C   UNL     1      46.528   5.334  13.719  0.00  0.00    +0.000 A 
ATOM     30  C   UNL     1      45.327   5.550  12.909  0.00  0.00    +0.000 A 
BRANCH  22  32
ATOM     31  C   UNL     1      43.436   2.624  12.221  0.00  0.00    +0.000 C 
ATOM     32  O   UNL     1      43.956   3.565  13.160  0.00  0.00    +0.000 OA
ENDBRANCH  22  32
ENDBRANCH  18  29
ENDBRANCH   1  20
TORSDOF 8
ENDMDL
MODEL 8
REMARK VINA RESULT:    -6.599      3.641      8.751
REMARK INTER + INTRA:         -11.148
REMARK INTER:                  -9.711
REMARK INTRA:                  -1.436
REMARK UNBOUND:                -1.462
REMARK  Name = 
REMARK  10 active torsions:
REMARK  status: ('A' for Active; 'I' for Inactive)
REMARK    1  A    between atoms: C_1  and  O_2
REMARK    2  A    between atoms: O_2  and  C_3
REMARK    3  A    between atoms: C_10  and  C_11
REMARK    4  A    between atoms: N_13  and  C_14
REMARK    5  A    between atoms: C_14  and  C_15
REMARK    6  A    between atoms: C_18  and  C_19
REMARK    7  A    between atoms: C_19  and  N_20
REMARK    8  A    between atoms: N_20  and  C_21
REMARK    9  A    between atoms: N_20  and  C_22
REMARK   10  A    between atoms: C_22  and  C_23
REMARK                            x       y       z     vdW  Elec       q    Type
REMARK                         _______ _______ _______ _____ _____    ______ ____
ROOT
ATOM      1  C   UNL     1      47.328   3.363  16.778  0.00  0.00    +0.000 C 
ENDROOT
BRANCH   1   2
ATOM      2  C   UNL     1      48.790   3.491  17.123  0.00  0.00    +0.000 A 
ATOM      3  C   UNL     1      49.340   4.738  17.445  0.00  0.00    +0.000 A 
ATOM      4  C   UNL     1      50.696   4.855  17.766  0.00  0.00    +0.000 A 
ATOM      5  C   UNL     1      51.521   3.723  17.788  0.00  0.00    +0.000 A 
ATOM      6  C   UNL     1      50.984   2.486  17.404  0.00  0.00    +0.000 A 
ATOM      7  C   UNL     1      49.634   2.374  17.067  0.00  0.00    +0.000 A 
BRANCH   5   8
ATOM      8  C   UNL     1      52.964   3.821  18.241  0.00  0.00    +0.000 C 
BRANCH   8   9
ATOM      9  N   UNL     1      53.542   5.171  18.071  0.00  0.00    +0.000 NA
ATOM     10  C   UNL     1      54.315   5.569  19.259  0.00  0.00    +0.000 C 
BRANCH   9  11
ATOM     11  C   UNL     1      54.418   5.219  16.884  0.00  0.00    +0.000 C 
BRANCH  11  12
ATOM     12  C   UNL     1      54.034   6.266  15.869  0.00  0.00    +0.000 A 
ATOM     13  C   UNL     1      52.819   6.953  15.931  0.00  0.00    +0.000 A 
ATOM     14  C   UNL     1      52.545   7.958  15.006  0.00  0.00    +0.000 A 
ATOM     15  C   UNL     1      53.494   8.233  14.035  0.00  0.00    +0.000 A 
ATOM     16  N   UNL     1      54.664   7.570  13.919  0.00  0.00    +0.000 NA
ATOM     17  C   UNL     1      54.906   6.606  14.837  0.00  0.00    +0.000 A 
ENDBRANCH  11  12
ENDBRANCH   9  11
ENDBRANCH   8   9
ENDBRANCH   5   8
ENDBRANCH   1   2
BRANCH   1  20
ATOM     18  C   UNL     1      46.928   4.206  14.496  0.00  0.00    +0.000 C 
ATOM     19  O   UNL     1      47.244   3.132  13.992  0.00  0.00    +0.000 OA
ATOM     20  N   UNL     1      46.947   4.391  15.851  0.00  0.00    +0.000 N 
ATOM     21  H   UNL     1      46.736   5.299  16.236  0.00  0.00    +0.000 HD
BRANCH  18  29
ATOM     22  C   UNL     1      44.109   4.882  12.632  0.00  0.00    +0.000 A 
ATOM     23  N   UNL     1      43.143   5.398  11.849  0.00  0.00    +0.000 NA
ATOM     24  C   UNL     1      43.341   6.605  11.318  0.00  0.00    +0.000 A 
ATOM     25  N   UNL     1      44.408   7.382  11.473  0.00  0.00    +0.000 NA
ATOM     26  C   UNL     1      45.347   6.835  12.267  0.00  0.00    +0.000 A 
ATOM     27  S   UNL     1      46.778   7.691  12.580  0.00  0.00    +0.000 S 
ATOM     28  C   UNL     1      47.371   6.441  13.565  0.00  0.00    +0.000 A 
ATOM     29  C   UNL     1      46.510   5.356  13.677  0.00  0.00    +0.000 A 
ATOM     30  C   UNL     1      45.292   5.597  12.899  0.00  0.00    +0.000 A 
BRANCH  22  32
ATOM     31  C   UNL     1      43.540   2.650  12.246  0.00  0.00    +0.000 C 
ATOM     32  O   UNL     1      43.879   3.650  13.206  0.00  0.00    +0.000 OA
ENDBRANCH  22  32
ENDBRANCH  18  29
ENDBRANCH   1  20
TORSDOF 8
ENDMDL
MODEL 9
REMARK VINA RESULT:    -6.517      3.119      7.809
REMARK INTER + INTRA:         -11.027
REMARK INTER:                  -9.253
REMARK INTRA:                  -1.774
REMARK UNBOUND:                -1.462
REMARK  Name = 
REMARK  10 active torsions:
REMARK  status: ('A' for Active; 'I' for Inactive)
REMARK    1  A    between atoms: C_1  and  O_2
REMARK    2  A    between atoms: O_2  and  C_3
REMARK    3  A    between atoms: C_10  and  C_11
REMARK    4  A    between atoms: N_13  and  C_14
REMARK    5  A    between atoms: C_14  and  C_15
REMARK    6  A    between atoms: C_18  and  C_19
REMARK    7  A    between atoms: C_19  and  N_20
REMARK    8  A    between atoms: N_20  and  C_21
REMARK    9  A    between atoms: N_20  and  C_22
REMARK   10  A    between atoms: C_22  and  C_23
REMARK                            x       y       z     vdW  Elec       q    Type
REMARK                         _______ _______ _______ _____ _____    ______ ____
ROOT
ATOM      1  C   UNL     1      48.495   7.948  11.674  0.00  0.00    +0.000 C 
ENDROOT
BRANCH   1   2
ATOM      2  C   UNL     1      48.590   7.924  13.178  0.00  0.00    +0.000 A 
ATOM      3  C   UNL     1      47.957   8.909  13.948  0.00  0.00    +0.000 A 
ATOM      4  C   UNL     1      48.045   8.886  15.343  0.00  0.00    +0.000 A 
ATOM      5  C   UNL     1      48.754   7.867  15.993  0.00  0.00    +0.000 A 
ATOM      6  C   UNL     1      49.440   6.919  15.220  0.00  0.00    +0.000 A 
ATOM      7  C   UNL     1      49.365   6.954  13.826  0.00  0.00    +0.000 A 
BRANCH   5   8
ATOM      8  C   UNL     1      48.764   7.769  17.505  0.00  0.00    +0.000 C 
BRANCH   8   9
ATOM      9  N   UNL     1      49.890   6.969  18.034  0.00  0.00    +0.000 NA
ATOM     10  C   UNL     1      50.797   7.800  18.841  0.00  0.00    +0.000 C 
BRANCH   9  11
ATOM     11  C   UNL     1      49.392   5.851  18.861  0.00  0.00    +0.000 C 
BRANCH  11  12
ATOM     12  C   UNL     1      49.134   4.578  18.096  0.00  0.00    +0.000 A 
ATOM     13  C   UNL     1      47.842   4.151  17.775  0.00  0.00    +0.000 A 
ATOM     14  C   UNL     1      47.666   3.002  17.008  0.00  0.00    +0.000 A 
ATOM     15  C   UNL     1      48.790   2.306  16.598  0.00  0.00    +0.000 A 
ATOM     16  N   UNL     1      50.052   2.665  16.915  0.00  0.00    +0.000 NA
ATOM     17  C   UNL     1      50.193   3.789  17.653  0.00  0.00    +0.000 A 
ENDBRANCH  11  12
ENDBRANCH   9  11
ENDBRANCH   8   9
ENDBRANCH   5   8
ENDBRANCH   1   2
BRANCH   1  20
ATOM     18  C   UNL     1      46.321   6.887  11.201  0.00  0.00    +0.000 C 
ATOM     19  O   UNL     1      45.700   7.870  11.595  0.00  0.00    +0.000 OA
ATOM     20  N   UNL     1      47.688   6.854  11.212  0.00  0.00    +0.000 N 
ATOM     21  H   UNL     1      48.171   6.014  10.934  0.00  0.00    +0.000 HD
BRANCH  18  29
ATOM     22  C   UNL     1      44.528   4.365  12.718  0.00  0.00    +0.000 A 
ATOM     23  N   UNL     1      43.798   3.280  13.040  0.00  0.00    +0.000 NA
ATOM     24  C   UNL     1      43.426   2.458  12.057  0.00  0.00    +0.000 A 
ATOM     25  N   UNL     1      43.697   2.586  10.762  0.00  0.00    +0.000 NA
ATOM     26  C   UNL     1      44.420   3.685  10.481  0.00  0.00    +0.000 A 
ATOM     27  S   UNL     1      44.854   4.011   8.874  0.00  0.00    +0.000 S 
ATOM     28  C   UNL     1      45.669   5.430   9.327  0.00  0.00    +0.000 A 
ATOM     29  C   UNL     1      45.634   5.688  10.693  0.00  0.00    +0.000 A 
ATOM     30  C   UNL     1      44.879   4.639  11.384  0.00  0.00    +0.000 A 
BRANCH  22  32
ATOM     31  C   UNL     1      46.195   4.995  14.227  0.00  0.00    +0.000 C 
ATOM     32  O   UNL     1      44.875   5.227  13.737  0.00  0.00    +0.000 OA
ENDBRANCH  22  32
ENDBRANCH  18  29
ENDBRANCH   1  20
TORSDOF 8
ENDMDL
