MODEL 1
REMARK VINA RESULT:    -8.576      0.000      0.000
REMARK INTER + INTRA:         -13.113
REMARK INTER:                 -12.086
REMARK INTRA:                  -1.027
REMARK UNBOUND:                -1.027
REMARK  Name = 
REMARK  8 active torsions:
REMARK  status: ('A' for Active; 'I' for Inactive)
REMARK    1  A    between atoms: C_1  and  C_2
REMARK    2  A    between atoms: C_6  and  C_7
REMARK    3  A    between atoms: C_7  and  N_8
REMARK    4  A    between atoms: N_8  and  C_9
REMARK    5  A    between atoms: C_9  and  C_10
REMARK    6  A    between atoms: C_13  and  C_14
REMARK    7  A    between atoms: C_14  and  N_15
REMARK    8  A    between atoms: C_16  and  C_18
REMARK                            x       y       z     vdW  Elec       q    Type
REMARK                         _______ _______ _______ _____ _____    ______ ____
ROOT
ATOM      1  C   UNL     1      44.606   5.616  11.659  0.00  0.00    +0.000 A 
ATOM      2  C   UNL     1      44.831   5.087  12.939  0.00  0.00    +0.000 A 
ATOM      3  C   UNL     1      46.023   5.350  13.619  0.00  0.00    +0.000 A 
ATOM      4  C   UNL     1      47.011   6.152  13.036  0.00  0.00    +0.000 A 
ATOM      5  C   UNL     1      46.802   6.649  11.743  0.00  0.00    +0.000 A 
ATOM      6  C   UNL     1      45.610   6.388  11.062  0.00  0.00    +0.000 A 
ENDROOT
BRANCH   1   7
ATOM      7  C   UNL     1      43.293   5.378  10.948  0.00  0.00    +0.000 C 
BRANCH   7   8
ATOM      8  N   UNL     1      43.439   4.623   9.702  0.00  0.00    +0.000 NA
ATOM      9  H   UNL     1      42.513   4.455   9.307  0.00  0.00    +0.000 HD
BRANCH   8  10
ATOM     10  C   UNL     1      44.050   3.304   9.925  0.00  0.00    +0.000 C 
BRANCH  10  16
ATOM     11  C   UNL     1      46.780   0.004   7.598  0.00  0.00    +0.000 C 
ATOM     12  C   UNL     1      46.421   1.448   7.777  0.00  0.00    +0.000 A 
ATOM     13  C   UNL     1      47.049   2.440   7.033  0.00  0.00    +0.000 A 
ATOM     14  C   UNL     1      46.685   3.767   7.242  0.00  0.00    +0.000 A 
ATOM     15  C   UNL     1      45.711   4.063   8.186  0.00  0.00    +0.000 A 
ATOM     16  C   UNL     1      45.132   3.019   8.903  0.00  0.00    +0.000 A 
ATOM     17  N   UNL     1      45.467   1.719   8.700  0.00  0.00    +0.000 NA
ENDBRANCH  10  16
ENDBRANCH   8  10
ENDBRANCH   7   8
ENDBRANCH   1   7
BRANCH   4  18
ATOM     18  C   UNL     1      48.294   6.452  13.767  0.00  0.00    +0.000 C 
BRANCH  18  19
ATOM     19  N   UNL     1      48.062   6.604  15.181  0.00  0.00    +0.000 N 
ATOM     20  C   UNL     1      49.101   6.634  16.074  0.00  0.00    +0.000 C 
ATOM     21  O   UNL     1      50.274   6.579  15.712  0.00  0.00    +0.000 OA
ATOM     22  H   UNL     1      47.119   6.429  15.512  0.00  0.00    +0.000 HD
BRANCH  20  23
ATOM     23  C   UNL     1      48.742   6.802  17.487  0.00  0.00    +0.000 A 
ATOM     24  C   UNL     1      48.453   8.068  17.980  0.00  0.00    +0.000 A 
ATOM     25  S   UNL     1      48.014   8.075  19.628  0.00  0.00    +0.000 S 
ATOM     26  C   UNL     1      48.245   6.394  19.754  0.00  0.00    +0.000 A 
ATOM     27  N   UNL     1      48.062   5.750  20.939  0.00  0.00    +0.000 NA
ATOM     28  C   UNL     1      48.298   4.482  20.897  0.00  0.00    +0.000 A 
ATOM     29  N   UNL     1      48.694   3.795  19.778  0.00  0.00    +0.000 N 
ATOM     30  C   UNL     1      48.859   4.399  18.552  0.00  0.00    +0.000 A 
ATOM     31  O   UNL     1      49.167   3.746  17.561  0.00  0.00    +0.000 OA
ATOM     32  C   UNL     1      48.624   5.830  18.549  0.00  0.00    +0.000 A 
ATOM     33  H   UNL     1      48.852   2.801  19.808  0.00  0.00    +0.000 HD
ENDBRANCH  20  23
ENDBRANCH  18  19
ENDBRANCH   4  18
TORSDOF 7
ENDMDL
MODEL 2
REMARK VINA RESULT:    -8.278      1.313      2.163
REMARK INTER + INTRA:         -12.692
REMARK INTER:                 -11.661
REMARK INTRA:                  -1.031
REMARK UNBOUND:                -1.027
REMARK  Name = 
REMARK  8 active torsions:
REMARK  status: ('A' for Active; 'I' for Inactive)
REMARK    1  A    between atoms: C_1  and  C_2
REMARK    2  A    between atoms: C_6  and  C_7
REMARK    3  A    between atoms: C_7  and  N_8
REMARK    4  A    between atoms: N_8  and  C_9
REMARK    5  A    between atoms: C_9  and  C_10
REMARK    6  A    between atoms: C_13  and  C_14
REMARK    7  A    between atoms: C_14  and  N_15
REMARK    8  A    between atoms: C_16  and  C_18
REMARK                            x       y       z     vdW  Elec       q    Type
REMARK                         _______ _______ _______ _____ _____    ______ ____
ROOT
ATOM      1  C   UNL     1      44.567   5.684  11.928  0.00  0.00    +0.000 A 
ATOM      2  C   UNL     1      45.288   6.849  11.627  0.00  0.00    +0.000 A 
ATOM      3  C   UNL     1      46.462   7.160  12.318  0.00  0.00    +0.000 A 
ATOM      4  C   UNL     1      46.941   6.308  13.322  0.00  0.00    +0.000 A 
ATOM      5  C   UNL     1      46.200   5.165  13.648  0.00  0.00    +0.000 A 
ATOM      6  C   UNL     1      45.028   4.852  12.955  0.00  0.00    +0.000 A 
ENDROOT
BRANCH   1   7
ATOM      7  C   UNL     1      43.330   5.320  11.139  0.00  0.00    +0.000 C 
BRANCH   7   8
ATOM      8  N   UNL     1      43.630   4.737   9.830  0.00  0.00    +0.000 NA
ATOM      9  H   UNL     1      42.770   4.699   9.280  0.00  0.00    +0.000 HD
BRANCH   8  10
ATOM     10  C   UNL     1      44.123   3.355   9.942  0.00  0.00    +0.000 C 
BRANCH  10  16
ATOM     11  C   UNL     1      46.844   0.051   7.611  0.00  0.00    +0.000 C 
ATOM     12  C   UNL     1      46.474   1.493   7.778  0.00  0.00    +0.000 A 
ATOM     13  C   UNL     1      47.082   2.481   7.011  0.00  0.00    +0.000 A 
ATOM     14  C   UNL     1      46.710   3.807   7.210  0.00  0.00    +0.000 A 
ATOM     15  C   UNL     1      45.748   4.107   8.166  0.00  0.00    +0.000 A 
ATOM     16  C   UNL     1      45.190   3.067   8.906  0.00  0.00    +0.000 A 
ATOM     17  N   UNL     1      45.533   1.768   8.713  0.00  0.00    +0.000 NA
ENDBRANCH  10  16
ENDBRANCH   8  10
ENDBRANCH   7   8
ENDBRANCH   1   7
BRANCH   4  18
ATOM     18  C   UNL     1      48.212   6.628  14.065  0.00  0.00    +0.000 C 
BRANCH  18  19
ATOM     19  N   UNL     1      48.041   6.452  15.485  0.00  0.00    +0.000 N 
ATOM     20  C   UNL     1      49.114   6.243  16.311  0.00  0.00    +0.000 C 
ATOM     21  O   UNL     1      50.269   6.238  15.892  0.00  0.00    +0.000 OA
ATOM     22  H   UNL     1      47.106   6.232  15.810  0.00  0.00    +0.000 HD
BRANCH  20  23
ATOM     23  C   UNL     1      48.817   6.086  17.739  0.00  0.00    +0.000 A 
ATOM     24  C   UNL     1      49.054   4.868  18.364  0.00  0.00    +0.000 A 
ATOM     25  S   UNL     1      48.695   4.873  20.031  0.00  0.00    +0.000 S 
ATOM     26  C   UNL     1      48.158   6.487  19.966  0.00  0.00    +0.000 A 
ATOM     27  N   UNL     1      47.676   7.108  21.077  0.00  0.00    +0.000 NA
ATOM     28  C   UNL     1      47.280   8.321  20.877  0.00  0.00    +0.000 A 
ATOM     29  N   UNL     1      47.327   8.973  19.672  0.00  0.00    +0.000 N 
ATOM     30  C   UNL     1      47.837   8.396  18.531  0.00  0.00    +0.000 A 
ATOM     31  O   UNL     1      47.908   9.023  17.481  0.00  0.00    +0.000 OA
ATOM     32  C   UNL     1      48.279   7.024  18.697  0.00  0.00    +0.000 A 
ATOM     33  H   UNL     1      47.011   9.925  19.584  0.00  0.00    +0.000 HD
ENDBRANCH  20  23
ENDBRANCH  18  19
ENDBRANCH   4  18
TORSDOF 7
ENDMDL
MODEL 3
REMARK VINA RESULT:    -7.978      1.528      2.045
REMARK INTER + INTRA:         -12.269
REMARK INTER:                 -11.245
REMARK INTRA:                  -1.024
REMARK UNBOUND:                -1.027
REMARK  Name = 
REMARK  8 active torsions:
REMARK  status: ('A' for Active; 'I' for Inactive)
REMARK    1  A    between atoms: C_1  and  C_2
REMARK    2  A    between atoms: C_6  and  C_7
REMARK    3  A    between atoms: C_7  and  N_8
REMARK    4  A    between atoms: N_8  and  C_9
REMARK    5  A    between atoms: C_9  and  C_10
REMARK    6  A    between atoms: C_13  and  C_14
REMARK    7  A    between atoms: C_14  and  N_15
REMARK    8  A    between atoms: C_16  and  C_18
REMARK                            x       y       z     vdW  Elec       q    Type
REMARK                         _______ _______ _______ _____ _____    ______ ____
ROOT
ATOM      1  C   UNL     1      44.383   5.392  11.619  0.00  0.00    +0.000 A 
ATOM      2  C   UNL     1      44.305   6.792  11.585  0.00  0.00    +0.000 A 
ATOM      3  C   UNL     1      45.310   7.576  12.156  0.00  0.00    +0.000 A 
ATOM      4  C   UNL     1      46.416   6.975  12.770  0.00  0.00    +0.000 A 
ATOM      5  C   UNL     1      46.474   5.577  12.839  0.00  0.00    +0.000 A 
ATOM      6  C   UNL     1      45.472   4.793  12.265  0.00  0.00    +0.000 A 
ENDROOT
BRANCH   1   7
ATOM      7  C   UNL     1      43.324   4.546  10.949  0.00  0.00    +0.000 C 
BRANCH   7   8
ATOM      8  N   UNL     1      43.880   3.491  10.098  0.00  0.00    +0.000 NA
ATOM      9  H   UNL     1      44.654   3.043  10.591  0.00  0.00    +0.000 HD
BRANCH   8  10
ATOM     10  C   UNL     1      44.432   4.028   8.845  0.00  0.00    +0.000 C 
BRANCH  10  16
ATOM     11  C   UNL     1      47.445   2.995   5.156  0.00  0.00    +0.000 C 
ATOM     12  C   UNL     1      46.796   2.534   6.424  0.00  0.00    +0.000 A 
ATOM     13  C   UNL     1      47.039   1.262   6.932  0.00  0.00    +0.000 A 
ATOM     14  C   UNL     1      46.406   0.878   8.110  0.00  0.00    +0.000 A 
ATOM     15  C   UNL     1      45.548   1.769   8.742  0.00  0.00    +0.000 A 
ATOM     16  C   UNL     1      45.343   3.023   8.170  0.00  0.00    +0.000 A 
ATOM     17  N   UNL     1      45.965   3.416   7.030  0.00  0.00    +0.000 NA
ENDBRANCH  10  16
ENDBRANCH   8  10
ENDBRANCH   7   8
ENDBRANCH   1   7
BRANCH   4  18
ATOM     18  C   UNL     1      47.511   7.812  13.379  0.00  0.00    +0.000 C 
BRANCH  18  19
ATOM     19  N   UNL     1      47.873   7.323  14.685  0.00  0.00    +0.000 N 
ATOM     20  C   UNL     1      49.164   6.977  14.984  0.00  0.00    +0.000 C 
ATOM     21  O   UNL     1      50.078   7.106  14.173  0.00  0.00    +0.000 OA
ATOM     22  H   UNL     1      47.116   7.005  15.281  0.00  0.00    +0.000 HD
BRANCH  20  23
ATOM     23  C   UNL     1      49.413   6.500  16.349  0.00  0.00    +0.000 A 
ATOM     24  C   UNL     1      50.209   7.247  17.207  0.00  0.00    +0.000 A 
ATOM     25  S   UNL     1      50.357   6.571  18.766  0.00  0.00    +0.000 S 
ATOM     26  C   UNL     1      49.406   5.229  18.334  0.00  0.00    +0.000 A 
ATOM     27  N   UNL     1      49.161   4.229  19.224  0.00  0.00    +0.000 NA
ATOM     28  C   UNL     1      48.448   3.261  18.754  0.00  0.00    +0.000 A 
ATOM     29  N   UNL     1      47.950   3.201  17.478  0.00  0.00    +0.000 N 
ATOM     30  C   UNL     1      48.144   4.204  16.555  0.00  0.00    +0.000 A 
ATOM     31  O   UNL     1      47.645   4.141  15.437  0.00  0.00    +0.000 OA
ATOM     32  C   UNL     1      48.957   5.308  17.027  0.00  0.00    +0.000 A 
ATOM     33  H   UNL     1      47.390   2.421  17.175  0.00  0.00    +0.000 HD
ENDBRANCH  20  23
ENDBRANCH  18  19
ENDBRANCH   4  18
TORSDOF 7
ENDMDL
MODEL 4
REMARK VINA RESULT:    -7.497      3.186      8.908
REMARK INTER + INTRA:         -11.592
REMARK INTER:                  -9.987
REMARK INTRA:                  -1.606
REMARK UNBOUND:                -1.027
REMARK  Name = 
REMARK  8 active torsions:
REMARK  status: ('A' for Active; 'I' for Inactive)
REMARK    1  A    between atoms: C_1  and  C_2
REMARK    2  A    between atoms: C_6  and  C_7
REMARK    3  A    between atoms: C_7  and  N_8
REMARK    4  A    between atoms: N_8  and  C_9
REMARK    5  A    between atoms: C_9  and  C_10
REMARK    6  A    between atoms: C_13  and  C_14
REMARK    7  A    between atoms: C_14  and  N_15
REMARK    8  A    between atoms: C_16  and  C_18
REMARK                            x       y       z     vdW  Elec       q    Type
REMARK                         _______ _______ _______ _____ _____    ______ ____
ROOT
ATOM      1  C   UNL     1      48.922   7.855  16.135  0.00  0.00    +0.000 A 
ATOM      2  C   UNL     1      48.184   8.939  15.634  0.00  0.00    +0.000 A 
ATOM      3  C   UNL     1      47.698   8.925  14.324  0.00  0.00    +0.000 A 
ATOM      4  C   UNL     1      47.935   7.825  13.491  0.00  0.00    +0.000 A 
ATOM      5  C   UNL     1      48.704   6.760  13.979  0.00  0.00    +0.000 A 
ATOM      6  C   UNL     1      49.188   6.772  15.289  0.00  0.00    +0.000 A 
ENDROOT
BRANCH   1   7
ATOM      7  C   UNL     1      49.397   7.847  17.570  0.00  0.00    +0.000 C 
BRANCH   7   8
ATOM      8  N   UNL     1      48.329   7.562  18.531  0.00  0.00    +0.000 NA
ATOM      9  H   UNL     1      48.269   8.334  19.197  0.00  0.00    +0.000 HD
BRANCH   8  10
ATOM     10  C   UNL     1      48.601   6.348  19.314  0.00  0.00    +0.000 C 
BRANCH  10  16
ATOM     11  C   UNL     1      50.777   2.451  17.356  0.00  0.00    +0.000 C 
ATOM     12  C   UNL     1      49.513   3.234  17.539  0.00  0.00    +0.000 A 
ATOM     13  C   UNL     1      48.322   2.817  16.956  0.00  0.00    +0.000 A 
ATOM     14  C   UNL     1      47.176   3.583  17.150  0.00  0.00    +0.000 A 
ATOM     15  C   UNL     1      47.254   4.740  17.913  0.00  0.00    +0.000 A 
ATOM     16  C   UNL     1      48.484   5.103  18.458  0.00  0.00    +0.000 A 
ATOM     17  N   UNL     1      49.606   4.358  18.289  0.00  0.00    +0.000 NA
ENDBRANCH  10  16
ENDBRANCH   8  10
ENDBRANCH   7   8
ENDBRANCH   1   7
BRANCH   4  18
ATOM     18  C   UNL     1      47.405   7.795  12.081  0.00  0.00    +0.000 C 
BRANCH  18  19
ATOM     19  N   UNL     1      46.746   6.545  11.801  0.00  0.00    +0.000 N 
ATOM     20  C   UNL     1      45.381   6.432  11.849  0.00  0.00    +0.000 C 
ATOM     21  O   UNL     1      44.655   7.394  12.089  0.00  0.00    +0.000 OA
ATOM     22  H   UNL     1      47.321   5.709  11.822  0.00  0.00    +0.000 HD
BRANCH  20  23
ATOM     23  C   UNL     1      44.824   5.111  11.536  0.00  0.00    +0.000 A 
ATOM     24  C   UNL     1      44.094   4.425  12.498  0.00  0.00    +0.000 A 
ATOM     25  S   UNL     1      43.485   2.928  11.955  0.00  0.00    +0.000 S 
ATOM     26  C   UNL     1      44.219   3.119  10.432  0.00  0.00    +0.000 A 
ATOM     27  N   UNL     1      44.112   2.154   9.478  0.00  0.00    +0.000 NA
ATOM     28  C   UNL     1      44.742   2.419   8.382  0.00  0.00    +0.000 A 
ATOM     29  N   UNL     1      45.463   3.562   8.148  0.00  0.00    +0.000 N 
ATOM     30  C   UNL     1      45.571   4.577   9.070  0.00  0.00    +0.000 A 
ATOM     31  O   UNL     1      46.183   5.607   8.811  0.00  0.00    +0.000 OA
ATOM     32  C   UNL     1      44.897   4.321  10.329  0.00  0.00    +0.000 A 
ATOM     33  H   UNL     1      45.923   3.714   7.265  0.00  0.00    +0.000 HD
ENDBRANCH  20  23
ENDBRANCH  18  19
ENDBRANCH   4  18
TORSDOF 7
ENDMDL
MODEL 5
REMARK VINA RESULT:    -7.330      3.426      8.390
REMARK INTER + INTRA:         -11.357
REMARK INTER:                  -9.830
REMARK INTRA:                  -1.527
REMARK UNBOUND:                -1.027
REMARK  Name = 
REMARK  8 active torsions:
REMARK  status: ('A' for Active; 'I' for Inactive)
REMARK    1  A    between atoms: C_1  and  C_2
REMARK    2  A    between atoms: C_6  and  C_7
REMARK    3  A    between atoms: C_7  and  N_8
REMARK    4  A    between atoms: N_8  and  C_9
REMARK    5  A    between atoms: C_9  and  C_10
REMARK    6  A    between atoms: C_13  and  C_14
REMARK    7  A    between atoms: C_14  and  N_15
REMARK    8  A    between atoms: C_16  and  C_18
REMARK                            x       y       z     vdW  Elec       q    Type
REMARK                         _______ _______ _______ _____ _____    ______ ____
ROOT
ATOM      1  C   UNL     1      48.650   7.831  16.342  0.00  0.00    +0.000 A 
ATOM      2  C   UNL     1      48.158   9.014  15.769  0.00  0.00    +0.000 A 
ATOM      3  C   UNL     1      48.000   9.124  14.385  0.00  0.00    +0.000 A 
ATOM      4  C   UNL     1      48.328   8.051  13.546  0.00  0.00    +0.000 A 
ATOM      5  C   UNL     1      48.856   6.885  14.115  0.00  0.00    +0.000 A 
ATOM      6  C   UNL     1      49.011   6.773  15.499  0.00  0.00    +0.000 A 
ENDROOT
BRANCH   1   7
ATOM      7  C   UNL     1      48.765   7.694  17.843  0.00  0.00    +0.000 C 
BRANCH   7   8
ATOM      8  N   UNL     1      47.620   7.010  18.450  0.00  0.00    +0.000 NA
ATOM      9  H   UNL     1      47.176   7.641  19.119  0.00  0.00    +0.000 HD
BRANCH   8  10
ATOM     10  C   UNL     1      48.026   5.813  19.200  0.00  0.00    +0.000 C 
BRANCH  10  16
ATOM     11  C   UNL     1      51.104   2.424  17.527  0.00  0.00    +0.000 C 
ATOM     12  C   UNL     1      49.725   3.009  17.489  0.00  0.00    +0.000 A 
ATOM     13  C   UNL     1      48.747   2.482  16.653  0.00  0.00    +0.000 A 
ATOM     14  C   UNL     1      47.483   3.065  16.649  0.00  0.00    +0.000 A 
ATOM     15  C   UNL     1      47.236   4.156  17.472  0.00  0.00    +0.000 A 
ATOM     16  C   UNL     1      48.268   4.639  18.274  0.00  0.00    +0.000 A 
ATOM     17  N   UNL     1      49.500   4.071  18.299  0.00  0.00    +0.000 NA
ENDBRANCH  10  16
ENDBRANCH   8  10
ENDBRANCH   7   8
ENDBRANCH   1   7
BRANCH   4  18
ATOM     18  C   UNL     1      48.150   8.156  12.054  0.00  0.00    +0.000 C 
BRANCH  18  19
ATOM     19  N   UNL     1      47.486   6.991  11.528  0.00  0.00    +0.000 N 
ATOM     20  C   UNL     1      46.138   6.991  11.280  0.00  0.00    +0.000 C 
ATOM     21  O   UNL     1      45.443   7.989  11.452  0.00  0.00    +0.000 OA
ATOM     22  H   UNL     1      47.986   6.111  11.590  0.00  0.00    +0.000 HD
BRANCH  20  23
ATOM     23  C   UNL     1      45.575   5.749  10.737  0.00  0.00    +0.000 A 
ATOM     24  C   UNL     1      45.754   5.440   9.395  0.00  0.00    +0.000 A 
ATOM     25  S   UNL     1      45.074   3.943   8.941  0.00  0.00    +0.000 S 
ATOM     26  C   UNL     1      44.470   3.680  10.510  0.00  0.00    +0.000 A 
ATOM     27  N   UNL     1      43.744   2.567  10.802  0.00  0.00    +0.000 NA
ATOM     28  C   UNL     1      43.325   2.510  12.022  0.00  0.00    +0.000 A 
ATOM     29  N   UNL     1      43.571   3.460  12.981  0.00  0.00    +0.000 N 
ATOM     30  C   UNL     1      44.327   4.584  12.739  0.00  0.00    +0.000 A 
ATOM     31  O   UNL     1      44.568   5.390  13.631  0.00  0.00    +0.000 OA
ATOM     32  C   UNL     1      44.806   4.706  11.376  0.00  0.00    +0.000 A 
ATOM     33  H   UNL     1      43.225   3.351  13.920  0.00  0.00    +0.000 HD
ENDBRANCH  20  23
ENDBRANCH  18  19
ENDBRANCH   4  18
TORSDOF 7
ENDMDL
MODEL 6
REMARK VINA RESULT:    -7.271      4.809      9.768
REMARK INTER + INTRA:         -11.273
REMARK INTER:                 -10.377
REMARK INTRA:                  -0.896
REMARK UNBOUND:                -1.027
REMARK  Name = 
REMARK  8 active torsions:
REMARK  status: ('A' for Active; 'I' for Inactive)
REMARK    1  A    between atoms: C_1  and  C_2
REMARK    2  A    between atoms: C_6  and  C_7
REMARK    3  A    between atoms: C_7  and  N_8
REMARK    4  A    between atoms: N_8  and  C_9
REMARK    5  A    between atoms: C_9  and  C_10
REMARK    6  A    between atoms: C_13  and  C_14
REMARK    7  A    between atoms: C_14  and  N_15
REMARK    8  A    between atoms: C_16  and  C_18
REMARK                            x       y       z     vdW  Elec       q    Type
REMARK                         _______ _______ _______ _____ _____    ______ ____
ROOT
ATOM      1  C   UNL     1      51.385   3.515  17.766  0.00  0.00    +0.000 A 
ATOM      2  C   UNL     1      50.585   4.665  17.840  0.00  0.00    +0.000 A 
ATOM      3  C   UNL     1      49.223   4.608  17.531  0.00  0.00    +0.000 A 
ATOM      4  C   UNL     1      48.633   3.398  17.145  0.00  0.00    +0.000 A 
ATOM      5  C   UNL     1      49.440   2.258  17.033  0.00  0.00    +0.000 A 
ATOM      6  C   UNL     1      50.800   2.314  17.345  0.00  0.00    +0.000 A 
ENDROOT
BRANCH   1   7
ATOM      7  C   UNL     1      52.844   3.566  18.157  0.00  0.00    +0.000 C 
BRANCH   7   8
ATOM      8  N   UNL     1      53.183   2.647  19.246  0.00  0.00    +0.000 NA
ATOM      9  H   UNL     1      53.085   3.138  20.135  0.00  0.00    +0.000 HD
BRANCH   8  10
ATOM     10  C   UNL     1      54.577   2.187  19.166  0.00  0.00    +0.000 C 
BRANCH  10  16
ATOM     11  C   UNL     1      54.075  -2.659  19.314  0.00  0.00    +0.000 C 
ATOM     12  C   UNL     1      54.421  -1.448  18.502  0.00  0.00    +0.000 A 
ATOM     13  C   UNL     1      54.798  -1.563  17.168  0.00  0.00    +0.000 A 
ATOM     14  C   UNL     1      55.117  -0.409  16.459  0.00  0.00    +0.000 A 
ATOM     15  C   UNL     1      55.054   0.821  17.100  0.00  0.00    +0.000 A 
ATOM     16  C   UNL     1      54.679   0.860  18.441  0.00  0.00    +0.000 A 
ATOM     17  N   UNL     1      54.351  -0.256  19.141  0.00  0.00    +0.000 NA
ENDBRANCH  10  16
ENDBRANCH   8  10
ENDBRANCH   7   8
ENDBRANCH   1   7
BRANCH   4  18
ATOM     18  C   UNL     1      47.164   3.324  16.821  0.00  0.00    +0.000 C 
BRANCH  18  19
ATOM     19  N   UNL     1      46.790   4.341  15.871  0.00  0.00    +0.000 N 
ATOM     20  C   UNL     1      46.867   4.117  14.521  0.00  0.00    +0.000 C 
ATOM     21  O   UNL     1      47.213   3.033  14.058  0.00  0.00    +0.000 OA
ATOM     22  H   UNL     1      46.720   5.291  16.220  0.00  0.00    +0.000 HD
BRANCH  20  23
ATOM     23  C   UNL     1      46.451   5.224  13.651  0.00  0.00    +0.000 A 
ATOM     24  C   UNL     1      47.312   6.293  13.438  0.00  0.00    +0.000 A 
ATOM     25  S   UNL     1      46.690   7.468  12.370  0.00  0.00    +0.000 S 
ATOM     26  C   UNL     1      45.227   6.616  12.196  0.00  0.00    +0.000 A 
ATOM     27  N   UNL     1      44.222   7.103  11.420  0.00  0.00    +0.000 NA
ATOM     28  C   UNL     1      43.160   6.368  11.401  0.00  0.00    +0.000 A 
ATOM     29  N   UNL     1      43.013   5.186  12.080  0.00  0.00    +0.000 N 
ATOM     30  C   UNL     1      44.015   4.639  12.850  0.00  0.00    +0.000 A 
ATOM     31  O   UNL     1      43.867   3.556  13.405  0.00  0.00    +0.000 OA
ATOM     32  C   UNL     1      45.224   5.437  12.920  0.00  0.00    +0.000 A 
ATOM     33  H   UNL     1      42.162   4.652  12.015  0.00  0.00    +0.000 HD
ENDBRANCH  20  23
ENDBRANCH  18  19
ENDBRANCH   4  18
TORSDOF 7
ENDMDL
MODEL 7
REMARK VINA RESULT:    -6.993      3.702      9.147
REMARK INTER + INTRA:         -10.881
REMARK INTER:                  -9.342
REMARK INTRA:                  -1.539
REMARK UNBOUND:                -1.027
REMARK  Name = 
REMARK  8 active torsions:
REMARK  status: ('A' for Active; 'I' for Inactive)
REMARK    1  A    between atoms: C_1  and  C_2
REMARK    2  A    between atoms: C_6  and  C_7
REMARK    3  A    between atoms: C_7  and  N_8
REMARK    4  A    between atoms: N_8  and  C_9
REMARK    5  A    between atoms: C_9  and  C_10
REMARK    6  A    between atoms: C_13  and  C_14
REMARK    7  A    between atoms: C_14  and  N_15
REMARK    8  A    between atoms: C_16  and  C_18
REMARK                            x       y       z     vdW  Elec       q    Type
REMARK                         _______ _______ _______ _____ _____    ______ ____
ROOT
ATOM      1  C   UNL     1      49.183   5.651  19.884  0.00  0.00    +0.000 A 
ATOM      2  C   UNL     1      49.970   4.778  19.118  0.00  0.00    +0.000 A 
ATOM      3  C   UNL     1      49.425   4.104  18.021  0.00  0.00    +0.000 A 
ATOM      4  C   UNL     1      48.084   4.295  17.665  0.00  0.00    +0.000 A 
ATOM      5  C   UNL     1      47.290   5.137  18.454  0.00  0.00    +0.000 A 
ATOM      6  C   UNL     1      47.834   5.813  19.548  0.00  0.00    +0.000 A 
ENDROOT
BRANCH   1   7
ATOM      7  C   UNL     1      49.789   6.423  21.034  0.00  0.00    +0.000 C 
BRANCH   7   8
ATOM      8  N   UNL     1      49.597   7.871  20.922  0.00  0.00    +0.000 NA
ATOM      9  H   UNL     1      48.634   8.055  20.638  0.00  0.00    +0.000 HD
BRANCH   8  10
ATOM     10  C   UNL     1      50.463   8.465  19.893  0.00  0.00    +0.000 C 
BRANCH  10  16
ATOM     11  C   UNL     1      49.744   7.158  15.253  0.00  0.00    +0.000 C 
ATOM     12  C   UNL     1      49.348   8.048  16.391  0.00  0.00    +0.000 A 
ATOM     13  C   UNL     1      48.343   8.997  16.242  0.00  0.00    +0.000 A 
ATOM     14  C   UNL     1      48.018   9.805  17.328  0.00  0.00    +0.000 A 
ATOM     15  C   UNL     1      48.705   9.645  18.523  0.00  0.00    +0.000 A 
ATOM     16  C   UNL     1      49.709   8.681  18.597  0.00  0.00    +0.000 A 
ATOM     17  N   UNL     1      50.027   7.877  17.551  0.00  0.00    +0.000 NA
ENDBRANCH  10  16
ENDBRANCH   8  10
ENDBRANCH   7   8
ENDBRANCH   1   7
BRANCH   4  18
ATOM     18  C   UNL     1      47.491   3.583  16.478  0.00  0.00    +0.000 C 
BRANCH  18  19
ATOM     19  N   UNL     1      46.865   4.514  15.574  0.00  0.00    +0.000 N 
ATOM     20  C   UNL     1      46.778   4.255  14.231  0.00  0.00    +0.000 C 
ATOM     21  O   UNL     1      47.188   3.205  13.741  0.00  0.00    +0.000 OA
ATOM     22  H   UNL     1      46.727   5.460  15.914  0.00  0.00    +0.000 HD
BRANCH  20  23
ATOM     23  C   UNL     1      46.111   5.274  13.412  0.00  0.00    +0.000 A 
ATOM     24  C   UNL     1      46.736   6.493  13.185  0.00  0.00    +0.000 A 
ATOM     25  S   UNL     1      45.842   7.541  12.179  0.00  0.00    +0.000 S 
ATOM     26  C   UNL     1      44.566   6.424  12.054  0.00  0.00    +0.000 A 
ATOM     27  N   UNL     1      43.445   6.718  11.341  0.00  0.00    +0.000 NA
ATOM     28  C   UNL     1      42.547   5.791  11.355  0.00  0.00    +0.000 A 
ATOM     29  N   UNL     1      42.667   4.592  12.010  0.00  0.00    +0.000 N 
ATOM     30  C   UNL     1      43.795   4.238  12.715  0.00  0.00    +0.000 A 
ATOM     31  O   UNL     1      43.890   3.138  13.249  0.00  0.00    +0.000 OA
ATOM     32  C   UNL     1      44.829   5.255  12.747  0.00  0.00    +0.000 A 
ATOM     33  H   UNL     1      41.933   3.904  11.972  0.00  0.00    +0.000 HD
ENDBRANCH  20  23
ENDBRANCH  18  19
ENDBRANCH   4  18
TORSDOF 7
ENDMDL
MODEL 8
REMARK VINA RESULT:    -6.915      3.614      8.983
REMARK INTER + INTRA:         -10.772
REMARK INTER:                  -9.582
REMARK INTRA:                  -1.190
REMARK UNBOUND:                -1.027
REMARK  Name = 
REMARK  8 active torsions:
REMARK  status: ('A' for Active; 'I' for Inactive)
REMARK    1  A    between atoms: C_1  and  C_2
REMARK    2  A    between atoms: C_6  and  C_7
REMARK    3  A    between atoms: C_7  and  N_8
REMARK    4  A    between atoms: N_8  and  C_9
REMARK    5  A    between atoms: C_9  and  C_10
REMARK    6  A    between atoms: C_13  and  C_14
REMARK    7  A    between atoms: C_14  and  N_15
REMARK    8  A    between atoms: C_16  and  C_18
REMARK                            x       y       z     vdW  Elec       q    Type
REMARK                         _______ _______ _______ _____ _____    ______ ____
ROOT
ATOM      1  C   UNL     1      49.964   8.022  14.990  0.00  0.00    +0.000 A 
ATOM      2  C   UNL     1      50.165   7.424  13.737  0.00  0.00    +0.000 A 
ATOM      3  C   UNL     1      49.155   7.435  12.772  0.00  0.00    +0.000 A 
ATOM      4  C   UNL     1      47.924   8.048  13.039  0.00  0.00    +0.000 A 
ATOM      5  C   UNL     1      47.711   8.611  14.304  0.00  0.00    +0.000 A 
ATOM      6  C   UNL     1      48.721   8.603  15.268  0.00  0.00    +0.000 A 
ENDROOT
BRANCH   1   7
ATOM      7  C   UNL     1      51.078   8.061  16.011  0.00  0.00    +0.000 C 
BRANCH   7   8
ATOM      8  N   UNL     1      51.732   6.764  16.203  0.00  0.00    +0.000 NA
ATOM      9  H   UNL     1      51.393   6.115  15.491  0.00  0.00    +0.000 HD
BRANCH   8  10
ATOM     10  C   UNL     1      51.404   6.169  17.508  0.00  0.00    +0.000 C 
BRANCH  10  16
ATOM     11  C   UNL     1      47.154   4.235  16.112  0.00  0.00    +0.000 C 
ATOM     12  C   UNL     1      48.527   4.004  16.665  0.00  0.00    +0.000 A 
ATOM     13  C   UNL     1      48.961   2.724  16.993  0.00  0.00    +0.000 A 
ATOM     14  C   UNL     1      50.242   2.563  17.511  0.00  0.00    +0.000 A 
ATOM     15  C   UNL     1      51.049   3.679  17.688  0.00  0.00    +0.000 A 
ATOM     16  C   UNL     1      50.544   4.932  17.348  0.00  0.00    +0.000 A 
ATOM     17  N   UNL     1      49.301   5.103  16.829  0.00  0.00    +0.000 NA
ENDBRANCH  10  16
ENDBRANCH   8  10
ENDBRANCH   7   8
ENDBRANCH   1   7
BRANCH   4  18
ATOM     18  C   UNL     1      46.833   8.075  12.001  0.00  0.00    +0.000 C 
BRANCH  18  19
ATOM     19  N   UNL     1      46.324   6.751  11.749  0.00  0.00    +0.000 N 
ATOM     20  C   UNL     1      44.994   6.535  11.496  0.00  0.00    +0.000 C 
ATOM     21  O   UNL     1      44.185   7.457  11.430  0.00  0.00    +0.000 OA
ATOM     22  H   UNL     1      46.918   5.973  12.015  0.00  0.00    +0.000 HD
BRANCH  20  23
ATOM     23  C   UNL     1      44.595   5.146  11.246  0.00  0.00    +0.000 A 
ATOM     24  C   UNL     1      43.817   4.473  12.180  0.00  0.00    +0.000 A 
ATOM     25  S   UNL     1      43.408   2.885  11.712  0.00  0.00    +0.000 S 
ATOM     26  C   UNL     1      44.301   3.021  10.269  0.00  0.00    +0.000 A 
ATOM     27  N   UNL     1      44.392   1.977   9.402  0.00  0.00    +0.000 NA
ATOM     28  C   UNL     1      45.122   2.211   8.363  0.00  0.00    +0.000 A 
ATOM     29  N   UNL     1      45.765   3.395   8.107  0.00  0.00    +0.000 N 
ATOM     30  C   UNL     1      45.674   4.487   8.939  0.00  0.00    +0.000 A 
ATOM     31  O   UNL     1      46.222   5.547   8.655  0.00  0.00    +0.000 OA
ATOM     32  C   UNL     1      44.879   4.271  10.132  0.00  0.00    +0.000 A 
ATOM     33  H   UNL     1      46.312   3.518   7.271  0.00  0.00    +0.000 HD
ENDBRANCH  20  23
ENDBRANCH  18  19
ENDBRANCH   4  18
TORSDOF 7
ENDMDL
MODEL 9
REMARK VINA RESULT:    -6.467      2.127      3.106
REMARK INTER + INTRA:         -10.141
REMARK INTER:                  -8.771
REMARK INTRA:                  -1.370
REMARK UNBOUND:                -1.027
REMARK  Name = 
REMARK  8 active torsions:
REMARK  status: ('A' for Active; 'I' for Inactive)
REMARK    1  A    between atoms: C_1  and  C_2
REMARK    2  A    between atoms: C_6  and  C_7
REMARK    3  A    between atoms: C_7  and  N_8
REMARK    4  A    between atoms: N_8  and  C_9
REMARK    5  A    between atoms: C_9  and  C_10
REMARK    6  A    between atoms: C_13  and  C_14
REMARK    7  A    between atoms: C_14  and  N_15
REMARK    8  A    between atoms: C_16  and  C_18
REMARK                            x       y       z     vdW  Elec       q    Type
REMARK                         _______ _______ _______ _____ _____    ______ ____
ROOT
ATOM      1  C   UNL     1      45.286   7.398  11.470  0.00  0.00    +0.000 A 
ATOM      2  C   UNL     1      45.303   8.364  12.487  0.00  0.00    +0.000 A 
ATOM      3  C   UNL     1      46.469   8.611  13.216  0.00  0.00    +0.000 A 
ATOM      4  C   UNL     1      47.643   7.900  12.940  0.00  0.00    +0.000 A 
ATOM      5  C   UNL     1      47.616   6.909  11.951  0.00  0.00    +0.000 A 
ATOM      6  C   UNL     1      46.452   6.663  11.219  0.00  0.00    +0.000 A 
ENDROOT
BRANCH   1   7
ATOM      7  C   UNL     1      44.041   7.173  10.643  0.00  0.00    +0.000 C 
BRANCH   7   8
ATOM      8  N   UNL     1      42.807   7.222  11.431  0.00  0.00    +0.000 NA
ATOM      9  H   UNL     1      43.027   7.567  12.367  0.00  0.00    +0.000 HD
BRANCH   8  10
ATOM     10  C   UNL     1      42.208   5.890  11.601  0.00  0.00    +0.000 C 
BRANCH  10  16
ATOM     11  C   UNL     1      44.812   2.392   9.423  0.00  0.00    +0.000 C 
ATOM     12  C   UNL     1      44.531   3.164  10.676  0.00  0.00    +0.000 A 
ATOM     13  C   UNL     1      45.224   2.899  11.852  0.00  0.00    +0.000 A 
ATOM     14  C   UNL     1      44.921   3.639  12.991  0.00  0.00    +0.000 A 
ATOM     15  C   UNL     1      43.935   4.615  12.924  0.00  0.00    +0.000 A 
ATOM     16  C   UNL     1      43.273   4.818  11.716  0.00  0.00    +0.000 A 
ATOM     17  N   UNL     1      43.568   4.114  10.593  0.00  0.00    +0.000 NA
ENDBRANCH  10  16
ENDBRANCH   8  10
ENDBRANCH   7   8
ENDBRANCH   1   7
BRANCH   4  18
ATOM     18  C   UNL     1      48.908   8.168  13.713  0.00  0.00    +0.000 C 
BRANCH  18  19
ATOM     19  N   UNL     1      49.047   7.251  14.815  0.00  0.00    +0.000 N 
ATOM     20  C   UNL     1      48.743   7.627  16.098  0.00  0.00    +0.000 C 
ATOM     21  O   UNL     1      48.300   8.742  16.363  0.00  0.00    +0.000 OA
ATOM     22  H   UNL     1      49.610   6.422  14.654  0.00  0.00    +0.000 HD
BRANCH  20  23
ATOM     23  C   UNL     1      48.916   6.604  17.136  0.00  0.00    +0.000 A 
ATOM     24  C   UNL     1      49.676   6.887  18.264  0.00  0.00    +0.000 A 
ATOM     25  S   UNL     1      49.737   5.605  19.386  0.00  0.00    +0.000 S 
ATOM     26  C   UNL     1      48.794   4.607  18.381  0.00  0.00    +0.000 A 
ATOM     27  N   UNL     1      48.493   3.331  18.746  0.00  0.00    +0.000 NA
ATOM     28  C   UNL     1      47.795   2.680  17.877  0.00  0.00    +0.000 A 
ATOM     29  N   UNL     1      47.362   3.188  16.679  0.00  0.00    +0.000 N 
ATOM     30  C   UNL     1      47.614   4.482  16.284  0.00  0.00    +0.000 A 
ATOM     31  O   UNL     1      47.172   4.920  15.227  0.00  0.00    +0.000 OA
ATOM     32  C   UNL     1      48.413   5.252  17.218  0.00  0.00    +0.000 A 
ATOM     33  H   UNL     1      46.810   2.631  16.048  0.00  0.00    +0.000 HD
ENDBRANCH  20  23
ENDBRANCH  18  19
ENDBRANCH   4  18
TORSDOF 7
ENDMDL
