MODEL 1
REMARK VINA RESULT:    -8.088      0.000      0.000
REMARK INTER + INTRA:         -11.782
REMARK INTER:                 -10.924
REMARK INTRA:                  -0.857
REMARK UNBOUND:                -0.857
REMARK  Name = 
REMARK  7 active torsions:
REMARK  status: ('A' for Active; 'I' for Inactive)
REMARK    1  A    between atoms: C_1  and  O_2
REMARK    2  A    between atoms: O_2  and  C_3
REMARK    3  A    between atoms: C_6  and  C_7
REMARK    4  A    between atoms: C_11  and  C_12
REMARK    5  A    between atoms: C_12  and  O_13
REMARK    6  A    between atoms: O_13  and  C_14
REMARK    7  A    between atoms: C_17  and  C_18
REMARK                            x       y       z     vdW  Elec       q    Type
REMARK                         _______ _______ _______ _____ _____    ______ ____
ROOT
ATOM      1  C   UNL     1      46.432   6.197  12.538  0.00  0.00    +0.000 A 
ATOM      2  C   UNL     1      47.107   5.277  13.337  0.00  0.00    +0.000 A 
ATOM      3  C   UNL     1      46.573   4.003  13.508  0.00  0.00    +0.000 A 
ATOM      4  C   UNL     1      45.375   3.673  12.884  0.00  0.00    +0.000 A 
ATOM      5  C   UNL     1      44.751   4.631  12.092  0.00  0.00    +0.000 A 
ATOM      6  N   UNL     1      45.267   5.873  11.917  0.00  0.00    +0.000 NA
ENDROOT
BRANCH   1  10
ATOM      7  C   UNL     1      47.827  10.218  11.825  0.00  0.00    +0.000 A 
ATOM      8  C   UNL     1      46.488   9.971  12.112  0.00  0.00    +0.000 A 
ATOM      9  C   UNL     1      46.052   8.662  12.340  0.00  0.00    +0.000 A 
ATOM     10  C   UNL     1      46.930   7.564  12.279  0.00  0.00    +0.000 A 
ATOM     11  C   UNL     1      48.273   7.837  11.966  0.00  0.00    +0.000 A 
ATOM     12  C   UNL     1      48.712   9.146  11.732  0.00  0.00    +0.000 A 
BRANCH   7  14
ATOM     13  C   UNL     1      49.263  11.516  10.479  0.00  0.00    +0.000 C 
ATOM     14  O   UNL     1      48.365  11.452  11.585  0.00  0.00    +0.000 OA
ENDBRANCH   7  14
ENDBRANCH   1  10
BRANCH   5  15
ATOM     15  C   UNL     1      43.466   4.308  11.361  0.00  0.00    +0.000 C 
BRANCH  15  16
ATOM     16  O   UNL     1      43.614   4.570   9.961  0.00  0.00    +0.000 OA
BRANCH  16  17
ATOM     17  C   UNL     1      44.513   3.791   9.289  0.00  0.00    +0.000 A 
ATOM     18  C   UNL     1      44.647   2.408   9.390  0.00  0.00    +0.000 A 
ATOM     19  C   UNL     1      45.596   1.747   8.609  0.00  0.00    +0.000 A 
ATOM     20  C   UNL     1      46.388   2.497   7.747  0.00  0.00    +0.000 A 
ATOM     21  N   UNL     1      46.303   3.854   7.628  0.00  0.00    +0.000 NA
ATOM     22  C   UNL     1      45.367   4.455   8.408  0.00  0.00    +0.000 A 
BRANCH  20  23
ATOM     23  C   UNL     1      47.397   1.804   6.876  0.00  0.00    +0.000 C 
ATOM     24  N   UNL     1      48.465   2.569   6.497  0.00  0.00    +0.000 N 
ATOM     25  O   UNL     1      47.271   0.640   6.526  0.00  0.00    +0.000 OA
ATOM     26  H   UNL     1      48.523   3.532   6.810  0.00  0.00    +0.000 HD
ATOM     27  H   UNL     1      49.178   2.170   5.905  0.00  0.00    +0.000 HD
ENDBRANCH  20  23
ENDBRANCH  16  17
ENDBRANCH  15  16
ENDBRANCH   5  15
TORSDOF 6
ENDMDL
MODEL 2
REMARK VINA RESULT:    -7.980      3.007      4.647
REMARK INTER + INTRA:         -11.636
REMARK INTER:                 -10.987
REMARK INTRA:                  -0.649
REMARK UNBOUND:                -0.857
REMARK  Name = 
REMARK  7 active torsions:
REMARK  status: ('A' for Active; 'I' for Inactive)
REMARK    1  A    between atoms: C_1  and  O_2
REMARK    2  A    between atoms: O_2  and  C_3
REMARK    3  A    between atoms: C_6  and  C_7
REMARK    4  A    between atoms: C_11  and  C_12
REMARK    5  A    between atoms: C_12  and  O_13
REMARK    6  A    between atoms: O_13  and  C_14
REMARK    7  A    between atoms: C_17  and  C_18
REMARK                            x       y       z     vdW  Elec       q    Type
REMARK                         _______ _______ _______ _____ _____    ______ ____
ROOT
ATOM      1  C   UNL     1      46.769   5.513  13.684  0.00  0.00    +0.000 A 
ATOM      2  C   UNL     1      47.125   6.697  13.043  0.00  0.00    +0.000 A 
ATOM      3  C   UNL     1      46.455   7.068  11.879  0.00  0.00    +0.000 A 
ATOM      4  C   UNL     1      45.451   6.249  11.376  0.00  0.00    +0.000 A 
ATOM      5  C   UNL     1      45.135   5.084  12.065  0.00  0.00    +0.000 A 
ATOM      6  N   UNL     1      45.779   4.718  13.201  0.00  0.00    +0.000 NA
ENDROOT
BRANCH   1  10
ATOM      7  C   UNL     1      48.635   4.229  17.358  0.00  0.00    +0.000 A 
ATOM      8  C   UNL     1      48.899   5.488  16.829  0.00  0.00    +0.000 A 
ATOM      9  C   UNL     1      48.287   5.889  15.637  0.00  0.00    +0.000 A 
ATOM     10  C   UNL     1      47.405   5.047  14.935  0.00  0.00    +0.000 A 
ATOM     11  C   UNL     1      47.171   3.772  15.478  0.00  0.00    +0.000 A 
ATOM     12  C   UNL     1      47.787   3.365  16.667  0.00  0.00    +0.000 A 
BRANCH   7  14
ATOM     13  C   UNL     1      48.708   4.344  19.711  0.00  0.00    +0.000 C 
ATOM     14  O   UNL     1      49.174   3.731  18.512  0.00  0.00    +0.000 OA
ENDBRANCH   7  14
ENDBRANCH   1  10
BRANCH   5  15
ATOM     15  C   UNL     1      44.023   4.179  11.580  0.00  0.00    +0.000 C 
BRANCH  15  16
ATOM     16  O   UNL     1      43.796   4.379  10.181  0.00  0.00    +0.000 OA
BRANCH  16  17
ATOM     17  C   UNL     1      44.658   3.746   9.331  0.00  0.00    +0.000 A 
ATOM     18  C   UNL     1      45.446   4.348   8.352  0.00  0.00    +0.000 A 
ATOM     19  C   UNL     1      46.306   3.566   7.579  0.00  0.00    +0.000 A 
ATOM     20  C   UNL     1      46.348   2.196   7.810  0.00  0.00    +0.000 A 
ATOM     21  N   UNL     1      45.582   1.561   8.745  0.00  0.00    +0.000 NA
ATOM     22  C   UNL     1      44.760   2.362   9.472  0.00  0.00    +0.000 A 
BRANCH  20  23
ATOM     23  C   UNL     1      47.286   1.337   7.010  0.00  0.00    +0.000 C 
ATOM     24  N   UNL     1      48.412   1.966   6.557  0.00  0.00    +0.000 N 
ATOM     25  O   UNL     1      47.056   0.160   6.775  0.00  0.00    +0.000 OA
ATOM     26  H   UNL     1      48.556   2.946   6.775  0.00  0.00    +0.000 HD
ATOM     27  H   UNL     1      49.082   1.451   6.006  0.00  0.00    +0.000 HD
ENDBRANCH  20  23
ENDBRANCH  16  17
ENDBRANCH  15  16
ENDBRANCH   5  15
TORSDOF 6
ENDMDL
MODEL 3
REMARK VINA RESULT:    -7.958      1.019      1.591
REMARK INTER + INTRA:         -11.606
REMARK INTER:                 -10.876
REMARK INTRA:                  -0.730
REMARK UNBOUND:                -0.857
REMARK  Name = 
REMARK  7 active torsions:
REMARK  status: ('A' for Active; 'I' for Inactive)
REMARK    1  A    between atoms: C_1  and  O_2
REMARK    2  A    between atoms: O_2  and  C_3
REMARK    3  A    between atoms: C_6  and  C_7
REMARK    4  A    between atoms: C_11  and  C_12
REMARK    5  A    between atoms: C_12  and  O_13
REMARK    6  A    between atoms: O_13  and  C_14
REMARK    7  A    between atoms: C_17  and  C_18
REMARK                            x       y       z     vdW  Elec       q    Type
REMARK                         _______ _______ _______ _____ _____    ______ ____
ROOT
ATOM      1  C   UNL     1      46.574   6.134  12.530  0.00  0.00    +0.000 A 
ATOM      2  C   UNL     1      47.184   5.212  13.378  0.00  0.00    +0.000 A 
ATOM      3  C   UNL     1      46.590   3.968  13.570  0.00  0.00    +0.000 A 
ATOM      4  C   UNL     1      45.398   3.669  12.920  0.00  0.00    +0.000 A 
ATOM      5  C   UNL     1      44.841   4.627  12.080  0.00  0.00    +0.000 A 
ATOM      6  N   UNL     1      45.416   5.839  11.883  0.00  0.00    +0.000 NA
ENDROOT
BRANCH   1  10
ATOM      7  C   UNL     1      48.278  10.001  11.652  0.00  0.00    +0.000 A 
ATOM      8  C   UNL     1      49.050   8.847  11.564  0.00  0.00    +0.000 A 
ATOM      9  C   UNL     1      48.483   7.602  11.854  0.00  0.00    +0.000 A 
ATOM     10  C   UNL     1      47.138   7.470  12.246  0.00  0.00    +0.000 A 
ATOM     11  C   UNL     1      46.384   8.652  12.348  0.00  0.00    +0.000 A 
ATOM     12  C   UNL     1      46.950   9.901  12.065  0.00  0.00    +0.000 A 
BRANCH   7  14
ATOM     13  C   UNL     1      50.136  11.392  11.240  0.00  0.00    +0.000 C 
ATOM     14  O   UNL     1      48.724  11.267  11.395  0.00  0.00    +0.000 OA
ENDBRANCH   7  14
ENDBRANCH   1  10
BRANCH   5  15
ATOM     15  C   UNL     1      43.566   4.336  11.318  0.00  0.00    +0.000 C 
BRANCH  15  16
ATOM     16  O   UNL     1      43.728   4.668   9.936  0.00  0.00    +0.000 OA
BRANCH  16  17
ATOM     17  C   UNL     1      44.577   3.875   9.216  0.00  0.00    +0.000 A 
ATOM     18  C   UNL     1      45.523   4.305   8.287  0.00  0.00    +0.000 A 
ATOM     19  C   UNL     1      46.343   3.370   7.653  0.00  0.00    +0.000 A 
ATOM     20  C   UNL     1      46.188   2.026   7.969  0.00  0.00    +0.000 A 
ATOM     21  N   UNL     1      45.264   1.558   8.858  0.00  0.00    +0.000 NA
ATOM     22  C   UNL     1      44.487   2.503   9.449  0.00  0.00    +0.000 A 
BRANCH  20  23
ATOM     23  C   UNL     1      47.078   1.004   7.320  0.00  0.00    +0.000 C 
ATOM     24  N   UNL     1      46.812  -0.296   7.649  0.00  0.00    +0.000 N 
ATOM     25  O   UNL     1      47.980   1.312   6.556  0.00  0.00    +0.000 OA
ATOM     26  H   UNL     1      46.055  -0.502   8.291  0.00  0.00    +0.000 HD
ATOM     27  H   UNL     1      47.376  -1.035   7.256  0.00  0.00    +0.000 HD
ENDBRANCH  20  23
ENDBRANCH  16  17
ENDBRANCH  15  16
ENDBRANCH   5  15
TORSDOF 6
ENDMDL
MODEL 4
REMARK VINA RESULT:    -7.583      1.929      2.619
REMARK INTER + INTRA:         -11.100
REMARK INTER:                 -10.386
REMARK INTRA:                  -0.714
REMARK UNBOUND:                -0.857
REMARK  Name = 
REMARK  7 active torsions:
REMARK  status: ('A' for Active; 'I' for Inactive)
REMARK    1  A    between atoms: C_1  and  O_2
REMARK    2  A    between atoms: O_2  and  C_3
REMARK    3  A    between atoms: C_6  and  C_7
REMARK    4  A    between atoms: C_11  and  C_12
REMARK    5  A    between atoms: C_12  and  O_13
REMARK    6  A    between atoms: O_13  and  C_14
REMARK    7  A    between atoms: C_17  and  C_18
REMARK                            x       y       z     vdW  Elec       q    Type
REMARK                         _______ _______ _______ _____ _____    ______ ____
ROOT
ATOM      1  C   UNL     1      45.908   6.725  12.079  0.00  0.00    +0.000 A 
ATOM      2  C   UNL     1      44.954   7.688  11.757  0.00  0.00    +0.000 A 
ATOM      3  C   UNL     1      43.674   7.281  11.390  0.00  0.00    +0.000 A 
ATOM      4  C   UNL     1      43.372   5.925  11.347  0.00  0.00    +0.000 A 
ATOM      5  C   UNL     1      44.363   5.011  11.687  0.00  0.00    +0.000 A 
ATOM      6  N   UNL     1      45.611   5.399  12.050  0.00  0.00    +0.000 NA
ENDROOT
BRANCH   1  10
ATOM      7  C   UNL     1      49.934   7.750  13.248  0.00  0.00    +0.000 A 
ATOM      8  C   UNL     1      49.518   7.896  11.929  0.00  0.00    +0.000 A 
ATOM      9  C   UNL     1      48.210   7.558  11.566  0.00  0.00    +0.000 A 
ATOM     10  C   UNL     1      47.285   7.058  12.500  0.00  0.00    +0.000 A 
ATOM     11  C   UNL     1      47.735   6.899  13.822  0.00  0.00    +0.000 A 
ATOM     12  C   UNL     1      49.045   7.230  14.188  0.00  0.00    +0.000 A 
BRANCH   7  14
ATOM     13  C   UNL     1      51.790   9.198  13.136  0.00  0.00    +0.000 C 
ATOM     14  O   UNL     1      51.184   8.045  13.716  0.00  0.00    +0.000 OA
ENDBRANCH   7  14
ENDBRANCH   1  10
BRANCH   5  15
ATOM     15  C   UNL     1      44.072   3.526  11.694  0.00  0.00    +0.000 C 
BRANCH  15  16
ATOM     16  O   UNL     1      43.587   3.110  10.414  0.00  0.00    +0.000 OA
BRANCH  16  17
ATOM     17  C   UNL     1      44.512   3.025   9.412  0.00  0.00    +0.000 A 
ATOM     18  C   UNL     1      44.931   4.064   8.582  0.00  0.00    +0.000 A 
ATOM     19  C   UNL     1      45.914   3.826   7.621  0.00  0.00    +0.000 A 
ATOM     20  C   UNL     1      46.448   2.547   7.517  0.00  0.00    +0.000 A 
ATOM     21  N   UNL     1      46.056   1.497   8.295  0.00  0.00    +0.000 NA
ATOM     22  C   UNL     1      45.096   1.774   9.216  0.00  0.00    +0.000 A 
BRANCH  20  23
ATOM     23  C   UNL     1      47.527   2.274   6.507  0.00  0.00    +0.000 C 
ATOM     24  N   UNL     1      47.505   3.071   5.397  0.00  0.00    +0.000 N 
ATOM     25  O   UNL     1      48.364   1.397   6.665  0.00  0.00    +0.000 OA
ATOM     26  H   UNL     1      46.788   3.783   5.311  0.00  0.00    +0.000 HD
ATOM     27  H   UNL     1      48.196   2.938   4.674  0.00  0.00    +0.000 HD
ENDBRANCH  20  23
ENDBRANCH  16  17
ENDBRANCH  15  16
ENDBRANCH   5  15
TORSDOF 6
ENDMDL
MODEL 5
REMARK VINA RESULT:    -7.538      3.095      7.547
REMARK INTER + INTRA:         -11.039
REMARK INTER:                 -10.508
REMARK INTRA:                  -0.531
REMARK UNBOUND:                -0.857
REMARK  Name = 
REMARK  7 active torsions:
REMARK  status: ('A' for Active; 'I' for Inactive)
REMARK    1  A    between atoms: C_1  and  O_2
REMARK    2  A    between atoms: O_2  and  C_3
REMARK    3  A    between atoms: C_6  and  C_7
REMARK    4  A    between atoms: C_11  and  C_12
REMARK    5  A    between atoms: C_12  and  O_13
REMARK    6  A    between atoms: O_13  and  C_14
REMARK    7  A    between atoms: C_17  and  C_18
REMARK                            x       y       z     vdW  Elec       q    Type
REMARK                         _______ _______ _______ _____ _____    ______ ____
ROOT
ATOM      1  C   UNL     1      44.784   4.706  10.267  0.00  0.00    +0.000 A 
ATOM      2  C   UNL     1      43.412   4.738  10.510  0.00  0.00    +0.000 A 
ATOM      3  C   UNL     1      42.915   5.591  11.492  0.00  0.00    +0.000 A 
ATOM      4  C   UNL     1      43.793   6.389  12.215  0.00  0.00    +0.000 A 
ATOM      5  C   UNL     1      45.151   6.320  11.922  0.00  0.00    +0.000 A 
ATOM      6  N   UNL     1      45.643   5.496  10.964  0.00  0.00    +0.000 NA
ENDROOT
BRANCH   1  10
ATOM      7  C   UNL     1      46.543   2.154   7.265  0.00  0.00    +0.000 A 
ATOM      8  C   UNL     1      45.916   1.610   8.381  0.00  0.00    +0.000 A 
ATOM      9  C   UNL     1      45.352   2.451   9.346  0.00  0.00    +0.000 A 
ATOM     10  C   UNL     1      45.403   3.853   9.232  0.00  0.00    +0.000 A 
ATOM     11  C   UNL     1      46.060   4.378   8.105  0.00  0.00    +0.000 A 
ATOM     12  C   UNL     1      46.631   3.540   7.141  0.00  0.00    +0.000 A 
BRANCH   7  14
ATOM     13  C   UNL     1      47.955   2.185   5.377  0.00  0.00    +0.000 C 
ATOM     14  O   UNL     1      47.128   1.432   6.262  0.00  0.00    +0.000 OA
ENDBRANCH   7  14
ENDBRANCH   1  10
BRANCH   5  15
ATOM     15  C   UNL     1      46.143   7.197  12.654  0.00  0.00    +0.000 C 
BRANCH  15  16
ATOM     16  O   UNL     1      47.378   6.499  12.841  0.00  0.00    +0.000 OA
BRANCH  16  17
ATOM     17  C   UNL     1      47.523   5.826  14.021  0.00  0.00    +0.000 A 
ATOM     18  C   UNL     1      48.263   6.243  15.125  0.00  0.00    +0.000 A 
ATOM     19  C   UNL     1      48.288   5.456  16.278  0.00  0.00    +0.000 A 
ATOM     20  C   UNL     1      47.569   4.268  16.288  0.00  0.00    +0.000 A 
ATOM     21  N   UNL     1      46.845   3.811  15.225  0.00  0.00    +0.000 NA
ATOM     22  C   UNL     1      46.851   4.608  14.124  0.00  0.00    +0.000 A 
BRANCH  20  23
ATOM     23  C   UNL     1      47.558   3.417  17.527  0.00  0.00    +0.000 C 
ATOM     24  N   UNL     1      48.523   3.714  18.448  0.00  0.00    +0.000 N 
ATOM     25  O   UNL     1      46.746   2.520  17.698  0.00  0.00    +0.000 OA
ATOM     26  H   UNL     1      49.176   4.466  18.259  0.00  0.00    +0.000 HD
ATOM     27  H   UNL     1      48.579   3.177  19.301  0.00  0.00    +0.000 HD
ENDBRANCH  20  23
ENDBRANCH  16  17
ENDBRANCH  15  16
ENDBRANCH   5  15
TORSDOF 6
ENDMDL
MODEL 6
REMARK VINA RESULT:    -7.095      2.627      3.550
REMARK INTER + INTRA:         -10.441
REMARK INTER:                  -9.663
REMARK INTRA:                  -0.778
REMARK UNBOUND:                -0.857
REMARK  Name = 
REMARK  7 active torsions:
REMARK  status: ('A' for Active; 'I' for Inactive)
REMARK    1  A    between atoms: C_1  and  O_2
REMARK    2  A    between atoms: O_2  and  C_3
REMARK    3  A    between atoms: C_6  and  C_7
REMARK    4  A    between atoms: C_11  and  C_12
REMARK    5  A    between atoms: C_12  and  O_13
REMARK    6  A    between atoms: O_13  and  C_14
REMARK    7  A    between atoms: C_17  and  C_18
REMARK                            x       y       z     vdW  Elec       q    Type
REMARK                         _______ _______ _______ _____ _____    ______ ____
ROOT
ATOM      1  C   UNL     1      46.984   7.067  13.206  0.00  0.00    +0.000 A 
ATOM      2  C   UNL     1      46.426   8.260  12.752  0.00  0.00    +0.000 A 
ATOM      3  C   UNL     1      45.281   8.217  11.960  0.00  0.00    +0.000 A 
ATOM      4  C   UNL     1      44.720   6.989  11.633  0.00  0.00    +0.000 A 
ATOM      5  C   UNL     1      45.316   5.832  12.123  0.00  0.00    +0.000 A 
ATOM      6  N   UNL     1      46.428   5.865  12.898  0.00  0.00    +0.000 NA
ENDROOT
BRANCH   1  10
ATOM      7  C   UNL     1      50.509   6.971  15.694  0.00  0.00    +0.000 A 
ATOM      8  C   UNL     1      50.504   7.677  14.495  0.00  0.00    +0.000 A 
ATOM      9  C   UNL     1      49.354   7.696  13.699  0.00  0.00    +0.000 A 
ATOM     10  C   UNL     1      48.182   7.010  14.069  0.00  0.00    +0.000 A 
ATOM     11  C   UNL     1      48.219   6.288  15.274  0.00  0.00    +0.000 A 
ATOM     12  C   UNL     1      49.370   6.260  16.070  0.00  0.00    +0.000 A 
BRANCH   7  14
ATOM     13  C   UNL     1      52.854   6.982  15.934  0.00  0.00    +0.000 C 
ATOM     14  O   UNL     1      51.572   6.881  16.549  0.00  0.00    +0.000 OA
ENDBRANCH   7  14
ENDBRANCH   1  10
BRANCH   5  15
ATOM     15  C   UNL     1      44.720   4.473  11.828  0.00  0.00    +0.000 C 
BRANCH  15  16
ATOM     16  O   UNL     1      44.170   4.450  10.507  0.00  0.00    +0.000 OA
BRANCH  16  17
ATOM     17  C   UNL     1      44.958   3.910   9.530  0.00  0.00    +0.000 A 
ATOM     18  C   UNL     1      45.718   4.614   8.597  0.00  0.00    +0.000 A 
ATOM     19  C   UNL     1      46.503   3.917   7.677  0.00  0.00    +0.000 A 
ATOM     20  C   UNL     1      46.500   2.528   7.719  0.00  0.00    +0.000 A 
ATOM     21  N   UNL     1      45.760   1.797   8.602  0.00  0.00    +0.000 NA
ATOM     22  C   UNL     1      45.010   2.517   9.477  0.00  0.00    +0.000 A 
BRANCH  20  23
ATOM     23  C   UNL     1      47.358   1.756   6.756  0.00  0.00    +0.000 C 
ATOM     24  N   UNL     1      48.318   2.486   6.113  0.00  0.00    +0.000 N 
ATOM     25  O   UNL     1      47.207   0.559   6.559  0.00  0.00    +0.000 OA
ATOM     26  H   UNL     1      48.402   3.478   6.307  0.00  0.00    +0.000 HD
ATOM     27  H   UNL     1      48.925   2.033   5.446  0.00  0.00    +0.000 HD
ENDBRANCH  20  23
ENDBRANCH  16  17
ENDBRANCH  15  16
ENDBRANCH   5  15
TORSDOF 6
ENDMDL
MODEL 7
REMARK VINA RESULT:    -6.751      4.065      8.014
REMARK INTER + INTRA:          -9.976
REMARK INTER:                  -9.412
REMARK INTRA:                  -0.564
REMARK UNBOUND:                -0.857
REMARK  Name = 
REMARK  7 active torsions:
REMARK  status: ('A' for Active; 'I' for Inactive)
REMARK    1  A    between atoms: C_1  and  O_2
REMARK    2  A    between atoms: O_2  and  C_3
REMARK    3  A    between atoms: C_6  and  C_7
REMARK    4  A    between atoms: C_11  and  C_12
REMARK    5  A    between atoms: C_12  and  O_13
REMARK    6  A    between atoms: O_13  and  C_14
REMARK    7  A    between atoms: C_17  and  C_18
REMARK                            x       y       z     vdW  Elec       q    Type
REMARK                         _______ _______ _______ _____ _____    ______ ____
ROOT
ATOM      1  C   UNL     1      44.766   4.063  10.924  0.00  0.00    +0.000 A 
ATOM      2  C   UNL     1      43.415   4.196  11.239  0.00  0.00    +0.000 A 
ATOM      3  C   UNL     1      43.052   4.594  12.522  0.00  0.00    +0.000 A 
ATOM      4  C   UNL     1      44.040   4.847  13.467  0.00  0.00    +0.000 A 
ATOM      5  C   UNL     1      45.372   4.705  13.092  0.00  0.00    +0.000 A 
ATOM      6  N   UNL     1      45.734   4.321  11.842  0.00  0.00    +0.000 NA
ENDROOT
BRANCH   1  10
ATOM      7  C   UNL     1      46.137   2.841   7.018  0.00  0.00    +0.000 A 
ATOM      8  C   UNL     1      45.712   1.899   7.949  0.00  0.00    +0.000 A 
ATOM      9  C   UNL     1      45.272   2.311   9.211  0.00  0.00    +0.000 A 
ATOM     10  C   UNL     1      45.251   3.667   9.585  0.00  0.00    +0.000 A 
ATOM     11  C   UNL     1      45.704   4.599   8.635  0.00  0.00    +0.000 A 
ATOM     12  C   UNL     1      46.152   4.190   7.373  0.00  0.00    +0.000 A 
BRANCH   7  14
ATOM     13  C   UNL     1      47.984   2.285   5.663  0.00  0.00    +0.000 C 
ATOM     14  O   UNL     1      46.587   2.556   5.759  0.00  0.00    +0.000 OA
ENDBRANCH   7  14
ENDBRANCH   1  10
BRANCH   5  15
ATOM     15  C   UNL     1      46.485   5.006  14.071  0.00  0.00    +0.000 C 
BRANCH  15  16
ATOM     16  O   UNL     1      46.337   4.206  15.249  0.00  0.00    +0.000 OA
BRANCH  16  17
ATOM     17  C   UNL     1      47.464   4.015  15.999  0.00  0.00    +0.000 A 
ATOM     18  C   UNL     1      47.910   2.806  16.527  0.00  0.00    +0.000 A 
ATOM     19  C   UNL     1      49.105   2.766  17.248  0.00  0.00    +0.000 A 
ATOM     20  C   UNL     1      49.818   3.947  17.421  0.00  0.00    +0.000 A 
ATOM     21  N   UNL     1      49.410   5.156  16.937  0.00  0.00    +0.000 NA
ATOM     22  C   UNL     1      48.242   5.147  16.243  0.00  0.00    +0.000 A 
BRANCH  20  23
ATOM     23  C   UNL     1      51.120   3.924  18.170  0.00  0.00    +0.000 C 
ATOM     24  N   UNL     1      51.713   2.696  18.275  0.00  0.00    +0.000 N 
ATOM     25  O   UNL     1      51.614   4.931  18.655  0.00  0.00    +0.000 OA
ATOM     26  H   UNL     1      51.262   1.889  17.859  0.00  0.00    +0.000 HD
ATOM     27  H   UNL     1      52.586   2.606  18.773  0.00  0.00    +0.000 HD
ENDBRANCH  20  23
ENDBRANCH  16  17
ENDBRANCH  15  16
ENDBRANCH   5  15
TORSDOF 6
ENDMDL
MODEL 8
REMARK VINA RESULT:    -6.630      5.827      8.550
REMARK INTER + INTRA:          -9.812
REMARK INTER:                  -9.093
REMARK INTRA:                  -0.720
REMARK UNBOUND:                -0.857
REMARK  Name = 
REMARK  7 active torsions:
REMARK  status: ('A' for Active; 'I' for Inactive)
REMARK    1  A    between atoms: C_1  and  O_2
REMARK    2  A    between atoms: O_2  and  C_3
REMARK    3  A    between atoms: C_6  and  C_7
REMARK    4  A    between atoms: C_11  and  C_12
REMARK    5  A    between atoms: C_12  and  O_13
REMARK    6  A    between atoms: O_13  and  C_14
REMARK    7  A    between atoms: C_17  and  C_18
REMARK                            x       y       z     vdW  Elec       q    Type
REMARK                         _______ _______ _______ _____ _____    ______ ____
ROOT
ATOM      1  C   UNL     1      47.282   5.628  13.919  0.00  0.00    +0.000 A 
ATOM      2  C   UNL     1      47.943   6.849  13.810  0.00  0.00    +0.000 A 
ATOM      3  C   UNL     1      48.767   7.271  14.850  0.00  0.00    +0.000 A 
ATOM      4  C   UNL     1      48.910   6.472  15.979  0.00  0.00    +0.000 A 
ATOM      5  C   UNL     1      48.231   5.259  16.026  0.00  0.00    +0.000 A 
ATOM      6  N   UNL     1      47.431   4.839  15.015  0.00  0.00    +0.000 NA
ENDROOT
BRANCH   1  10
ATOM      7  C   UNL     1      44.756   4.093  10.773  0.00  0.00    +0.000 A 
ATOM      8  C   UNL     1      45.295   5.373  10.692  0.00  0.00    +0.000 A 
ATOM      9  C   UNL     1      46.110   5.856  11.720  0.00  0.00    +0.000 A 
ATOM     10  C   UNL     1      46.405   5.085  12.860  0.00  0.00    +0.000 A 
ATOM     11  C   UNL     1      45.832   3.803  12.929  0.00  0.00    +0.000 A 
ATOM     12  C   UNL     1      45.010   3.319  11.905  0.00  0.00    +0.000 A 
BRANCH   7  14
ATOM     13  C   UNL     1      44.610   2.652   8.913  0.00  0.00    +0.000 C 
ATOM     14  O   UNL     1      43.948   3.518   9.833  0.00  0.00    +0.000 OA
ENDBRANCH   7  14
ENDBRANCH   1  10
BRANCH   5  15
ATOM     15  C   UNL     1      48.386   4.335  17.214  0.00  0.00    +0.000 C 
BRANCH  15  16
ATOM     16  O   UNL     1      49.597   4.630  17.917  0.00  0.00    +0.000 OA
BRANCH  16  17
ATOM     17  C   UNL     1      50.583   3.687  17.849  0.00  0.00    +0.000 A 
ATOM     18  C   UNL     1      51.915   3.855  18.222  0.00  0.00    +0.000 A 
ATOM     19  C   UNL     1      52.801   2.781  18.124  0.00  0.00    +0.000 A 
ATOM     20  C   UNL     1      52.323   1.565  17.650  0.00  0.00    +0.000 A 
ATOM     21  N   UNL     1      51.033   1.359  17.257  0.00  0.00    +0.000 NA
ATOM     22  C   UNL     1      50.207   2.433  17.368  0.00  0.00    +0.000 A 
BRANCH  20  23
ATOM     23  C   UNL     1      53.251   0.386  17.562  0.00  0.00    +0.000 C 
ATOM     24  N   UNL     1      52.976  -0.641  18.421  0.00  0.00    +0.000 N 
ATOM     25  O   UNL     1      54.190   0.350  16.780  0.00  0.00    +0.000 OA
ATOM     26  H   UNL     1      52.187  -0.561  19.054  0.00  0.00    +0.000 HD
ATOM     27  H   UNL     1      53.564  -1.461  18.422  0.00  0.00    +0.000 HD
ENDBRANCH  20  23
ENDBRANCH  16  17
ENDBRANCH  15  16
ENDBRANCH   5  15
TORSDOF 6
ENDMDL
MODEL 9
REMARK VINA RESULT:    -6.474      1.914      2.781
REMARK INTER + INTRA:          -9.602
REMARK INTER:                  -8.874
REMARK INTRA:                  -0.728
REMARK UNBOUND:                -0.857
REMARK  Name = 
REMARK  7 active torsions:
REMARK  status: ('A' for Active; 'I' for Inactive)
REMARK    1  A    between atoms: C_1  and  O_2
REMARK    2  A    between atoms: O_2  and  C_3
REMARK    3  A    between atoms: C_6  and  C_7
REMARK    4  A    between atoms: C_11  and  C_12
REMARK    5  A    between atoms: C_12  and  O_13
REMARK    6  A    between atoms: O_13  and  C_14
REMARK    7  A    between atoms: C_17  and  C_18
REMARK                            x       y       z     vdW  Elec       q    Type
REMARK                         _______ _______ _______ _____ _____    ______ ____
ROOT
ATOM      1  C   UNL     1      47.203   7.957  12.003  0.00  0.00    +0.000 A 
ATOM      2  C   UNL     1      46.212   8.881  12.328  0.00  0.00    +0.000 A 
ATOM      3  C   UNL     1      44.904   8.438  12.511  0.00  0.00    +0.000 A 
ATOM      4  C   UNL     1      44.610   7.088  12.362  0.00  0.00    +0.000 A 
ATOM      5  C   UNL     1      45.643   6.213  12.045  0.00  0.00    +0.000 A 
ATOM      6  N   UNL     1      46.920   6.635  11.869  0.00  0.00    +0.000 NA
ENDROOT
BRANCH   1  10
ATOM      7  C   UNL     1      51.353   8.973  11.392  0.00  0.00    +0.000 A 
ATOM      8  C   UNL     1      50.901   7.674  11.184  0.00  0.00    +0.000 A 
ATOM      9  C   UNL     1      49.553   7.361  11.388  0.00  0.00    +0.000 A 
ATOM     10  C   UNL     1      48.622   8.326  11.812  0.00  0.00    +0.000 A 
ATOM     11  C   UNL     1      49.106   9.626  12.035  0.00  0.00    +0.000 A 
ATOM     12  C   UNL     1      50.456   9.942  11.839  0.00  0.00    +0.000 A 
BRANCH   7  14
ATOM     13  C   UNL     1      53.473   8.516  10.468  0.00  0.00    +0.000 C 
ATOM     14  O   UNL     1      52.643   9.393  11.226  0.00  0.00    +0.000 OA
ENDBRANCH   7  14
ENDBRANCH   1  10
BRANCH   5  15
ATOM     15  C   UNL     1      45.382   4.729  11.910  0.00  0.00    +0.000 C 
BRANCH  15  16
ATOM     16  O   UNL     1      44.569   4.471  10.761  0.00  0.00    +0.000 OA
BRANCH  16  17
ATOM     17  C   UNL     1      45.202   3.924   9.680  0.00  0.00    +0.000 A 
ATOM     18  C   UNL     1      45.259   2.570   9.353  0.00  0.00    +0.000 A 
ATOM     19  C   UNL     1      45.919   2.167   8.192  0.00  0.00    +0.000 A 
ATOM     20  C   UNL     1      46.508   3.138   7.390  0.00  0.00    +0.000 A 
ATOM     21  N   UNL     1      46.493   4.471   7.679  0.00  0.00    +0.000 NA
ATOM     22  C   UNL     1      45.840   4.817   8.820  0.00  0.00    +0.000 A 
BRANCH  20  23
ATOM     23  C   UNL     1      47.201   2.731   6.120  0.00  0.00    +0.000 C 
ATOM     24  N   UNL     1      48.546   2.514   6.232  0.00  0.00    +0.000 N 
ATOM     25  O   UNL     1      46.605   2.606   5.061  0.00  0.00    +0.000 OA
ATOM     26  H   UNL     1      48.996   2.634   7.133  0.00  0.00    +0.000 HD
ATOM     27  H   UNL     1      49.076   2.246   5.416  0.00  0.00    +0.000 HD
ENDBRANCH  20  23
ENDBRANCH  16  17
ENDBRANCH  15  16
ENDBRANCH   5  15
TORSDOF 6
ENDMDL
