MODEL 1
REMARK VINA RESULT:    -8.972      0.000      0.000
REMARK INTER + INTRA:         -13.289
REMARK INTER:                 -12.120
REMARK INTRA:                  -1.169
REMARK UNBOUND:                -1.169
REMARK  Name = 
REMARK  6 active torsions:
REMARK  status: ('A' for Active; 'I' for Inactive)
REMARK    1  A    between atoms: C_2  and  C_4
REMARK    2  A    between atoms: N_8  and  C_9
REMARK    3  A    between atoms: C_9  and  C_10
REMARK    4  A    between atoms: C_10  and  C_13
REMARK    5  A    between atoms: C_17  and  C_18
REMARK    6  A    between atoms: C_18  and  C_19
REMARK                            x       y       z     vdW  Elec       q    Type
REMARK                         _______ _______ _______ _____ _____    ______ ____
ROOT
ATOM      1  C   UNL     1      43.303   4.294  10.945  0.00  0.00    +0.000 C 
ENDROOT
BRANCH   1   6
ATOM      2  C   UNL     1      46.576   2.594   7.421  0.00  0.00    +0.000 A 
ATOM      3  C   UNL     1      46.101   3.868   7.698  0.00  0.00    +0.000 A 
ATOM      4  C   UNL     1      45.188   4.032   8.734  0.00  0.00    +0.000 A 
ATOM      5  C   UNL     1      44.769   2.928   9.482  0.00  0.00    +0.000 A 
ATOM      6  N   UNL     1      43.882   3.026  10.524  0.00  0.00    +0.000 N 
ATOM      7  N   UNL     1      45.215   1.688   9.205  0.00  0.00    +0.000 NA
ATOM      8  C   UNL     1      46.090   1.540   8.175  0.00  0.00    +0.000 A 
ATOM      9  H   UNL     1      43.700   2.172  11.033  0.00  0.00    +0.000 HD
BRANCH   2  11
ATOM     10  N   UNL     1      47.474   3.135   5.236  0.00  0.00    +0.000 N 
ATOM     11  C   UNL     1      47.555   2.335   6.344  0.00  0.00    +0.000 C 
ATOM     12  O   UNL     1      48.420   1.474   6.455  0.00  0.00    +0.000 OA
ATOM     13  H   UNL     1      48.213   3.024   4.552  0.00  0.00    +0.000 HD
ATOM     14  H   UNL     1      46.954   3.998   5.224  0.00  0.00    +0.000 HD
ENDBRANCH   2  11
ENDBRANCH   1   6
BRANCH   1  15
ATOM     15  C   UNL     1      43.536   4.682  12.424  0.00  0.00    +0.000 C 
ATOM     16  F   UNL     1      42.598   5.597  12.805  0.00  0.00    +0.000 F 
ATOM     17  F   UNL     1      43.328   3.588  13.212  0.00  0.00    +0.000 F 
BRANCH  15  18
ATOM     18  C   UNL     1      44.953   5.221  12.522  0.00  0.00    +0.000 A 
ATOM     19  C   UNL     1      45.430   6.117  11.557  0.00  0.00    +0.000 A 
ATOM     20  C   UNL     1      46.657   6.753  11.744  0.00  0.00    +0.000 A 
ATOM     21  C   UNL     1      47.419   6.495  12.890  0.00  0.00    +0.000 A 
ATOM     22  C   UNL     1      46.978   5.575  13.852  0.00  0.00    +0.000 A 
ATOM     23  C   UNL     1      45.744   4.940  13.653  0.00  0.00    +0.000 A 
BRANCH  22  24
ATOM     24  C   UNL     1      47.817   5.251  15.072  0.00  0.00    +0.000 C 
BRANCH  24  25
ATOM     25  C   UNL     1      47.207   4.132  15.911  0.00  0.00    +0.000 C 
ATOM     26  C   UNL     1      47.147   4.403  17.444  0.00  0.00    +0.000 C 
ATOM     27  C   UNL     1      47.549   2.941  17.689  0.00  0.00    +0.000 C 
ATOM     28  C   UNL     1      48.077   2.886  16.244  0.00  0.00    +0.000 C 
ENDBRANCH  24  25
ENDBRANCH  22  24
ENDBRANCH  15  18
ENDBRANCH   1  15
TORSDOF 6
ENDMDL
MODEL 2
REMARK VINA RESULT:    -8.823      1.957      3.535
REMARK INTER + INTRA:         -13.088
REMARK INTER:                 -11.997
REMARK INTRA:                  -1.090
REMARK UNBOUND:                -1.169
REMARK  Name = 
REMARK  6 active torsions:
REMARK  status: ('A' for Active; 'I' for Inactive)
REMARK    1  A    between atoms: C_2  and  C_4
REMARK    2  A    between atoms: N_8  and  C_9
REMARK    3  A    between atoms: C_9  and  C_10
REMARK    4  A    between atoms: C_10  and  C_13
REMARK    5  A    between atoms: C_17  and  C_18
REMARK    6  A    between atoms: C_18  and  C_19
REMARK                            x       y       z     vdW  Elec       q    Type
REMARK                         _______ _______ _______ _____ _____    ______ ____
ROOT
ATOM      1  C   UNL     1      43.206   4.616  10.836  0.00  0.00    +0.000 C 
ENDROOT
BRANCH   1   6
ATOM      2  C   UNL     1      46.451   2.322   7.637  0.00  0.00    +0.000 A 
ATOM      3  C   UNL     1      45.670   1.824   8.670  0.00  0.00    +0.000 A 
ATOM      4  C   UNL     1      44.873   2.706   9.393  0.00  0.00    +0.000 A 
ATOM      5  C   UNL     1      44.862   4.066   9.072  0.00  0.00    +0.000 A 
ATOM      6  N   UNL     1      44.088   4.983   9.737  0.00  0.00    +0.000 N 
ATOM      7  N   UNL     1      45.631   4.554   8.081  0.00  0.00    +0.000 NA
ATOM      8  C   UNL     1      46.422   3.684   7.399  0.00  0.00    +0.000 A 
ATOM      9  H   UNL     1      44.113   5.928   9.377  0.00  0.00    +0.000 HD
BRANCH   2  11
ATOM     10  N   UNL     1      48.441   2.029   6.284  0.00  0.00    +0.000 N 
ATOM     11  C   UNL     1      47.319   1.451   6.815  0.00  0.00    +0.000 C 
ATOM     12  O   UNL     1      47.067   0.263   6.653  0.00  0.00    +0.000 OA
ATOM     13  H   UNL     1      49.084   1.402   5.815  0.00  0.00    +0.000 HD
ATOM     14  H   UNL     1      48.803   2.913   6.605  0.00  0.00    +0.000 HD
ENDBRANCH   2  11
ENDBRANCH   1   6
BRANCH   1  15
ATOM     15  C   UNL     1      43.168   5.601  12.027  0.00  0.00    +0.000 C 
ATOM     16  F   UNL     1      42.763   6.828  11.586  0.00  0.00    +0.000 F 
ATOM     17  F   UNL     1      42.217   5.194  12.916  0.00  0.00    +0.000 F 
BRANCH  15  18
ATOM     18  C   UNL     1      44.565   5.626  12.624  0.00  0.00    +0.000 A 
ATOM     19  C   UNL     1      45.180   4.430  13.017  0.00  0.00    +0.000 A 
ATOM     20  C   UNL     1      46.523   4.429  13.391  0.00  0.00    +0.000 A 
ATOM     21  C   UNL     1      47.260   5.619  13.383  0.00  0.00    +0.000 A 
ATOM     22  C   UNL     1      46.656   6.834  13.029  0.00  0.00    +0.000 A 
ATOM     23  C   UNL     1      45.304   6.824  12.656  0.00  0.00    +0.000 A 
BRANCH  22  24
ATOM     24  C   UNL     1      47.430   8.137  13.064  0.00  0.00    +0.000 C 
BRANCH  24  25
ATOM     25  C   UNL     1      48.413   8.256  11.902  0.00  0.00    +0.000 C 
ATOM     26  C   UNL     1      49.870   7.798  12.209  0.00  0.00    +0.000 C 
ATOM     27  C   UNL     1      50.385   8.994  11.394  0.00  0.00    +0.000 C 
ATOM     28  C   UNL     1      49.004   9.653  11.563  0.00  0.00    +0.000 C 
ENDBRANCH  24  25
ENDBRANCH  22  24
ENDBRANCH  15  18
ENDBRANCH   1  15
TORSDOF 6
ENDMDL
MODEL 3
REMARK VINA RESULT:    -8.214      1.716      2.261
REMARK INTER + INTRA:         -12.265
REMARK INTER:                 -11.418
REMARK INTRA:                  -0.847
REMARK UNBOUND:                -1.169
REMARK  Name = 
REMARK  6 active torsions:
REMARK  status: ('A' for Active; 'I' for Inactive)
REMARK    1  A    between atoms: C_2  and  C_4
REMARK    2  A    between atoms: N_8  and  C_9
REMARK    3  A    between atoms: C_9  and  C_10
REMARK    4  A    between atoms: C_10  and  C_13
REMARK    5  A    between atoms: C_17  and  C_18
REMARK    6  A    between atoms: C_18  and  C_19
REMARK                            x       y       z     vdW  Elec       q    Type
REMARK                         _______ _______ _______ _____ _____    ______ ____
ROOT
ATOM      1  C   UNL     1      43.266   4.818  10.872  0.00  0.00    +0.000 C 
ENDROOT
BRANCH   1   6
ATOM      2  C   UNL     1      46.452   2.398   7.708  0.00  0.00    +0.000 A 
ATOM      3  C   UNL     1      45.615   1.927   8.709  0.00  0.00    +0.000 A 
ATOM      4  C   UNL     1      44.854   2.841   9.430  0.00  0.00    +0.000 A 
ATOM      5  C   UNL     1      44.933   4.205   9.139  0.00  0.00    +0.000 A 
ATOM      6  N   UNL     1      44.198   5.154   9.804  0.00  0.00    +0.000 N 
ATOM      7  N   UNL     1      45.756   4.666   8.179  0.00  0.00    +0.000 NA
ATOM      8  C   UNL     1      46.511   3.764   7.498  0.00  0.00    +0.000 A 
ATOM      9  H   UNL     1      44.289   6.102   9.466  0.00  0.00    +0.000 HD
BRANCH   2  11
ATOM     10  N   UNL     1      48.369   2.054   6.264  0.00  0.00    +0.000 N 
ATOM     11  C   UNL     1      47.287   1.493   6.889  0.00  0.00    +0.000 C 
ATOM     12  O   UNL     1      47.047   0.294   6.808  0.00  0.00    +0.000 OA
ATOM     13  H   UNL     1      48.995   1.410   5.796  0.00  0.00    +0.000 HD
ATOM     14  H   UNL     1      48.733   2.960   6.513  0.00  0.00    +0.000 HD
ENDBRANCH   2  11
ENDBRANCH   1   6
BRANCH   1  15
ATOM     15  C   UNL     1      43.820   4.938  12.311  0.00  0.00    +0.000 C 
ATOM     16  F   UNL     1      42.789   5.169  13.174  0.00  0.00    +0.000 F 
ATOM     17  F   UNL     1      44.357   3.741  12.685  0.00  0.00    +0.000 F 
BRANCH  15  18
ATOM     18  C   UNL     1      44.839   6.065  12.300  0.00  0.00    +0.000 A 
ATOM     19  C   UNL     1      44.434   7.372  12.003  0.00  0.00    +0.000 A 
ATOM     20  C   UNL     1      45.324   8.432  12.172  0.00  0.00    +0.000 A 
ATOM     21  C   UNL     1      46.626   8.195  12.632  0.00  0.00    +0.000 A 
ATOM     22  C   UNL     1      47.064   6.891  12.902  0.00  0.00    +0.000 A 
ATOM     23  C   UNL     1      46.161   5.833  12.726  0.00  0.00    +0.000 A 
BRANCH  22  24
ATOM     24  C   UNL     1      48.485   6.617  13.353  0.00  0.00    +0.000 C 
BRANCH  24  25
ATOM     25  C   UNL     1      48.744   7.109  14.775  0.00  0.00    +0.000 C 
ATOM     26  C   UNL     1      50.244   7.230  15.177  0.00  0.00    +0.000 C 
ATOM     27  C   UNL     1      49.887   6.665  16.561  0.00  0.00    +0.000 C 
ATOM     28  C   UNL     1      48.587   6.107  15.953  0.00  0.00    +0.000 C 
ENDBRANCH  24  25
ENDBRANCH  22  24
ENDBRANCH  15  18
ENDBRANCH   1  15
TORSDOF 6
ENDMDL
MODEL 4
REMARK VINA RESULT:    -7.872      3.923      7.979
REMARK INTER + INTRA:         -11.802
REMARK INTER:                 -10.792
REMARK INTRA:                  -1.010
REMARK UNBOUND:                -1.169
REMARK  Name = 
REMARK  6 active torsions:
REMARK  status: ('A' for Active; 'I' for Inactive)
REMARK    1  A    between atoms: C_2  and  C_4
REMARK    2  A    between atoms: N_8  and  C_9
REMARK    3  A    between atoms: C_9  and  C_10
REMARK    4  A    between atoms: C_10  and  C_13
REMARK    5  A    between atoms: C_17  and  C_18
REMARK    6  A    between atoms: C_18  and  C_19
REMARK                            x       y       z     vdW  Elec       q    Type
REMARK                         _______ _______ _______ _____ _____    ______ ____
ROOT
ATOM      1  C   UNL     1      45.904   6.434  13.120  0.00  0.00    +0.000 C 
ENDROOT
BRANCH   1   6
ATOM      2  C   UNL     1      48.631   4.213  16.815  0.00  0.00    +0.000 A 
ATOM      3  C   UNL     1      47.435   3.854  16.211  0.00  0.00    +0.000 A 
ATOM      4  C   UNL     1      46.912   4.675  15.217  0.00  0.00    +0.000 A 
ATOM      5  C   UNL     1      47.592   5.836  14.837  0.00  0.00    +0.000 A 
ATOM      6  N   UNL     1      47.137   6.680  13.856  0.00  0.00    +0.000 N 
ATOM      7  N   UNL     1      48.744   6.196  15.433  0.00  0.00    +0.000 NA
ATOM      8  C   UNL     1      49.230   5.395  16.418  0.00  0.00    +0.000 A 
ATOM      9  H   UNL     1      47.742   7.454  13.621  0.00  0.00    +0.000 HD
BRANCH   2  11
ATOM     10  N   UNL     1      48.556   3.254  19.040  0.00  0.00    +0.000 N 
ATOM     11  C   UNL     1      49.258   3.392  17.872  0.00  0.00    +0.000 C 
ATOM     12  O   UNL     1      50.332   2.828  17.696  0.00  0.00    +0.000 OA
ATOM     13  H   UNL     1      48.940   2.603  19.715  0.00  0.00    +0.000 HD
ATOM     14  H   UNL     1      47.578   3.484  19.119  0.00  0.00    +0.000 HD
ENDBRANCH   2  11
ENDBRANCH   1   6
BRANCH   1  15
ATOM     15  C   UNL     1      46.022   6.472  11.578  0.00  0.00    +0.000 C 
ATOM     16  F   UNL     1      45.321   7.540  11.098  0.00  0.00    +0.000 F 
ATOM     17  F   UNL     1      47.323   6.697  11.234  0.00  0.00    +0.000 F 
BRANCH  15  18
ATOM     18  C   UNL     1      45.495   5.145  11.061  0.00  0.00    +0.000 A 
ATOM     19  C   UNL     1      44.777   4.296  11.913  0.00  0.00    +0.000 A 
ATOM     20  C   UNL     1      44.137   3.170  11.397  0.00  0.00    +0.000 A 
ATOM     21  C   UNL     1      44.212   2.880  10.029  0.00  0.00    +0.000 A 
ATOM     22  C   UNL     1      44.953   3.696   9.163  0.00  0.00    +0.000 A 
ATOM     23  C   UNL     1      45.595   4.824   9.693  0.00  0.00    +0.000 A 
BRANCH  22  24
ATOM     24  C   UNL     1      45.082   3.364   7.689  0.00  0.00    +0.000 C 
BRANCH  24  25
ATOM     25  C   UNL     1      46.538   3.183   7.264  0.00  0.00    +0.000 C 
ATOM     26  C   UNL     1      46.778   3.099   5.727  0.00  0.00    +0.000 C 
ATOM     27  C   UNL     1      47.812   1.990   5.981  0.00  0.00    +0.000 C 
ATOM     28  C   UNL     1      47.175   1.769   7.365  0.00  0.00    +0.000 C 
ENDBRANCH  24  25
ENDBRANCH  22  24
ENDBRANCH  15  18
ENDBRANCH   1  15
TORSDOF 6
ENDMDL
MODEL 5
REMARK VINA RESULT:    -7.782      3.683      7.618
REMARK INTER + INTRA:         -11.681
REMARK INTER:                 -10.927
REMARK INTRA:                  -0.754
REMARK UNBOUND:                -1.169
REMARK  Name = 
REMARK  6 active torsions:
REMARK  status: ('A' for Active; 'I' for Inactive)
REMARK    1  A    between atoms: C_2  and  C_4
REMARK    2  A    between atoms: N_8  and  C_9
REMARK    3  A    between atoms: C_9  and  C_10
REMARK    4  A    between atoms: C_10  and  C_13
REMARK    5  A    between atoms: C_17  and  C_18
REMARK    6  A    between atoms: C_18  and  C_19
REMARK                            x       y       z     vdW  Elec       q    Type
REMARK                         _______ _______ _______ _____ _____    ______ ____
ROOT
ATOM      1  C   UNL     1      47.137   6.636  11.839  0.00  0.00    +0.000 C 
ENDROOT
BRANCH   1   6
ATOM      2  C   UNL     1      47.706   4.024  16.183  0.00  0.00    +0.000 A 
ATOM      3  C   UNL     1      47.122   3.681  14.972  0.00  0.00    +0.000 A 
ATOM      4  C   UNL     1      47.103   4.621  13.947  0.00  0.00    +0.000 A 
ATOM      5  C   UNL     1      47.672   5.882  14.141  0.00  0.00    +0.000 A 
ATOM      6  N   UNL     1      47.698   6.847  13.167  0.00  0.00    +0.000 N 
ATOM      7  N   UNL     1      48.225   6.224  15.321  0.00  0.00    +0.000 NA
ATOM      8  C   UNL     1      48.215   5.303  16.320  0.00  0.00    +0.000 A 
ATOM      9  H   UNL     1      48.192   7.698  13.398  0.00  0.00    +0.000 HD
BRANCH   2  11
ATOM     10  N   UNL     1      49.002   2.913  17.904  0.00  0.00    +0.000 N 
ATOM     11  C   UNL     1      47.775   3.081  17.320  0.00  0.00    +0.000 C 
ATOM     12  O   UNL     1      46.776   2.511  17.743  0.00  0.00    +0.000 OA
ATOM     13  H   UNL     1      49.020   2.351  18.747  0.00  0.00    +0.000 HD
ATOM     14  H   UNL     1      49.770   3.546  17.750  0.00  0.00    +0.000 HD
ENDBRANCH   2  11
ENDBRANCH   1   6
BRANCH   1  15
ATOM     15  C   UNL     1      45.594   6.677  11.747  0.00  0.00    +0.000 C 
ATOM     16  F   UNL     1      45.073   6.913  12.986  0.00  0.00    +0.000 F 
ATOM     17  F   UNL     1      45.218   7.740  10.978  0.00  0.00    +0.000 F 
BRANCH  15  18
ATOM     18  C   UNL     1      45.150   5.344  11.169  0.00  0.00    +0.000 A 
ATOM     19  C   UNL     1      44.415   4.449  11.958  0.00  0.00    +0.000 A 
ATOM     20  C   UNL     1      43.850   3.313  11.379  0.00  0.00    +0.000 A 
ATOM     21  C   UNL     1      44.019   3.058  10.013  0.00  0.00    +0.000 A 
ATOM     22  C   UNL     1      44.781   3.921   9.212  0.00  0.00    +0.000 A 
ATOM     23  C   UNL     1      45.346   5.059   9.804  0.00  0.00    +0.000 A 
BRANCH  22  24
ATOM     24  C   UNL     1      45.012   3.629   7.742  0.00  0.00    +0.000 C 
BRANCH  24  25
ATOM     25  C   UNL     1      46.441   3.169   7.463  0.00  0.00    +0.000 C 
ATOM     26  C   UNL     1      46.800   2.980   5.959  0.00  0.00    +0.000 C 
ATOM     27  C   UNL     1      47.583   1.713   6.336  0.00  0.00    +0.000 C 
ATOM     28  C   UNL     1      46.794   1.667   7.657  0.00  0.00    +0.000 C 
ENDBRANCH  24  25
ENDBRANCH  22  24
ENDBRANCH  15  18
ENDBRANCH   1  15
TORSDOF 6
ENDMDL
MODEL 6
REMARK VINA RESULT:    -7.525      4.096      8.021
REMARK INTER + INTRA:         -11.334
REMARK INTER:                 -10.457
REMARK INTRA:                  -0.877
REMARK UNBOUND:                -1.169
REMARK  Name = 
REMARK  6 active torsions:
REMARK  status: ('A' for Active; 'I' for Inactive)
REMARK    1  A    between atoms: C_2  and  C_4
REMARK    2  A    between atoms: N_8  and  C_9
REMARK    3  A    between atoms: C_9  and  C_10
REMARK    4  A    between atoms: C_10  and  C_13
REMARK    5  A    between atoms: C_17  and  C_18
REMARK    6  A    between atoms: C_18  and  C_19
REMARK                            x       y       z     vdW  Elec       q    Type
REMARK                         _______ _______ _______ _____ _____    ______ ____
ROOT
ATOM      1  C   UNL     1      47.519   6.077  12.941  0.00  0.00    +0.000 C 
ENDROOT
BRANCH   1   6
ATOM      2  C   UNL     1      48.276   4.503  17.734  0.00  0.00    +0.000 A 
ATOM      3  C   UNL     1      48.701   5.639  17.060  0.00  0.00    +0.000 A 
ATOM      4  C   UNL     1      48.343   5.800  15.726  0.00  0.00    +0.000 A 
ATOM      5  C   UNL     1      47.562   4.832  15.087  0.00  0.00    +0.000 A 
ATOM      6  N   UNL     1      47.165   4.939  13.778  0.00  0.00    +0.000 N 
ATOM      7  N   UNL     1      47.163   3.721  15.733  0.00  0.00    +0.000 NA
ATOM      8  C   UNL     1      47.540   3.567  17.030  0.00  0.00    +0.000 A 
ATOM      9  H   UNL     1      46.550   4.211  13.441  0.00  0.00    +0.000 HD
BRANCH   2  11
ATOM     10  N   UNL     1      48.279   3.029  19.659  0.00  0.00    +0.000 N 
ATOM     11  C   UNL     1      48.605   4.260  19.155  0.00  0.00    +0.000 C 
ATOM     12  O   UNL     1      49.180   5.103  19.834  0.00  0.00    +0.000 OA
ATOM     13  H   UNL     1      48.604   2.833  20.598  0.00  0.00    +0.000 HD
ATOM     14  H   UNL     1      48.048   2.244  19.072  0.00  0.00    +0.000 HD
ENDBRANCH   2  11
ENDBRANCH   1   6
BRANCH   1  15
ATOM     15  C   UNL     1      46.334   6.913  12.405  0.00  0.00    +0.000 C 
ATOM     16  F   UNL     1      45.877   7.735  13.394  0.00  0.00    +0.000 F 
ATOM     17  F   UNL     1      46.778   7.738  11.413  0.00  0.00    +0.000 F 
BRANCH  15  18
ATOM     18  C   UNL     1      45.279   5.929  11.928  0.00  0.00    +0.000 A 
ATOM     19  C   UNL     1      44.127   5.710  12.695  0.00  0.00    +0.000 A 
ATOM     20  C   UNL     1      43.078   4.953  12.174  0.00  0.00    +0.000 A 
ATOM     21  C   UNL     1      43.172   4.404  10.889  0.00  0.00    +0.000 A 
ATOM     22  C   UNL     1      44.330   4.581  10.118  0.00  0.00    +0.000 A 
ATOM     23  C   UNL     1      45.379   5.342  10.652  0.00  0.00    +0.000 A 
BRANCH  22  24
ATOM     24  C   UNL     1      44.463   3.951   8.746  0.00  0.00    +0.000 C 
BRANCH  24  25
ATOM     25  C   UNL     1      45.858   3.378   8.507  0.00  0.00    +0.000 C 
ATOM     26  C   UNL     1      46.391   3.505   7.048  0.00  0.00    +0.000 C 
ATOM     27  C   UNL     1      46.975   2.089   7.171  0.00  0.00    +0.000 C 
ATOM     28  C   UNL     1      46.017   1.839   8.349  0.00  0.00    +0.000 C 
ENDBRANCH  24  25
ENDBRANCH  22  24
ENDBRANCH  15  18
ENDBRANCH   1  15
TORSDOF 6
ENDMDL
MODEL 7
REMARK VINA RESULT:    -6.725      4.280      7.458
REMARK INTER + INTRA:         -10.254
REMARK INTER:                  -9.297
REMARK INTRA:                  -0.956
REMARK UNBOUND:                -1.169
REMARK  Name = 
REMARK  6 active torsions:
REMARK  status: ('A' for Active; 'I' for Inactive)
REMARK    1  A    between atoms: C_2  and  C_4
REMARK    2  A    between atoms: N_8  and  C_9
REMARK    3  A    between atoms: C_9  and  C_10
REMARK    4  A    between atoms: C_10  and  C_13
REMARK    5  A    between atoms: C_17  and  C_18
REMARK    6  A    between atoms: C_18  and  C_19
REMARK                            x       y       z     vdW  Elec       q    Type
REMARK                         _______ _______ _______ _____ _____    ______ ____
ROOT
ATOM      1  C   UNL     1      46.761   5.837  13.235  0.00  0.00    +0.000 C 
ENDROOT
BRANCH   1   6
ATOM      2  C   UNL     1      50.736   8.924  12.401  0.00  0.00    +0.000 A 
ATOM      3  C   UNL     1      50.230   7.857  11.672  0.00  0.00    +0.000 A 
ATOM      4  C   UNL     1      49.117   7.180  12.160  0.00  0.00    +0.000 A 
ATOM      5  C   UNL     1      48.522   7.581  13.360  0.00  0.00    +0.000 A 
ATOM      6  N   UNL     1      47.416   6.964  13.886  0.00  0.00    +0.000 N 
ATOM      7  N   UNL     1      49.021   8.605  14.077  0.00  0.00    +0.000 NA
ATOM      8  C   UNL     1      50.123   9.242  13.599  0.00  0.00    +0.000 A 
ATOM      9  H   UNL     1      47.034   7.378  14.725  0.00  0.00    +0.000 HD
BRANCH   2  11
ATOM     10  N   UNL     1      52.295   9.528  10.645  0.00  0.00    +0.000 N 
ATOM     11  C   UNL     1      51.909   9.701  11.948  0.00  0.00    +0.000 C 
ATOM     12  O   UNL     1      52.482  10.491  12.690  0.00  0.00    +0.000 OA
ATOM     13  H   UNL     1      53.029  10.143  10.314  0.00  0.00    +0.000 HD
ATOM     14  H   UNL     1      51.703   9.094   9.956  0.00  0.00    +0.000 HD
ENDBRANCH   2  11
ENDBRANCH   1   6
BRANCH   1  15
ATOM     15  C   UNL     1      45.547   6.190  12.343  0.00  0.00    +0.000 C 
ATOM     16  F   UNL     1      44.613   6.846  13.091  0.00  0.00    +0.000 F 
ATOM     17  F   UNL     1      45.939   7.073  11.380  0.00  0.00    +0.000 F 
BRANCH  15  18
ATOM     18  C   UNL     1      45.025   4.883  11.770  0.00  0.00    +0.000 A 
ATOM     19  C   UNL     1      44.271   4.017  12.573  0.00  0.00    +0.000 A 
ATOM     20  C   UNL     1      43.638   2.914  12.002  0.00  0.00    +0.000 A 
ATOM     21  C   UNL     1      43.758   2.661  10.630  0.00  0.00    +0.000 A 
ATOM     22  C   UNL     1      44.537   3.494   9.814  0.00  0.00    +0.000 A 
ATOM     23  C   UNL     1      45.171   4.599  10.398  0.00  0.00    +0.000 A 
BRANCH  22  24
ATOM     24  C   UNL     1      44.715   3.203   8.337  0.00  0.00    +0.000 C 
BRANCH  24  25
ATOM     25  C   UNL     1      46.183   3.033   7.954  0.00  0.00    +0.000 C 
ATOM     26  C   UNL     1      46.533   3.381   6.477  0.00  0.00    +0.000 C 
ATOM     27  C   UNL     1      47.471   2.165   6.444  0.00  0.00    +0.000 C 
ATOM     28  C   UNL     1      46.719   1.603   7.664  0.00  0.00    +0.000 C 
ENDBRANCH  24  25
ENDBRANCH  22  24
ENDBRANCH  15  18
ENDBRANCH   1  15
TORSDOF 6
ENDMDL
MODEL 8
REMARK VINA RESULT:    -6.577      4.262      6.389
REMARK INTER + INTRA:         -10.054
REMARK INTER:                  -9.300
REMARK INTRA:                  -0.754
REMARK UNBOUND:                -1.169
REMARK  Name = 
REMARK  6 active torsions:
REMARK  status: ('A' for Active; 'I' for Inactive)
REMARK    1  A    between atoms: C_2  and  C_4
REMARK    2  A    between atoms: N_8  and  C_9
REMARK    3  A    between atoms: C_9  and  C_10
REMARK    4  A    between atoms: C_10  and  C_13
REMARK    5  A    between atoms: C_17  and  C_18
REMARK    6  A    between atoms: C_18  and  C_19
REMARK                            x       y       z     vdW  Elec       q    Type
REMARK                         _______ _______ _______ _____ _____    ______ ____
ROOT
ATOM      1  C   UNL     1      47.563   4.635  16.003  0.00  0.00    +0.000 C 
ENDROOT
BRANCH   1   6
ATOM      2  C   UNL     1      45.641   4.824  11.281  0.00  0.00    +0.000 A 
ATOM      3  C   UNL     1      46.374   5.746  12.015  0.00  0.00    +0.000 A 
ATOM      4  C   UNL     1      46.761   5.417  13.310  0.00  0.00    +0.000 A 
ATOM      5  C   UNL     1      46.419   4.174  13.850  0.00  0.00    +0.000 A 
ATOM      6  N   UNL     1      46.782   3.785  15.114  0.00  0.00    +0.000 N 
ATOM      7  N   UNL     1      45.695   3.284  13.147  0.00  0.00    +0.000 NA
ATOM      8  C   UNL     1      45.304   3.629  11.891  0.00  0.00    +0.000 A 
ATOM      9  H   UNL     1      46.535   2.840  15.376  0.00  0.00    +0.000 HD
BRANCH   2  11
ATOM     10  N   UNL     1      43.882   4.841   9.614  0.00  0.00    +0.000 N 
ATOM     11  C   UNL     1      45.198   5.091   9.896  0.00  0.00    +0.000 C 
ATOM     12  O   UNL     1      45.962   5.553   9.056  0.00  0.00    +0.000 OA
ATOM     13  H   UNL     1      43.563   5.129   8.696  0.00  0.00    +0.000 HD
ATOM     14  H   UNL     1      43.186   4.711  10.330  0.00  0.00    +0.000 HD
ENDBRANCH   2  11
ENDBRANCH   1   6
BRANCH   1  15
ATOM     15  C   UNL     1      47.939   4.014  17.369  0.00  0.00    +0.000 C 
ATOM     16  F   UNL     1      47.470   4.812  18.372  0.00  0.00    +0.000 F 
ATOM     17  F   UNL     1      47.294   2.821  17.512  0.00  0.00    +0.000 F 
BRANCH  15  18
ATOM     18  C   UNL     1      49.451   3.875  17.390  0.00  0.00    +0.000 A 
ATOM     19  C   UNL     1      50.257   5.010  17.548  0.00  0.00    +0.000 A 
ATOM     20  C   UNL     1      51.629   4.867  17.752  0.00  0.00    +0.000 A 
ATOM     21  C   UNL     1      52.208   3.593  17.794  0.00  0.00    +0.000 A 
ATOM     22  C   UNL     1      51.427   2.445  17.603  0.00  0.00    +0.000 A 
ATOM     23  C   UNL     1      50.049   2.600  17.397  0.00  0.00    +0.000 A 
BRANCH  22  24
ATOM     24  C   UNL     1      52.050   1.063  17.598  0.00  0.00    +0.000 C 
BRANCH  24  25
ATOM     25  C   UNL     1      53.568   1.115  17.449  0.00  0.00    +0.000 C 
ATOM     26  C   UNL     1      54.208  -0.090  16.697  0.00  0.00    +0.000 C 
ATOM     27  C   UNL     1      55.358  -0.077  17.715  0.00  0.00    +0.000 C 
ATOM     28  C   UNL     1      54.453   0.725  18.668  0.00  0.00    +0.000 C 
ENDBRANCH  24  25
ENDBRANCH  22  24
ENDBRANCH  15  18
ENDBRANCH   1  15
TORSDOF 6
ENDMDL
MODEL 9
REMARK VINA RESULT:    -6.392      3.442      5.236
REMARK INTER + INTRA:          -9.803
REMARK INTER:                  -8.659
REMARK INTRA:                  -1.144
REMARK UNBOUND:                -1.169
REMARK  Name = 
REMARK  6 active torsions:
REMARK  status: ('A' for Active; 'I' for Inactive)
REMARK    1  A    between atoms: C_2  and  C_4
REMARK    2  A    between atoms: N_8  and  C_9
REMARK    3  A    between atoms: C_9  and  C_10
REMARK    4  A    between atoms: C_10  and  C_13
REMARK    5  A    between atoms: C_17  and  C_18
REMARK    6  A    between atoms: C_18  and  C_19
REMARK                            x       y       z     vdW  Elec       q    Type
REMARK                         _______ _______ _______ _____ _____    ______ ____
ROOT
ATOM      1  C   UNL     1      47.587   7.625  13.629  0.00  0.00    +0.000 C 
ENDROOT
BRANCH   1   6
ATOM      2  C   UNL     1      44.783   3.970  11.439  0.00  0.00    +0.000 A 
ATOM      3  C   UNL     1      45.396   4.040  12.681  0.00  0.00    +0.000 A 
ATOM      4  C   UNL     1      46.120   5.182  13.009  0.00  0.00    +0.000 A 
ATOM      5  C   UNL     1      46.214   6.238  12.098  0.00  0.00    +0.000 A 
ATOM      6  N   UNL     1      46.900   7.395  12.366  0.00  0.00    +0.000 N 
ATOM      7  N   UNL     1      45.634   6.166  10.885  0.00  0.00    +0.000 NA
ATOM      8  C   UNL     1      44.950   5.035  10.571  0.00  0.00    +0.000 A 
ATOM      9  H   UNL     1      46.847   8.116  11.659  0.00  0.00    +0.000 HD
BRANCH   2  11
ATOM     10  N   UNL     1      44.424   2.130   9.902  0.00  0.00    +0.000 N 
ATOM     11  C   UNL     1      43.989   2.797  11.017  0.00  0.00    +0.000 C 
ATOM     12  O   UNL     1      43.015   2.416  11.656  0.00  0.00    +0.000 OA
ATOM     13  H   UNL     1      43.940   1.267   9.684  0.00  0.00    +0.000 HD
ATOM     14  H   UNL     1      45.345   2.259   9.515  0.00  0.00    +0.000 HD
ENDBRANCH   2  11
ENDBRANCH   1   6
BRANCH   1  15
ATOM     15  C   UNL     1      49.129   7.504  13.588  0.00  0.00    +0.000 C 
ATOM     16  F   UNL     1      49.489   6.662  12.577  0.00  0.00    +0.000 F 
ATOM     17  F   UNL     1      49.666   8.717  13.270  0.00  0.00    +0.000 F 
BRANCH  15  18
ATOM     18  C   UNL     1      49.569   7.002  14.953  0.00  0.00    +0.000 A 
ATOM     19  C   UNL     1      50.811   7.389  15.474  0.00  0.00    +0.000 A 
ATOM     20  C   UNL     1      51.137   7.083  16.795  0.00  0.00    +0.000 A 
ATOM     21  C   UNL     1      50.232   6.384  17.602  0.00  0.00    +0.000 A 
ATOM     22  C   UNL     1      48.998   5.956  17.091  0.00  0.00    +0.000 A 
ATOM     23  C   UNL     1      48.682   6.267  15.762  0.00  0.00    +0.000 A 
BRANCH  22  24
ATOM     24  C   UNL     1      48.031   5.156  17.941  0.00  0.00    +0.000 C 
BRANCH  24  25
ATOM     25  C   UNL     1      48.292   3.654  17.855  0.00  0.00    +0.000 C 
ATOM     26  C   UNL     1      49.772   3.248  17.587  0.00  0.00    +0.000 C 
ATOM     27  C   UNL     1      49.267   2.152  16.635  0.00  0.00    +0.000 C 
ATOM     28  C   UNL     1      47.929   2.907  16.540  0.00  0.00    +0.000 C 
ENDBRANCH  24  25
ENDBRANCH  22  24
ENDBRANCH  15  18
ENDBRANCH   1  15
TORSDOF 6
ENDMDL
