MODEL 1
REMARK VINA RESULT:    -9.106      0.000      0.000
REMARK INTER + INTRA:         -12.017
REMARK INTER:                 -11.235
REMARK INTRA:                  -0.781
REMARK UNBOUND:                -0.781
REMARK  Name = 
REMARK  4 active torsions:
REMARK  status: ('A' for Active; 'I' for Inactive)
REMARK    1  A    between atoms: C_2  and  C_4
REMARK    2  A    between atoms: N_8  and  C_9
REMARK    3  A    between atoms: C_9  and  C_10
REMARK    4  A    between atoms: C_14  and  C_15
REMARK                            x       y       z     vdW  Elec       q    Type
REMARK                         _______ _______ _______ _____ _____    ______ ____
ROOT
ATOM      1  C   UNL     1      43.457   4.931  11.017  0.00  0.00    +0.000 C 
ENDROOT
BRANCH   1   6
ATOM      2  C   UNL     1      46.351   2.294   7.695  0.00  0.00    +0.000 A 
ATOM      3  C   UNL     1      45.625   1.817   8.781  0.00  0.00    +0.000 A 
ATOM      4  C   UNL     1      44.762   2.685   9.456  0.00  0.00    +0.000 A 
ATOM      5  C   UNL     1      44.651   4.009   9.045  0.00  0.00    +0.000 A 
ATOM      6  N   UNL     1      43.783   4.916   9.607  0.00  0.00    +0.000 N 
ATOM      7  N   UNL     1      45.360   4.482   8.001  0.00  0.00    +0.000 NA
ATOM      8  C   UNL     1      46.196   3.628   7.355  0.00  0.00    +0.000 A 
ATOM      9  H   UNL     1      43.933   5.826   9.185  0.00  0.00    +0.000 HD
BRANCH   2  11
ATOM     10  N   UNL     1      48.377   2.062   6.371  0.00  0.00    +0.000 N 
ATOM     11  C   UNL     1      47.278   1.454   6.910  0.00  0.00    +0.000 C 
ATOM     12  O   UNL     1      47.090   0.251   6.775  0.00  0.00    +0.000 OA
ATOM     13  H   UNL     1      49.051   1.453   5.924  0.00  0.00    +0.000 HD
ATOM     14  H   UNL     1      48.696   2.973   6.664  0.00  0.00    +0.000 HD
ENDBRANCH   2  11
ENDBRANCH   1   6
BRANCH   1  15
ATOM     15  C   UNL     1      44.624   5.169  11.953  0.00  0.00    +0.000 A 
ATOM     16  C   UNL     1      44.971   4.325  13.013  0.00  0.00    +0.000 A 
ATOM     17  C   UNL     1      46.085   4.610  13.804  0.00  0.00    +0.000 A 
ATOM     18  C   UNL     1      46.869   5.737  13.545  0.00  0.00    +0.000 A 
ATOM     19  C   UNL     1      46.563   6.607  12.487  0.00  0.00    +0.000 A 
ATOM     20  C   UNL     1      45.423   6.308  11.717  0.00  0.00    +0.000 A 
BRANCH  19  21
ATOM     21  C   UNL     1      47.424   7.762  12.160  0.00  0.00    +0.000 A 
ATOM     22  C   UNL     1      46.969   9.080  12.286  0.00  0.00    +0.000 A 
ATOM     23  N   UNL     1      47.705  10.195  12.038  0.00  0.00    +0.000 NA
ATOM     24  C   UNL     1      48.984   9.992  11.651  0.00  0.00    +0.000 A 
ATOM     25  C   UNL     1      49.538   8.735  11.498  0.00  0.00    +0.000 A 
ATOM     26  F   UNL     1      50.813   8.596  11.118  0.00  0.00    +0.000 F 
ATOM     27  C   UNL     1      48.756   7.613  11.746  0.00  0.00    +0.000 A 
ENDBRANCH  19  21
ENDBRANCH   1  15
TORSDOF 4
ENDMDL
MODEL 2
REMARK VINA RESULT:    -8.563      2.618      3.578
REMARK INTER + INTRA:         -11.347
REMARK INTER:                 -10.641
REMARK INTRA:                  -0.706
REMARK UNBOUND:                -0.781
REMARK  Name = 
REMARK  4 active torsions:
REMARK  status: ('A' for Active; 'I' for Inactive)
REMARK    1  A    between atoms: C_2  and  C_4
REMARK    2  A    between atoms: N_8  and  C_9
REMARK    3  A    between atoms: C_9  and  C_10
REMARK    4  A    between atoms: C_14  and  C_15
REMARK                            x       y       z     vdW  Elec       q    Type
REMARK                         _______ _______ _______ _____ _____    ______ ____
ROOT
ATOM      1  C   UNL     1      43.652   5.004  11.049  0.00  0.00    +0.000 C 
ENDROOT
BRANCH   1   6
ATOM      2  C   UNL     1      46.375   2.281   7.652  0.00  0.00    +0.000 A 
ATOM      3  C   UNL     1      45.818   1.859   8.853  0.00  0.00    +0.000 A 
ATOM      4  C   UNL     1      44.964   2.721   9.547  0.00  0.00    +0.000 A 
ATOM      5  C   UNL     1      44.694   3.987   9.037  0.00  0.00    +0.000 A 
ATOM      6  N   UNL     1      43.819   4.876   9.617  0.00  0.00    +0.000 N 
ATOM      7  N   UNL     1      45.239   4.408   7.879  0.00  0.00    +0.000 NA
ATOM      8  C   UNL     1      46.068   3.560   7.216  0.00  0.00    +0.000 A 
ATOM      9  H   UNL     1      43.842   5.750   9.101  0.00  0.00    +0.000 HD
BRANCH   2  11
ATOM     10  N   UNL     1      48.387   2.038   6.309  0.00  0.00    +0.000 N 
ATOM     11  C   UNL     1      47.278   1.441   6.839  0.00  0.00    +0.000 C 
ATOM     12  O   UNL     1      47.062   0.247   6.675  0.00  0.00    +0.000 OA
ATOM     13  H   UNL     1      49.045   1.426   5.842  0.00  0.00    +0.000 HD
ATOM     14  H   UNL     1      48.729   2.934   6.623  0.00  0.00    +0.000 HD
ENDBRANCH   2  11
ENDBRANCH   1   6
BRANCH   1  15
ATOM     15  C   UNL     1      44.614   5.952  11.735  0.00  0.00    +0.000 A 
ATOM     16  C   UNL     1      44.698   7.322  11.467  0.00  0.00    +0.000 A 
ATOM     17  C   UNL     1      45.594   8.124  12.173  0.00  0.00    +0.000 A 
ATOM     18  C   UNL     1      46.416   7.571  13.158  0.00  0.00    +0.000 A 
ATOM     19  C   UNL     1      46.360   6.203  13.467  0.00  0.00    +0.000 A 
ATOM     20  C   UNL     1      45.461   5.413  12.726  0.00  0.00    +0.000 A 
BRANCH  19  21
ATOM     21  C   UNL     1      47.173   5.620  14.554  0.00  0.00    +0.000 A 
ATOM     22  C   UNL     1      48.321   6.257  15.040  0.00  0.00    +0.000 A 
ATOM     23  N   UNL     1      49.103   5.805  16.056  0.00  0.00    +0.000 NA
ATOM     24  C   UNL     1      48.715   4.650  16.639  0.00  0.00    +0.000 A 
ATOM     25  C   UNL     1      47.597   3.940  16.243  0.00  0.00    +0.000 A 
ATOM     26  F   UNL     1      47.258   2.804  16.864  0.00  0.00    +0.000 F 
ATOM     27  C   UNL     1      46.824   4.420  15.192  0.00  0.00    +0.000 A 
ENDBRANCH  19  21
ENDBRANCH   1  15
TORSDOF 4
ENDMDL
MODEL 3
REMARK VINA RESULT:    -7.497      2.116      2.802
REMARK INTER + INTRA:         -10.032
REMARK INTER:                  -9.370
REMARK INTRA:                  -0.661
REMARK UNBOUND:                -0.781
REMARK  Name = 
REMARK  4 active torsions:
REMARK  status: ('A' for Active; 'I' for Inactive)
REMARK    1  A    between atoms: C_2  and  C_4
REMARK    2  A    between atoms: N_8  and  C_9
REMARK    3  A    between atoms: C_9  and  C_10
REMARK    4  A    between atoms: C_14  and  C_15
REMARK                            x       y       z     vdW  Elec       q    Type
REMARK                         _______ _______ _______ _____ _____    ______ ____
ROOT
ATOM      1  C   UNL     1      43.392   5.056  10.999  0.00  0.00    +0.000 C 
ENDROOT
BRANCH   1   6
ATOM      2  C   UNL     1      46.406   2.726   7.556  0.00  0.00    +0.000 A 
ATOM      3  C   UNL     1      46.196   4.087   7.743  0.00  0.00    +0.000 A 
ATOM      4  C   UNL     1      45.465   4.516   8.855  0.00  0.00    +0.000 A 
ATOM      5  C   UNL     1      44.950   3.582   9.747  0.00  0.00    +0.000 A 
ATOM      6  N   UNL     1      44.275   3.913  10.899  0.00  0.00    +0.000 N 
ATOM      7  N   UNL     1      45.140   2.260   9.567  0.00  0.00    +0.000 NA
ATOM      8  C   UNL     1      45.851   1.857   8.481  0.00  0.00    +0.000 A 
ATOM      9  H   UNL     1      43.942   3.064  11.345  0.00  0.00    +0.000 HD
BRANCH   2  11
ATOM     10  N   UNL     1      47.275   2.943   5.296  0.00  0.00    +0.000 N 
ATOM     11  C   UNL     1      47.175   2.175   6.422  0.00  0.00    +0.000 C 
ATOM     12  O   UNL     1      47.731   1.087   6.497  0.00  0.00    +0.000 OA
ATOM     13  H   UNL     1      47.888   2.595   4.569  0.00  0.00    +0.000 HD
ATOM     14  H   UNL     1      47.054   3.928   5.285  0.00  0.00    +0.000 HD
ENDBRANCH   2  11
ENDBRANCH   1   6
BRANCH   1  15
ATOM     15  C   UNL     1      44.060   6.364  11.369  0.00  0.00    +0.000 A 
ATOM     16  C   UNL     1      43.584   7.626  10.998  0.00  0.00    +0.000 A 
ATOM     17  C   UNL     1      44.250   8.780  11.412  0.00  0.00    +0.000 A 
ATOM     18  C   UNL     1      45.396   8.690  12.206  0.00  0.00    +0.000 A 
ATOM     19  C   UNL     1      45.904   7.446  12.610  0.00  0.00    +0.000 A 
ATOM     20  C   UNL     1      45.225   6.297  12.162  0.00  0.00    +0.000 A 
BRANCH  19  21
ATOM     21  C   UNL     1      47.074   7.341  13.507  0.00  0.00    +0.000 A 
ATOM     22  C   UNL     1      47.555   6.103  13.949  0.00  0.00    +0.000 A 
ATOM     23  N   UNL     1      48.641   5.917  14.746  0.00  0.00    +0.000 NA
ATOM     24  C   UNL     1      49.303   7.034  15.120  0.00  0.00    +0.000 A 
ATOM     25  C   UNL     1      48.919   8.306  14.740  0.00  0.00    +0.000 A 
ATOM     26  F   UNL     1      49.618   9.375  15.136  0.00  0.00    +0.000 F 
ATOM     27  C   UNL     1      47.796   8.464  13.935  0.00  0.00    +0.000 A 
ENDBRANCH  19  21
ENDBRANCH   1  15
TORSDOF 4
ENDMDL
MODEL 4
REMARK VINA RESULT:    -7.451      3.663      6.935
REMARK INTER + INTRA:          -9.975
REMARK INTER:                  -9.245
REMARK INTRA:                  -0.730
REMARK UNBOUND:                -0.781
REMARK  Name = 
REMARK  4 active torsions:
REMARK  status: ('A' for Active; 'I' for Inactive)
REMARK    1  A    between atoms: C_2  and  C_4
REMARK    2  A    between atoms: N_8  and  C_9
REMARK    3  A    between atoms: C_9  and  C_10
REMARK    4  A    between atoms: C_14  and  C_15
REMARK                            x       y       z     vdW  Elec       q    Type
REMARK                         _______ _______ _______ _____ _____    ______ ____
ROOT
ATOM      1  C   UNL     1      44.234   6.607  11.989  0.00  0.00    +0.000 C 
ENDROOT
BRANCH   1   6
ATOM      2  C   UNL     1      49.171   7.762  12.806  0.00  0.00    +0.000 A 
ATOM      3  C   UNL     1      48.341   8.185  11.774  0.00  0.00    +0.000 A 
ATOM      4  C   UNL     1      46.976   7.890  11.835  0.00  0.00    +0.000 A 
ATOM      5  C   UNL     1      46.470   7.170  12.912  0.00  0.00    +0.000 A 
ATOM      6  N   UNL     1      45.135   6.889  13.087  0.00  0.00    +0.000 N 
ATOM      7  N   UNL     1      47.269   6.746  13.910  0.00  0.00    +0.000 NA
ATOM      8  C   UNL     1      48.594   7.039  13.838  0.00  0.00    +0.000 A 
ATOM      9  H   UNL     1      45.024   6.299  13.905  0.00  0.00    +0.000 HD
BRANCH   2  11
ATOM     10  N   UNL     1      51.357   7.672  11.747  0.00  0.00    +0.000 N 
ATOM     11  C   UNL     1      50.622   8.034  12.840  0.00  0.00    +0.000 C 
ATOM     12  O   UNL     1      51.143   8.595  13.796  0.00  0.00    +0.000 OA
ATOM     13  H   UNL     1      52.329   7.958  11.746  0.00  0.00    +0.000 HD
ATOM     14  H   UNL     1      50.938   7.447  10.857  0.00  0.00    +0.000 HD
ENDBRANCH   2  11
ENDBRANCH   1   6
BRANCH   1  15
ATOM     15  C   UNL     1      44.136   5.150  11.586  0.00  0.00    +0.000 A 
ATOM     16  C   UNL     1      43.346   4.200  12.242  0.00  0.00    +0.000 A 
ATOM     17  C   UNL     1      43.294   2.886  11.778  0.00  0.00    +0.000 A 
ATOM     18  C   UNL     1      44.026   2.503  10.651  0.00  0.00    +0.000 A 
ATOM     19  C   UNL     1      44.825   3.424   9.956  0.00  0.00    +0.000 A 
ATOM     20  C   UNL     1      44.875   4.738  10.456  0.00  0.00    +0.000 A 
BRANCH  19  21
ATOM     21  C   UNL     1      45.547   3.048   8.723  0.00  0.00    +0.000 A 
ATOM     22  C   UNL     1      45.902   3.997   7.757  0.00  0.00    +0.000 A 
ATOM     23  N   UNL     1      46.592   3.740   6.615  0.00  0.00    +0.000 NA
ATOM     24  C   UNL     1      46.969   2.457   6.422  0.00  0.00    +0.000 A 
ATOM     25  C   UNL     1      46.676   1.439   7.311  0.00  0.00    +0.000 A 
ATOM     26  F   UNL     1      47.081   0.188   7.069  0.00  0.00    +0.000 F 
ATOM     27  C   UNL     1      45.956   1.731   8.463  0.00  0.00    +0.000 A 
ENDBRANCH  19  21
ENDBRANCH   1  15
TORSDOF 4
ENDMDL
MODEL 5
REMARK VINA RESULT:    -7.441      3.763      7.349
REMARK INTER + INTRA:          -9.962
REMARK INTER:                  -9.644
REMARK INTRA:                  -0.318
REMARK UNBOUND:                -0.781
REMARK  Name = 
REMARK  4 active torsions:
REMARK  status: ('A' for Active; 'I' for Inactive)
REMARK    1  A    between atoms: C_2  and  C_4
REMARK    2  A    between atoms: N_8  and  C_9
REMARK    3  A    between atoms: C_9  and  C_10
REMARK    4  A    between atoms: C_14  and  C_15
REMARK                            x       y       z     vdW  Elec       q    Type
REMARK                         _______ _______ _______ _____ _____    ______ ____
ROOT
ATOM      1  C   UNL     1      45.323   6.688  11.390  0.00  0.00    +0.000 C 
ENDROOT
BRANCH   1   6
ATOM      2  C   UNL     1      47.872   5.173  15.582  0.00  0.00    +0.000 A 
ATOM      3  C   UNL     1      46.902   4.485  14.861  0.00  0.00    +0.000 A 
ATOM      4  C   UNL     1      46.458   5.011  13.645  0.00  0.00    +0.000 A 
ATOM      5  C   UNL     1      46.977   6.215  13.180  0.00  0.00    +0.000 A 
ATOM      6  N   UNL     1      46.647   6.775  11.968  0.00  0.00    +0.000 N 
ATOM      7  N   UNL     1      47.910   6.894  13.877  0.00  0.00    +0.000 NA
ATOM      8  C   UNL     1      48.332   6.371  15.059  0.00  0.00    +0.000 A 
ATOM      9  H   UNL     1      47.102   7.678  11.884  0.00  0.00    +0.000 HD
BRANCH   2  11
ATOM     10  N   UNL     1      47.607   4.784  17.967  0.00  0.00    +0.000 N 
ATOM     11  C   UNL     1      48.416   4.694  16.869  0.00  0.00    +0.000 C 
ATOM     12  O   UNL     1      49.534   4.201  16.945  0.00  0.00    +0.000 OA
ATOM     13  H   UNL     1      47.956   4.358  18.817  0.00  0.00    +0.000 HD
ATOM     14  H   UNL     1      46.612   4.942  17.902  0.00  0.00    +0.000 HD
ENDBRANCH   2  11
ENDBRANCH   1   6
BRANCH   1  15
ATOM     15  C   UNL     1      44.873   5.296  10.996  0.00  0.00    +0.000 A 
ATOM     16  C   UNL     1      43.815   4.608  11.599  0.00  0.00    +0.000 A 
ATOM     17  C   UNL     1      43.452   3.340  11.147  0.00  0.00    +0.000 A 
ATOM     18  C   UNL     1      44.137   2.742  10.086  0.00  0.00    +0.000 A 
ATOM     19  C   UNL     1      45.199   3.398   9.446  0.00  0.00    +0.000 A 
ATOM     20  C   UNL     1      45.558   4.669   9.934  0.00  0.00    +0.000 A 
BRANCH  19  21
ATOM     21  C   UNL     1      45.885   2.807   8.278  0.00  0.00    +0.000 A 
ATOM     22  C   UNL     1      46.289   1.467   8.261  0.00  0.00    +0.000 A 
ATOM     23  N   UNL     1      46.894   0.839   7.218  0.00  0.00    +0.000 NA
ATOM     24  C   UNL     1      47.101   1.586   6.111  0.00  0.00    +0.000 A 
ATOM     25  C   UNL     1      46.739   2.917   6.017  0.00  0.00    +0.000 A 
ATOM     26  F   UNL     1      46.963   3.605   4.891  0.00  0.00    +0.000 F 
ATOM     27  C   UNL     1      46.134   3.535   7.105  0.00  0.00    +0.000 A 
ENDBRANCH  19  21
ENDBRANCH   1  15
TORSDOF 4
ENDMDL
MODEL 6
REMARK VINA RESULT:    -7.157      4.881      7.954
REMARK INTER + INTRA:          -9.611
REMARK INTER:                  -9.142
REMARK INTRA:                  -0.469
REMARK UNBOUND:                -0.781
REMARK  Name = 
REMARK  4 active torsions:
REMARK  status: ('A' for Active; 'I' for Inactive)
REMARK    1  A    between atoms: C_2  and  C_4
REMARK    2  A    between atoms: N_8  and  C_9
REMARK    3  A    between atoms: C_9  and  C_10
REMARK    4  A    between atoms: C_14  and  C_15
REMARK                            x       y       z     vdW  Elec       q    Type
REMARK                         _______ _______ _______ _____ _____    ______ ____
ROOT
ATOM      1  C   UNL     1      45.389   4.440  14.175  0.00  0.00    +0.000 C 
ENDROOT
BRANCH   1   6
ATOM      2  C   UNL     1      49.367   4.773  17.405  0.00  0.00    +0.000 A 
ATOM      3  C   UNL     1      48.511   3.699  17.192  0.00  0.00    +0.000 A 
ATOM      4  C   UNL     1      47.595   3.757  16.138  0.00  0.00    +0.000 A 
ATOM      5  C   UNL     1      47.542   4.887  15.329  0.00  0.00    +0.000 A 
ATOM      6  N   UNL     1      46.720   5.006  14.233  0.00  0.00    +0.000 N 
ATOM      7  N   UNL     1      48.360   5.937  15.535  0.00  0.00    +0.000 NA
ATOM      8  C   UNL     1      49.245   5.868  16.564  0.00  0.00    +0.000 A 
ATOM      9  H   UNL     1      46.813   5.941  13.848  0.00  0.00    +0.000 HD
BRANCH   2  11
ATOM     10  N   UNL     1      51.006   3.628  18.788  0.00  0.00    +0.000 N 
ATOM     11  C   UNL     1      50.377   4.802  18.482  0.00  0.00    +0.000 C 
ATOM     12  O   UNL     1      50.667   5.844  19.057  0.00  0.00    +0.000 OA
ATOM     13  H   UNL     1      51.765   3.687  19.456  0.00  0.00    +0.000 HD
ATOM     14  H   UNL     1      50.983   2.822  18.181  0.00  0.00    +0.000 HD
ENDBRANCH   2  11
ENDBRANCH   1   6
BRANCH   1  15
ATOM     15  C   UNL     1      44.661   4.620  12.859  0.00  0.00    +0.000 A 
ATOM     16  C   UNL     1      43.491   5.371  12.700  0.00  0.00    +0.000 A 
ATOM     17  C   UNL     1      42.908   5.506  11.441  0.00  0.00    +0.000 A 
ATOM     18  C   UNL     1      43.485   4.898  10.323  0.00  0.00    +0.000 A 
ATOM     19  C   UNL     1      44.662   4.143  10.434  0.00  0.00    +0.000 A 
ATOM     20  C   UNL     1      45.220   4.005  11.719  0.00  0.00    +0.000 A 
BRANCH  19  21
ATOM     21  C   UNL     1      45.319   3.554   9.249  0.00  0.00    +0.000 A 
ATOM     22  C   UNL     1      45.807   4.348   8.204  0.00  0.00    +0.000 A 
ATOM     23  N   UNL     1      46.451   3.890   7.099  0.00  0.00    +0.000 NA
ATOM     24  C   UNL     1      46.636   2.553   7.028  0.00  0.00    +0.000 A 
ATOM     25  C   UNL     1      46.200   1.675   8.003  0.00  0.00    +0.000 A 
ATOM     26  F   UNL     1      46.419   0.361   7.882  0.00  0.00    +0.000 F 
ATOM     27  C   UNL     1      45.533   2.173   9.116  0.00  0.00    +0.000 A 
ENDBRANCH  19  21
ENDBRANCH   1  15
TORSDOF 4
ENDMDL
MODEL 7
REMARK VINA RESULT:    -7.045      5.735      8.188
REMARK INTER + INTRA:          -9.473
REMARK INTER:                  -8.842
REMARK INTRA:                  -0.632
REMARK UNBOUND:                -0.781
REMARK  Name = 
REMARK  4 active torsions:
REMARK  status: ('A' for Active; 'I' for Inactive)
REMARK    1  A    between atoms: C_2  and  C_4
REMARK    2  A    between atoms: N_8  and  C_9
REMARK    3  A    between atoms: C_9  and  C_10
REMARK    4  A    between atoms: C_14  and  C_15
REMARK                            x       y       z     vdW  Elec       q    Type
REMARK                         _______ _______ _______ _____ _____    ______ ____
ROOT
ATOM      1  C   UNL     1      48.658   6.527  16.073  0.00  0.00    +0.000 C 
ENDROOT
BRANCH   1   6
ATOM      2  C   UNL     1      51.350   2.404  17.530  0.00  0.00    +0.000 A 
ATOM      3  C   UNL     1      51.684   3.747  17.661  0.00  0.00    +0.000 A 
ATOM      4  C   UNL     1      50.727   4.719  17.353  0.00  0.00    +0.000 A 
ATOM      5  C   UNL     1      49.466   4.333  16.909  0.00  0.00    +0.000 A 
ATOM      6  N   UNL     1      48.444   5.214  16.644  0.00  0.00    +0.000 N 
ATOM      7  N   UNL     1      49.139   3.033  16.769  0.00  0.00    +0.000 NA
ATOM      8  C   UNL     1      50.079   2.100  17.071  0.00  0.00    +0.000 A 
ATOM      9  H   UNL     1      47.650   4.701  16.273  0.00  0.00    +0.000 HD
BRANCH   2  11
ATOM     10  N   UNL     1      51.746   0.093  18.173  0.00  0.00    +0.000 N 
ATOM     11  C   UNL     1      52.286   1.305  17.843  0.00  0.00    +0.000 C 
ATOM     12  O   UNL     1      53.498   1.460  17.775  0.00  0.00    +0.000 OA
ATOM     13  H   UNL     1      52.399  -0.673  18.284  0.00  0.00    +0.000 HD
ATOM     14  H   UNL     1      50.780  -0.142  17.997  0.00  0.00    +0.000 HD
ENDBRANCH   2  11
ENDBRANCH   1   6
BRANCH   1  15
ATOM     15  C   UNL     1      48.318   6.661  14.603  0.00  0.00    +0.000 A 
ATOM     16  C   UNL     1      49.055   7.420  13.688  0.00  0.00    +0.000 A 
ATOM     17  C   UNL     1      48.683   7.459  12.345  0.00  0.00    +0.000 A 
ATOM     18  C   UNL     1      47.574   6.737  11.895  0.00  0.00    +0.000 A 
ATOM     19  C   UNL     1      46.811   5.955  12.775  0.00  0.00    +0.000 A 
ATOM     20  C   UNL     1      47.196   5.949  14.129  0.00  0.00    +0.000 A 
BRANCH  19  21
ATOM     21  C   UNL     1      45.680   5.132  12.298  0.00  0.00    +0.000 A 
ATOM     22  C   UNL     1      44.936   4.326  13.168  0.00  0.00    +0.000 A 
ATOM     23  N   UNL     1      43.865   3.567  12.818  0.00  0.00    +0.000 NA
ATOM     24  C   UNL     1      43.496   3.619  11.519  0.00  0.00    +0.000 A 
ATOM     25  C   UNL     1      44.156   4.383  10.574  0.00  0.00    +0.000 A 
ATOM     26  F   UNL     1      43.741   4.400   9.303  0.00  0.00    +0.000 F 
ATOM     27  C   UNL     1      45.257   5.138  10.961  0.00  0.00    +0.000 A 
ENDBRANCH  19  21
ENDBRANCH   1  15
TORSDOF 4
ENDMDL
MODEL 8
REMARK VINA RESULT:    -6.714      5.050      8.169
REMARK INTER + INTRA:          -9.065
REMARK INTER:                  -8.608
REMARK INTRA:                  -0.457
REMARK UNBOUND:                -0.781
REMARK  Name = 
REMARK  4 active torsions:
REMARK  status: ('A' for Active; 'I' for Inactive)
REMARK    1  A    between atoms: C_2  and  C_4
REMARK    2  A    between atoms: N_8  and  C_9
REMARK    3  A    between atoms: C_9  and  C_10
REMARK    4  A    between atoms: C_14  and  C_15
REMARK                            x       y       z     vdW  Elec       q    Type
REMARK                         _______ _______ _______ _____ _____    ______ ____
ROOT
ATOM      1  C   UNL     1      48.202   7.320  14.102  0.00  0.00    +0.000 C 
ENDROOT
BRANCH   1   6
ATOM      2  C   UNL     1      50.886   4.683  17.597  0.00  0.00    +0.000 A 
ATOM      3  C   UNL     1      51.212   5.886  16.980  0.00  0.00    +0.000 A 
ATOM      4  C   UNL     1      50.256   6.522  16.183  0.00  0.00    +0.000 A 
ATOM      5  C   UNL     1      49.005   5.942  16.005  0.00  0.00    +0.000 A 
ATOM      6  N   UNL     1      47.984   6.525  15.292  0.00  0.00    +0.000 N 
ATOM      7  N   UNL     1      48.685   4.771  16.590  0.00  0.00    +0.000 NA
ATOM      8  C   UNL     1      49.624   4.163  17.362  0.00  0.00    +0.000 A 
ATOM      9  H   UNL     1      47.198   5.883  15.250  0.00  0.00    +0.000 HD
BRANCH   2  11
ATOM     10  N   UNL     1      51.728   4.153  19.815  0.00  0.00    +0.000 N 
ATOM     11  C   UNL     1      51.820   3.942  18.468  0.00  0.00    +0.000 C 
ATOM     12  O   UNL     1      52.624   3.142  18.006  0.00  0.00    +0.000 OA
ATOM     13  H   UNL     1      52.305   3.562  20.401  0.00  0.00    +0.000 HD
ATOM     14  H   UNL     1      50.930   4.597  20.245  0.00  0.00    +0.000 HD
ENDBRANCH   2  11
ENDBRANCH   1   6
BRANCH   1  15
ATOM     15  C   UNL     1      47.006   7.456  13.182  0.00  0.00    +0.000 A 
ATOM     16  C   UNL     1      46.262   8.630  13.021  0.00  0.00    +0.000 A 
ATOM     17  C   UNL     1      45.194   8.670  12.125  0.00  0.00    +0.000 A 
ATOM     18  C   UNL     1      44.856   7.541  11.374  0.00  0.00    +0.000 A 
ATOM     19  C   UNL     1      45.579   6.345  11.496  0.00  0.00    +0.000 A 
ATOM     20  C   UNL     1      46.640   6.325  12.421  0.00  0.00    +0.000 A 
BRANCH  19  21
ATOM     21  C   UNL     1      45.275   5.167  10.657  0.00  0.00    +0.000 A 
ATOM     22  C   UNL     1      44.556   4.074  11.153  0.00  0.00    +0.000 A 
ATOM     23  N   UNL     1      44.208   2.970  10.440  0.00  0.00    +0.000 NA
ATOM     24  C   UNL     1      44.587   2.953   9.144  0.00  0.00    +0.000 A 
ATOM     25  C   UNL     1      45.297   3.979   8.549  0.00  0.00    +0.000 A 
ATOM     26  F   UNL     1      45.640   3.910   7.258  0.00  0.00    +0.000 F 
ATOM     27  C   UNL     1      45.650   5.089   9.307  0.00  0.00    +0.000 A 
ENDBRANCH  19  21
ENDBRANCH   1  15
TORSDOF 4
ENDMDL
MODEL 9
REMARK VINA RESULT:    -6.361      4.154      5.980
REMARK INTER + INTRA:          -8.629
REMARK INTER:                  -8.019
REMARK INTRA:                  -0.611
REMARK UNBOUND:                -0.781
REMARK  Name = 
REMARK  4 active torsions:
REMARK  status: ('A' for Active; 'I' for Inactive)
REMARK    1  A    between atoms: C_2  and  C_4
REMARK    2  A    between atoms: N_8  and  C_9
REMARK    3  A    between atoms: C_9  and  C_10
REMARK    4  A    between atoms: C_14  and  C_15
REMARK                            x       y       z     vdW  Elec       q    Type
REMARK                         _______ _______ _______ _____ _____    ______ ____
ROOT
ATOM      1  C   UNL     1      47.565   7.996  12.571  0.00  0.00    +0.000 C 
ENDROOT
BRANCH   1   6
ATOM      2  C   UNL     1      44.538   4.008  11.429  0.00  0.00    +0.000 A 
ATOM      3  C   UNL     1      45.676   4.032  12.227  0.00  0.00    +0.000 A 
ATOM      4  C   UNL     1      46.256   5.263  12.549  0.00  0.00    +0.000 A 
ATOM      5  C   UNL     1      45.700   6.439  12.058  0.00  0.00    +0.000 A 
ATOM      6  N   UNL     1      46.163   7.695  12.373  0.00  0.00    +0.000 N 
ATOM      7  N   UNL     1      44.604   6.424  11.274  0.00  0.00    +0.000 NA
ATOM      8  C   UNL     1      44.051   5.221  10.969  0.00  0.00    +0.000 A 
ATOM      9  H   UNL     1      45.640   8.385  11.843  0.00  0.00    +0.000 HD
BRANCH   2  11
ATOM     10  N   UNL     1      44.301   2.103   9.937  0.00  0.00    +0.000 N 
ATOM     11  C   UNL     1      43.845   2.762  11.045  0.00  0.00    +0.000 C 
ATOM     12  O   UNL     1      42.921   2.314  11.711  0.00  0.00    +0.000 OA
ATOM     13  H   UNL     1      43.882   1.201   9.748  0.00  0.00    +0.000 HD
ATOM     14  H   UNL     1      45.199   2.295   9.518  0.00  0.00    +0.000 HD
ENDBRANCH   2  11
ENDBRANCH   1   6
BRANCH   1  15
ATOM     15  C   UNL     1      48.021   8.053  14.014  0.00  0.00    +0.000 A 
ATOM     16  C   UNL     1      48.218   9.237  14.734  0.00  0.00    +0.000 A 
ATOM     17  C   UNL     1      48.609   9.190  16.072  0.00  0.00    +0.000 A 
ATOM     18  C   UNL     1      48.806   7.963  16.711  0.00  0.00    +0.000 A 
ATOM     19  C   UNL     1      48.613   6.751  16.031  0.00  0.00    +0.000 A 
ATOM     20  C   UNL     1      48.237   6.826  14.677  0.00  0.00    +0.000 A 
BRANCH  19  21
ATOM     21  C   UNL     1      48.750   5.449  16.715  0.00  0.00    +0.000 A 
ATOM     22  C   UNL     1      49.947   5.058  17.325  0.00  0.00    +0.000 A 
ATOM     23  N   UNL     1      50.146   3.896  18.001  0.00  0.00    +0.000 NA
ATOM     24  C   UNL     1      49.081   3.068  18.089  0.00  0.00    +0.000 A 
ATOM     25  C   UNL     1      47.851   3.354  17.527  0.00  0.00    +0.000 A 
ATOM     26  F   UNL     1      46.831   2.498  17.652  0.00  0.00    +0.000 F 
ATOM     27  C   UNL     1      47.683   4.545  16.831  0.00  0.00    +0.000 A 
ENDBRANCH  19  21
ENDBRANCH   1  15
TORSDOF 4
ENDMDL
