MODEL 1
REMARK VINA RESULT:    -8.000      0.000      0.000
REMARK INTER + INTRA:         -11.750
REMARK INTER:                 -10.806
REMARK INTRA:                  -0.944
REMARK UNBOUND:                -0.944
REMARK  Name = 
REMARK  6 active torsions:
REMARK  status: ('A' for Active; 'I' for Inactive)
REMARK    1  A    between atoms: C_2  and  C_25
REMARK    2  A    between atoms: N_3  and  C_4
REMARK    3  A    between atoms: C_4  and  C_5
REMARK    4  A    between atoms: C_8  and  C_9
REMARK    5  A    between atoms: C_9  and  N_10
REMARK    6  A    between atoms: C_11  and  C_13
REMARK                            x       y       z     vdW  Elec       q    Type
REMARK                         _______ _______ _______ _____ _____    ______ ____
ROOT
ATOM      1  C   UNL     1      44.774   5.954  10.871  0.00  0.00    +0.000 A 
ATOM      2  C   UNL     1      44.166   6.919  11.677  0.00  0.00    +0.000 A 
ATOM      3  C   UNL     1      44.944   7.700  12.529  0.00  0.00    +0.000 A 
ATOM      4  C   UNL     1      46.320   7.496  12.559  0.00  0.00    +0.000 A 
ATOM      5  N   UNL     1      46.939   6.600  11.750  0.00  0.00    +0.000 NA
ATOM      6  C   UNL     1      46.159   5.858  10.930  0.00  0.00    +0.000 A 
ENDROOT
BRANCH   1   7
ATOM      7  C   UNL     1      43.967   5.019  10.025  0.00  0.00    +0.000 C 
BRANCH   7  10
ATOM      8  O   UNL     1      45.097   2.530  10.146  0.00  0.00    +0.000 OA
ATOM      9  C   UNL     1      45.244   3.162   9.101  0.00  0.00    +0.000 C 
ATOM     10  N   UNL     1      44.706   4.424   8.942  0.00  0.00    +0.000 N 
ATOM     11  H   UNL     1      44.818   4.896   8.051  0.00  0.00    +0.000 HD
BRANCH   9  12
ATOM     12  C   UNL     1      45.984   2.647   7.971  0.00  0.00    +0.000 A 
ATOM     13  C   UNL     1      46.307   3.249   6.769  0.00  0.00    +0.000 A 
ATOM     14  C   UNL     1      47.018   2.294   6.008  0.00  0.00    +0.000 A 
ATOM     15  C   UNL     1      47.088   1.163   6.788  0.00  0.00    +0.000 A 
ATOM     16  O   UNL     1      46.471   1.365   7.984  0.00  0.00    +0.000 OA
ENDBRANCH   9  12
ENDBRANCH   7  10
ENDBRANCH   1   7
BRANCH   4  17
ATOM     17  C   UNL     1      47.185   8.284  13.513  0.00  0.00    +0.000 C 
BRANCH  17  18
ATOM     18  N   UNL     1      47.580   7.509  14.663  0.00  0.00    +0.000 N 
ATOM     19  C   UNL     1      48.805   6.907  14.762  0.00  0.00    +0.000 C 
ATOM     20  O   UNL     1      49.645   6.991  13.869  0.00  0.00    +0.000 OA
ATOM     21  H   UNL     1      46.829   7.243  15.294  0.00  0.00    +0.000 HD
BRANCH  19  22
ATOM     22  C   UNL     1      49.096   6.214  16.025  0.00  0.00    +0.000 A 
ATOM     23  C   UNL     1      50.130   6.669  16.832  0.00  0.00    +0.000 A 
ATOM     24  S   UNL     1      50.312   5.785  18.278  0.00  0.00    +0.000 S 
ATOM     25  C   UNL     1      49.043   4.733  17.856  0.00  0.00    +0.000 A 
ATOM     26  N   UNL     1      48.692   3.701  18.671  0.00  0.00    +0.000 NA
ATOM     27  C   UNL     1      47.739   2.961  18.215  0.00  0.00    +0.000 A 
ATOM     28  N   UNL     1      47.095   3.167  17.023  0.00  0.00    +0.000 N 
ATOM     29  C   UNL     1      47.380   4.226  16.193  0.00  0.00    +0.000 A 
ATOM     30  O   UNL     1      46.725   4.430  15.178  0.00  0.00    +0.000 OA
ATOM     31  C   UNL     1      48.472   5.068  16.642  0.00  0.00    +0.000 A 
ATOM     32  H   UNL     1      46.341   2.565  16.729  0.00  0.00    +0.000 HD
ENDBRANCH  19  22
ENDBRANCH  17  18
ENDBRANCH   4  17
TORSDOF 6
ENDMDL
MODEL 2
REMARK VINA RESULT:    -7.937      1.026      1.214
REMARK INTER + INTRA:         -11.665
REMARK INTER:                 -10.926
REMARK INTRA:                  -0.739
REMARK UNBOUND:                -0.944
REMARK  Name = 
REMARK  6 active torsions:
REMARK  status: ('A' for Active; 'I' for Inactive)
REMARK    1  A    between atoms: C_2  and  C_25
REMARK    2  A    between atoms: N_3  and  C_4
REMARK    3  A    between atoms: C_4  and  C_5
REMARK    4  A    between atoms: C_8  and  C_9
REMARK    5  A    between atoms: C_9  and  N_10
REMARK    6  A    between atoms: C_11  and  C_13
REMARK                            x       y       z     vdW  Elec       q    Type
REMARK                         _______ _______ _______ _____ _____    ______ ____
ROOT
ATOM      1  C   UNL     1      44.610   5.242  11.192  0.00  0.00    +0.000 A 
ATOM      2  C   UNL     1      45.603   4.700  12.011  0.00  0.00    +0.000 A 
ATOM      3  C   UNL     1      46.425   5.544  12.755  0.00  0.00    +0.000 A 
ATOM      4  C   UNL     1      46.237   6.920  12.661  0.00  0.00    +0.000 A 
ATOM      5  N   UNL     1      45.247   7.468  11.912  0.00  0.00    +0.000 NA
ATOM      6  C   UNL     1      44.462   6.624  11.203  0.00  0.00    +0.000 A 
ENDROOT
BRANCH   1   7
ATOM      7  C   UNL     1      43.780   4.380  10.292  0.00  0.00    +0.000 C 
BRANCH   7  10
ATOM      8  O   UNL     1      45.524   4.882   8.245  0.00  0.00    +0.000 OA
ATOM      9  C   UNL     1      45.380   3.709   8.583  0.00  0.00    +0.000 C 
ATOM     10  N   UNL     1      44.528   3.355   9.611  0.00  0.00    +0.000 N 
ATOM     11  H   UNL     1      44.466   2.381   9.884  0.00  0.00    +0.000 HD
BRANCH   9  12
ATOM     12  C   UNL     1      46.079   2.617   7.942  0.00  0.00    +0.000 A 
ATOM     13  C   UNL     1      46.799   2.592   6.763  0.00  0.00    +0.000 A 
ATOM     14  C   UNL     1      47.251   1.264   6.585  0.00  0.00    +0.000 A 
ATOM     15  C   UNL     1      46.782   0.556   7.667  0.00  0.00    +0.000 A 
ATOM     16  O   UNL     1      46.074   1.365   8.502  0.00  0.00    +0.000 OA
ENDBRANCH   9  12
ENDBRANCH   7  10
ENDBRANCH   1   7
BRANCH   4  17
ATOM     17  C   UNL     1      47.146   7.865  13.409  0.00  0.00    +0.000 C 
BRANCH  17  18
ATOM     18  N   UNL     1      47.624   7.300  14.648  0.00  0.00    +0.000 N 
ATOM     19  C   UNL     1      48.926   6.923  14.832  0.00  0.00    +0.000 C 
ATOM     20  O   UNL     1      49.769   7.040  13.946  0.00  0.00    +0.000 OA
ATOM     21  H   UNL     1      46.906   6.989  15.296  0.00  0.00    +0.000 HD
BRANCH  19  22
ATOM     22  C   UNL     1      49.284   6.435  16.171  0.00  0.00    +0.000 A 
ATOM     23  C   UNL     1      50.223   7.129  16.923  0.00  0.00    +0.000 A 
ATOM     24  S   UNL     1      50.497   6.459  18.466  0.00  0.00    +0.000 S 
ATOM     25  C   UNL     1      49.403   5.191  18.168  0.00  0.00    +0.000 A 
ATOM     26  N   UNL     1      49.186   4.222  19.100  0.00  0.00    +0.000 NA
ATOM     27  C   UNL     1      48.360   3.303  18.732  0.00  0.00    +0.000 A 
ATOM     28  N   UNL     1      47.720   3.269  17.520  0.00  0.00    +0.000 N 
ATOM     29  C   UNL     1      47.869   4.252  16.570  0.00  0.00    +0.000 A 
ATOM     30  O   UNL     1      47.215   4.236  15.533  0.00  0.00    +0.000 OA
ATOM     31  C   UNL     1      48.818   5.292  16.919  0.00  0.00    +0.000 A 
ATOM     32  H   UNL     1      47.068   2.533  17.297  0.00  0.00    +0.000 HD
ENDBRANCH  19  22
ENDBRANCH  17  18
ENDBRANCH   4  17
TORSDOF 6
ENDMDL
MODEL 3
REMARK VINA RESULT:    -7.620      2.315      3.761
REMARK INTER + INTRA:         -11.237
REMARK INTER:                 -10.323
REMARK INTRA:                  -0.914
REMARK UNBOUND:                -0.944
REMARK  Name = 
REMARK  6 active torsions:
REMARK  status: ('A' for Active; 'I' for Inactive)
REMARK    1  A    between atoms: C_2  and  C_25
REMARK    2  A    between atoms: N_3  and  C_4
REMARK    3  A    between atoms: C_4  and  C_5
REMARK    4  A    between atoms: C_8  and  C_9
REMARK    5  A    between atoms: C_9  and  N_10
REMARK    6  A    between atoms: C_11  and  C_13
REMARK                            x       y       z     vdW  Elec       q    Type
REMARK                         _______ _______ _______ _____ _____    ______ ____
ROOT
ATOM      1  C   UNL     1      44.883   4.390  11.499  0.00  0.00    +0.000 A 
ATOM      2  C   UNL     1      45.101   5.638  12.087  0.00  0.00    +0.000 A 
ATOM      3  C   UNL     1      45.781   5.722  13.300  0.00  0.00    +0.000 A 
ATOM      4  C   UNL     1      46.228   4.551  13.904  0.00  0.00    +0.000 A 
ATOM      5  N   UNL     1      46.072   3.332  13.327  0.00  0.00    +0.000 NA
ATOM      6  C   UNL     1      45.411   3.280  12.147  0.00  0.00    +0.000 A 
ENDROOT
BRANCH   1   7
ATOM      7  C   UNL     1      44.062   4.243  10.255  0.00  0.00    +0.000 C 
BRANCH   7  10
ATOM      8  O   UNL     1      46.025   5.294   8.665  0.00  0.00    +0.000 OA
ATOM      9  C   UNL     1      45.693   4.129   8.451  0.00  0.00    +0.000 C 
ATOM     10  N   UNL     1      44.717   3.508   9.205  0.00  0.00    +0.000 N 
ATOM     11  H   UNL     1      44.500   2.535   9.020  0.00  0.00    +0.000 HD
BRANCH   9  12
ATOM     12  C   UNL     1      46.288   3.325   7.406  0.00  0.00    +0.000 A 
ATOM     13  C   UNL     1      46.759   2.026   7.443  0.00  0.00    +0.000 A 
ATOM     14  C   UNL     1      47.263   1.734   6.156  0.00  0.00    +0.000 A 
ATOM     15  C   UNL     1      47.070   2.872   5.406  0.00  0.00    +0.000 A 
ATOM     16  O   UNL     1      46.474   3.843   6.150  0.00  0.00    +0.000 OA
ENDBRANCH   9  12
ENDBRANCH   7  10
ENDBRANCH   1   7
BRANCH   4  17
ATOM     17  C   UNL     1      46.917   4.601  15.246  0.00  0.00    +0.000 C 
BRANCH  17  18
ATOM     18  N   UNL     1      47.771   5.756  15.380  0.00  0.00    +0.000 N 
ATOM     19  C   UNL     1      48.920   5.741  16.123  0.00  0.00    +0.000 C 
ATOM     20  O   UNL     1      49.292   4.737  16.725  0.00  0.00    +0.000 OA
ATOM     21  H   UNL     1      47.366   6.640  15.084  0.00  0.00    +0.000 HD
BRANCH  19  22
ATOM     22  C   UNL     1      49.728   6.968  16.106  0.00  0.00    +0.000 A 
ATOM     23  C   UNL     1      50.187   7.501  17.303  0.00  0.00    +0.000 A 
ATOM     24  S   UNL     1      51.143   8.899  17.110  0.00  0.00    +0.000 S 
ATOM     25  C   UNL     1      50.941   8.869  15.421  0.00  0.00    +0.000 A 
ATOM     26  N   UNL     1      51.494   9.832  14.635  0.00  0.00    +0.000 NA
ATOM     27  C   UNL     1      51.234   9.709  13.378  0.00  0.00    +0.000 A 
ATOM     28  N   UNL     1      50.479   8.702  12.833  0.00  0.00    +0.000 N 
ATOM     29  C   UNL     1      49.945   7.681  13.582  0.00  0.00    +0.000 A 
ATOM     30  O   UNL     1      49.349   6.750  13.051  0.00  0.00    +0.000 OA
ATOM     31  C   UNL     1      50.176   7.793  15.009  0.00  0.00    +0.000 A 
ATOM     32  H   UNL     1      50.327   8.648  11.837  0.00  0.00    +0.000 HD
ENDBRANCH  19  22
ENDBRANCH  17  18
ENDBRANCH   4  17
TORSDOF 6
ENDMDL
MODEL 4
REMARK VINA RESULT:    -7.405      2.781      3.888
REMARK INTER + INTRA:         -10.946
REMARK INTER:                  -9.960
REMARK INTRA:                  -0.986
REMARK UNBOUND:                -0.944
REMARK  Name = 
REMARK  6 active torsions:
REMARK  status: ('A' for Active; 'I' for Inactive)
REMARK    1  A    between atoms: C_2  and  C_25
REMARK    2  A    between atoms: N_3  and  C_4
REMARK    3  A    between atoms: C_4  and  C_5
REMARK    4  A    between atoms: C_8  and  C_9
REMARK    5  A    between atoms: C_9  and  N_10
REMARK    6  A    between atoms: C_11  and  C_13
REMARK                            x       y       z     vdW  Elec       q    Type
REMARK                         _______ _______ _______ _____ _____    ______ ____
ROOT
ATOM      1  C   UNL     1      45.912   5.229  12.106  0.00  0.00    +0.000 A 
ATOM      2  C   UNL     1      46.821   6.143  12.642  0.00  0.00    +0.000 A 
ATOM      3  C   UNL     1      47.411   5.890  13.879  0.00  0.00    +0.000 A 
ATOM      4  C   UNL     1      47.074   4.723  14.558  0.00  0.00    +0.000 A 
ATOM      5  N   UNL     1      46.232   3.796  14.035  0.00  0.00    +0.000 NA
ATOM      6  C   UNL     1      45.677   4.066  12.831  0.00  0.00    +0.000 A 
ENDROOT
BRANCH   1   7
ATOM      7  C   UNL     1      45.172   5.513  10.836  0.00  0.00    +0.000 C 
BRANCH   7  10
ATOM      8  O   UNL     1      44.213   3.230   9.674  0.00  0.00    +0.000 OA
ATOM      9  C   UNL     1      45.202   3.747   9.159  0.00  0.00    +0.000 C 
ATOM     10  N   UNL     1      45.757   4.905   9.669  0.00  0.00    +0.000 N 
ATOM     11  H   UNL     1      46.550   5.321   9.193  0.00  0.00    +0.000 HD
BRANCH   9  12
ATOM     12  C   UNL     1      45.861   3.195   7.996  0.00  0.00    +0.000 A 
ATOM     13  C   UNL     1      46.401   1.939   7.792  0.00  0.00    +0.000 A 
ATOM     14  C   UNL     1      46.947   1.933   6.489  0.00  0.00    +0.000 A 
ATOM     15  C   UNL     1      46.708   3.185   5.971  0.00  0.00    +0.000 A 
ATOM     16  O   UNL     1      46.044   3.959   6.872  0.00  0.00    +0.000 OA
ENDBRANCH   9  12
ENDBRANCH   7  10
ENDBRANCH   1   7
BRANCH   4  17
ATOM     17  C   UNL     1      47.650   4.445  15.925  0.00  0.00    +0.000 C 
BRANCH  17  18
ATOM     18  N   UNL     1      47.453   5.546  16.837  0.00  0.00    +0.000 N 
ATOM     19  C   UNL     1      48.325   5.828  17.853  0.00  0.00    +0.000 C 
ATOM     20  O   UNL     1      49.333   5.153  18.051  0.00  0.00    +0.000 OA
ATOM     21  H   UNL     1      46.526   5.962  16.830  0.00  0.00    +0.000 HD
BRANCH  19  22
ATOM     22  C   UNL     1      48.035   7.025  18.653  0.00  0.00    +0.000 A 
ATOM     23  C   UNL     1      47.768   6.892  20.010  0.00  0.00    +0.000 A 
ATOM     24  S   UNL     1      47.493   8.375  20.803  0.00  0.00    +0.000 S 
ATOM     25  C   UNL     1      47.677   9.246  19.353  0.00  0.00    +0.000 A 
ATOM     26  N   UNL     1      47.532  10.599  19.328  0.00  0.00    +0.000 NA
ATOM     27  C   UNL     1      47.663  11.128  18.160  0.00  0.00    +0.000 A 
ATOM     28  N   UNL     1      47.937  10.429  17.013  0.00  0.00    +0.000 N 
ATOM     29  C   UNL     1      48.143   9.069  16.999  0.00  0.00    +0.000 A 
ATOM     30  O   UNL     1      48.473   8.488  15.972  0.00  0.00    +0.000 OA
ATOM     31  C   UNL     1      47.969   8.419  18.284  0.00  0.00    +0.000 A 
ATOM     32  H   UNL     1      48.048  10.903  16.129  0.00  0.00    +0.000 HD
ENDBRANCH  19  22
ENDBRANCH  17  18
ENDBRANCH   4  17
TORSDOF 6
ENDMDL
MODEL 5
REMARK VINA RESULT:    -7.225      4.824      9.456
REMARK INTER + INTRA:         -10.703
REMARK INTER:                  -9.912
REMARK INTRA:                  -0.791
REMARK UNBOUND:                -0.944
REMARK  Name = 
REMARK  6 active torsions:
REMARK  status: ('A' for Active; 'I' for Inactive)
REMARK    1  A    between atoms: C_2  and  C_25
REMARK    2  A    between atoms: N_3  and  C_4
REMARK    3  A    between atoms: C_4  and  C_5
REMARK    4  A    between atoms: C_8  and  C_9
REMARK    5  A    between atoms: C_9  and  N_10
REMARK    6  A    between atoms: C_11  and  C_13
REMARK                            x       y       z     vdW  Elec       q    Type
REMARK                         _______ _______ _______ _____ _____    ______ ____
ROOT
ATOM      1  C   UNL     1      51.362   2.814  17.768  0.00  0.00    +0.000 A 
ATOM      2  C   UNL     1      50.746   3.942  18.313  0.00  0.00    +0.000 A 
ATOM      3  C   UNL     1      49.399   4.189  18.054  0.00  0.00    +0.000 A 
ATOM      4  C   UNL     1      48.696   3.299  17.247  0.00  0.00    +0.000 A 
ATOM      5  N   UNL     1      49.260   2.170  16.747  0.00  0.00    +0.000 NA
ATOM      6  C   UNL     1      50.568   1.954  17.019  0.00  0.00    +0.000 A 
ENDROOT
BRANCH   1   7
ATOM      7  C   UNL     1      52.831   2.570  17.929  0.00  0.00    +0.000 C 
BRANCH   7  10
ATOM      8  O   UNL     1      54.293   0.635  16.662  0.00  0.00    +0.000 OA
ATOM      9  C   UNL     1      53.892   0.382  17.796  0.00  0.00    +0.000 C 
ATOM     10  N   UNL     1      53.152   1.297  18.519  0.00  0.00    +0.000 N 
ATOM     11  H   UNL     1      52.872   1.063  19.466  0.00  0.00    +0.000 HD
BRANCH   9  12
ATOM     12  C   UNL     1      54.155  -0.877  18.458  0.00  0.00    +0.000 A 
ATOM     13  C   UNL     1      55.272  -1.690  18.412  0.00  0.00    +0.000 A 
ATOM     14  C   UNL     1      54.996  -2.814  19.222  0.00  0.00    +0.000 A 
ATOM     15  C   UNL     1      53.727  -2.623  19.717  0.00  0.00    +0.000 A 
ATOM     16  O   UNL     1      53.207  -1.449  19.267  0.00  0.00    +0.000 OA
ENDBRANCH   9  12
ENDBRANCH   7  10
ENDBRANCH   1   7
BRANCH   4  17
ATOM     17  C   UNL     1      47.252   3.566  16.898  0.00  0.00    +0.000 C 
BRANCH  17  18
ATOM     18  N   UNL     1      47.112   4.580  15.881  0.00  0.00    +0.000 N 
ATOM     19  C   UNL     1      47.109   4.288  14.544  0.00  0.00    +0.000 C 
ATOM     20  O   UNL     1      47.229   3.137  14.130  0.00  0.00    +0.000 OA
ATOM     21  H   UNL     1      47.242   5.538  16.193  0.00  0.00    +0.000 HD
BRANCH  19  22
ATOM     22  C   UNL     1      46.882   5.412  13.627  0.00  0.00    +0.000 A 
ATOM     23  C   UNL     1      47.927   6.281  13.339  0.00  0.00    +0.000 A 
ATOM     24  S   UNL     1      47.514   7.506  12.228  0.00  0.00    +0.000 S 
ATOM     25  C   UNL     1      45.910   6.947  12.126  0.00  0.00    +0.000 A 
ATOM     26  N   UNL     1      44.996   7.587  11.347  0.00  0.00    +0.000 NA
ATOM     27  C   UNL     1      43.811   7.080  11.389  0.00  0.00    +0.000 A 
ATOM     28  N   UNL     1      43.459   5.982  12.130  0.00  0.00    +0.000 N 
ATOM     29  C   UNL     1      44.359   5.274  12.891  0.00  0.00    +0.000 A 
ATOM     30  O   UNL     1      44.029   4.247  13.472  0.00  0.00    +0.000 OA
ATOM     31  C   UNL     1      45.700   5.826  12.909  0.00  0.00    +0.000 A 
ATOM     32  H   UNL     1      42.517   5.619  12.106  0.00  0.00    +0.000 HD
ENDBRANCH  19  22
ENDBRANCH  17  18
ENDBRANCH   4  17
TORSDOF 6
ENDMDL
MODEL 6
REMARK VINA RESULT:    -7.076      1.975      2.413
REMARK INTER + INTRA:         -10.501
REMARK INTER:                  -9.627
REMARK INTRA:                  -0.874
REMARK UNBOUND:                -0.944
REMARK  Name = 
REMARK  6 active torsions:
REMARK  status: ('A' for Active; 'I' for Inactive)
REMARK    1  A    between atoms: C_2  and  C_25
REMARK    2  A    between atoms: N_3  and  C_4
REMARK    3  A    between atoms: C_4  and  C_5
REMARK    4  A    between atoms: C_8  and  C_9
REMARK    5  A    between atoms: C_9  and  N_10
REMARK    6  A    between atoms: C_11  and  C_13
REMARK                            x       y       z     vdW  Elec       q    Type
REMARK                         _______ _______ _______ _____ _____    ______ ____
ROOT
ATOM      1  C   UNL     1      45.159   6.156  11.101  0.00  0.00    +0.000 A 
ATOM      2  C   UNL     1      44.538   7.275  11.659  0.00  0.00    +0.000 A 
ATOM      3  C   UNL     1      45.266   8.132  12.483  0.00  0.00    +0.000 A 
ATOM      4  C   UNL     1      46.605   7.846  12.734  0.00  0.00    +0.000 A 
ATOM      5  N   UNL     1      47.242   6.793  12.164  0.00  0.00    +0.000 NA
ATOM      6  C   UNL     1      46.511   5.980  11.365  0.00  0.00    +0.000 A 
ENDROOT
BRANCH   1   7
ATOM      7  C   UNL     1      44.388   5.151  10.302  0.00  0.00    +0.000 C 
BRANCH   7  10
ATOM      8  O   UNL     1      44.151   2.446   9.965  0.00  0.00    +0.000 OA
ATOM      9  C   UNL     1      45.004   3.022   9.293  0.00  0.00    +0.000 C 
ATOM     10  N   UNL     1      45.196   4.386   9.387  0.00  0.00    +0.000 N 
ATOM     11  H   UNL     1      45.884   4.828   8.788  0.00  0.00    +0.000 HD
BRANCH   9  12
ATOM     12  C   UNL     1      45.868   2.329   8.362  0.00  0.00    +0.000 A 
ATOM     13  C   UNL     1      46.585   2.813   7.285  0.00  0.00    +0.000 A 
ATOM     14  C   UNL     1      47.241   1.708   6.697  0.00  0.00    +0.000 A 
ATOM     15  C   UNL     1      46.888   0.613   7.451  0.00  0.00    +0.000 A 
ATOM     16  O   UNL     1      46.061   0.975   8.468  0.00  0.00    +0.000 OA
ENDBRANCH   9  12
ENDBRANCH   7  10
ENDBRANCH   1   7
BRANCH   4  17
ATOM     17  C   UNL     1      47.406   8.720  13.668  0.00  0.00    +0.000 C 
BRANCH  17  18
ATOM     18  N   UNL     1      47.637   8.090  14.945  0.00  0.00    +0.000 N 
ATOM     19  C   UNL     1      48.819   7.478  15.263  0.00  0.00    +0.000 C 
ATOM     20  O   UNL     1      49.758   7.426  14.472  0.00  0.00    +0.000 OA
ATOM     21  H   UNL     1      46.810   7.926  15.511  0.00  0.00    +0.000 HD
BRANCH  19  22
ATOM     22  C   UNL     1      48.937   6.947  16.627  0.00  0.00    +0.000 A 
ATOM     23  C   UNL     1      49.465   5.678  16.824  0.00  0.00    +0.000 A 
ATOM     24  S   UNL     1      49.573   5.226  18.463  0.00  0.00    +0.000 S 
ATOM     25  C   UNL     1      48.875   6.693  18.969  0.00  0.00    +0.000 A 
ATOM     26  N   UNL     1      48.652   6.941  20.288  0.00  0.00    +0.000 NA
ATOM     27  C   UNL     1      48.087   8.075  20.529  0.00  0.00    +0.000 A 
ATOM     28  N   UNL     1      47.735   8.990  19.571  0.00  0.00    +0.000 N 
ATOM     29  C   UNL     1      47.988   8.804  18.233  0.00  0.00    +0.000 A 
ATOM     30  O   UNL     1      47.739   9.680  17.412  0.00  0.00    +0.000 OA
ATOM     31  C   UNL     1      48.589   7.526  17.903  0.00  0.00    +0.000 A 
ATOM     32  H   UNL     1      47.312   9.871  19.824  0.00  0.00    +0.000 HD
ENDBRANCH  19  22
ENDBRANCH  17  18
ENDBRANCH   4  17
TORSDOF 6
ENDMDL
MODEL 7
REMARK VINA RESULT:    -6.927      2.679      3.662
REMARK INTER + INTRA:         -10.301
REMARK INTER:                  -9.408
REMARK INTRA:                  -0.893
REMARK UNBOUND:                -0.944
REMARK  Name = 
REMARK  6 active torsions:
REMARK  status: ('A' for Active; 'I' for Inactive)
REMARK    1  A    between atoms: C_2  and  C_25
REMARK    2  A    between atoms: N_3  and  C_4
REMARK    3  A    between atoms: C_4  and  C_5
REMARK    4  A    between atoms: C_8  and  C_9
REMARK    5  A    between atoms: C_9  and  N_10
REMARK    6  A    between atoms: C_11  and  C_13
REMARK                            x       y       z     vdW  Elec       q    Type
REMARK                         _______ _______ _______ _____ _____    ______ ____
ROOT
ATOM      1  C   UNL     1      45.897   5.340  12.007  0.00  0.00    +0.000 A 
ATOM      2  C   UNL     1      46.936   6.086  12.567  0.00  0.00    +0.000 A 
ATOM      3  C   UNL     1      47.424   5.756  13.830  0.00  0.00    +0.000 A 
ATOM      4  C   UNL     1      46.856   4.683  14.510  0.00  0.00    +0.000 A 
ATOM      5  N   UNL     1      45.880   3.913  13.966  0.00  0.00    +0.000 NA
ATOM      6  C   UNL     1      45.429   4.254  12.737  0.00  0.00    +0.000 A 
ENDROOT
BRANCH   1   7
ATOM      7  C   UNL     1      45.269   5.727  10.704  0.00  0.00    +0.000 C 
BRANCH   7  10
ATOM      8  O   UNL     1      44.279   3.431   9.593  0.00  0.00    +0.000 OA
ATOM      9  C   UNL     1      45.281   3.919   9.074  0.00  0.00    +0.000 C 
ATOM     10  N   UNL     1      45.851   5.079   9.558  0.00  0.00    +0.000 N 
ATOM     11  H   UNL     1      46.655   5.469   9.077  0.00  0.00    +0.000 HD
BRANCH   9  12
ATOM     12  C   UNL     1      45.938   3.325   7.930  0.00  0.00    +0.000 A 
ATOM     13  C   UNL     1      46.412   2.040   7.744  0.00  0.00    +0.000 A 
ATOM     14  C   UNL     1      46.991   1.997   6.456  0.00  0.00    +0.000 A 
ATOM     15  C   UNL     1      46.837   3.259   5.929  0.00  0.00    +0.000 A 
ATOM     16  O   UNL     1      46.194   4.073   6.810  0.00  0.00    +0.000 OA
ENDBRANCH   9  12
ENDBRANCH   7  10
ENDBRANCH   1   7
BRANCH   4  17
ATOM     17  C   UNL     1      47.320   4.334  15.903  0.00  0.00    +0.000 C 
BRANCH  17  18
ATOM     18  N   UNL     1      47.854   5.476  16.605  0.00  0.00    +0.000 N 
ATOM     19  C   UNL     1      47.517   5.772  17.898  0.00  0.00    +0.000 C 
ATOM     20  O   UNL     1      46.730   5.079  18.539  0.00  0.00    +0.000 OA
ATOM     21  H   UNL     1      48.315   6.172  16.026  0.00  0.00    +0.000 HD
BRANCH  19  22
ATOM     22  C   UNL     1      48.197   6.922  18.507  0.00  0.00    +0.000 A 
ATOM     23  C   UNL     1      47.446   7.993  18.972  0.00  0.00    +0.000 A 
ATOM     24  S   UNL     1      48.380   9.227  19.687  0.00  0.00    +0.000 S 
ATOM     25  C   UNL     1      49.827   8.393  19.362  0.00  0.00    +0.000 A 
ATOM     26  N   UNL     1      51.032   8.928  19.701  0.00  0.00    +0.000 NA
ATOM     27  C   UNL     1      52.048   8.208  19.366  0.00  0.00    +0.000 A 
ATOM     28  N   UNL     1      51.970   6.995  18.733  0.00  0.00    +0.000 N 
ATOM     29  C   UNL     1      50.774   6.393  18.418  0.00  0.00    +0.000 A 
ATOM     30  O   UNL     1      50.739   5.269  17.931  0.00  0.00    +0.000 OA
ATOM     31  C   UNL     1      49.599   7.179  18.739  0.00  0.00    +0.000 A 
ATOM     32  H   UNL     1      52.802   6.468  18.514  0.00  0.00    +0.000 HD
ENDBRANCH  19  22
ENDBRANCH  17  18
ENDBRANCH   4  17
TORSDOF 6
ENDMDL
MODEL 8
REMARK VINA RESULT:    -6.906      3.881      8.479
REMARK INTER + INTRA:         -10.271
REMARK INTER:                  -9.364
REMARK INTRA:                  -0.907
REMARK UNBOUND:                -0.944
REMARK  Name = 
REMARK  6 active torsions:
REMARK  status: ('A' for Active; 'I' for Inactive)
REMARK    1  A    between atoms: C_2  and  C_25
REMARK    2  A    between atoms: N_3  and  C_4
REMARK    3  A    between atoms: C_4  and  C_5
REMARK    4  A    between atoms: C_8  and  C_9
REMARK    5  A    between atoms: C_9  and  N_10
REMARK    6  A    between atoms: C_11  and  C_13
REMARK                            x       y       z     vdW  Elec       q    Type
REMARK                         _______ _______ _______ _____ _____    ______ ____
ROOT
ATOM      1  C   UNL     1      49.106   4.649  17.363  0.00  0.00    +0.000 A 
ATOM      2  C   UNL     1      49.749   5.849  17.051  0.00  0.00    +0.000 A 
ATOM      3  C   UNL     1      49.378   6.558  15.910  0.00  0.00    +0.000 A 
ATOM      4  C   UNL     1      48.370   6.046  15.099  0.00  0.00    +0.000 A 
ATOM      5  N   UNL     1      47.697   4.908  15.407  0.00  0.00    +0.000 NA
ATOM      6  C   UNL     1      48.076   4.243  16.523  0.00  0.00    +0.000 A 
ENDROOT
BRANCH   1   7
ATOM      7  C   UNL     1      49.547   3.801  18.515  0.00  0.00    +0.000 C 
BRANCH   7  10
ATOM      8  O   UNL     1      50.390   1.664  17.029  0.00  0.00    +0.000 OA
ATOM      9  C   UNL     1      51.246   2.278  17.663  0.00  0.00    +0.000 C 
ATOM     10  N   UNL     1      50.920   3.375  18.437  0.00  0.00    +0.000 N 
ATOM     11  H   UNL     1      51.661   3.877  18.913  0.00  0.00    +0.000 HD
BRANCH   9  12
ATOM     12  C   UNL     1      52.645   1.909  17.653  0.00  0.00    +0.000 A 
ATOM     13  C   UNL     1      53.243   0.698  17.360  0.00  0.00    +0.000 A 
ATOM     14  C   UNL     1      54.635   0.876  17.529  0.00  0.00    +0.000 A 
ATOM     15  C   UNL     1      54.806   2.185  17.915  0.00  0.00    +0.000 A 
ATOM     16  O   UNL     1      53.608   2.826  17.988  0.00  0.00    +0.000 OA
ENDBRANCH   9  12
ENDBRANCH   7  10
ENDBRANCH   1   7
BRANCH   4  17
ATOM     17  C   UNL     1      47.983   6.758  13.825  0.00  0.00    +0.000 C 
BRANCH  17  18
ATOM     18  N   UNL     1      47.212   5.918  12.941  0.00  0.00    +0.000 N 
ATOM     19  C   UNL     1      46.410   6.425  11.955  0.00  0.00    +0.000 C 
ATOM     20  O   UNL     1      46.297   7.634  11.766  0.00  0.00    +0.000 OA
ATOM     21  H   UNL     1      47.117   4.948  13.227  0.00  0.00    +0.000 HD
BRANCH  19  22
ATOM     22  C   UNL     1      45.745   5.448  11.083  0.00  0.00    +0.000 A 
ATOM     23  C   UNL     1      45.837   5.588   9.704  0.00  0.00    +0.000 A 
ATOM     24  S   UNL     1      45.047   4.353   8.835  0.00  0.00    +0.000 S 
ATOM     25  C   UNL     1      44.514   3.610  10.270  0.00  0.00    +0.000 A 
ATOM     26  N   UNL     1      43.742   2.490  10.232  0.00  0.00    +0.000 NA
ATOM     27  C   UNL     1      43.381   2.051  11.390  0.00  0.00    +0.000 A 
ATOM     28  N   UNL     1      43.731   2.624  12.585  0.00  0.00    +0.000 N 
ATOM     29  C   UNL     1      44.551   3.724  12.673  0.00  0.00    +0.000 A 
ATOM     30  O   UNL     1      44.915   4.158  13.761  0.00  0.00    +0.000 OA
ATOM     31  C   UNL     1      44.956   4.281  11.397  0.00  0.00    +0.000 A 
ATOM     32  H   UNL     1      43.433   2.222  13.461  0.00  0.00    +0.000 HD
ENDBRANCH  19  22
ENDBRANCH  17  18
ENDBRANCH   4  17
TORSDOF 6
ENDMDL
MODEL 9
REMARK VINA RESULT:    -6.739      4.936      9.594
REMARK INTER + INTRA:         -10.046
REMARK INTER:                  -8.975
REMARK INTRA:                  -1.072
REMARK UNBOUND:                -0.944
REMARK  Name = 
REMARK  6 active torsions:
REMARK  status: ('A' for Active; 'I' for Inactive)
REMARK    1  A    between atoms: C_2  and  C_25
REMARK    2  A    between atoms: N_3  and  C_4
REMARK    3  A    between atoms: C_4  and  C_5
REMARK    4  A    between atoms: C_8  and  C_9
REMARK    5  A    between atoms: C_9  and  N_10
REMARK    6  A    between atoms: C_11  and  C_13
REMARK                            x       y       z     vdW  Elec       q    Type
REMARK                         _______ _______ _______ _____ _____    ______ ____
ROOT
ATOM      1  C   UNL     1      51.503   2.794  17.694  0.00  0.00    +0.000 A 
ATOM      2  C   UNL     1      50.872   3.955  18.145  0.00  0.00    +0.000 A 
ATOM      3  C   UNL     1      49.523   4.164  17.864  0.00  0.00    +0.000 A 
ATOM      4  C   UNL     1      48.832   3.202  17.133  0.00  0.00    +0.000 A 
ATOM      5  N   UNL     1      49.411   2.044  16.727  0.00  0.00    +0.000 NA
ATOM      6  C   UNL     1      50.721   1.867  17.017  0.00  0.00    +0.000 A 
ENDROOT
BRANCH   1   7
ATOM      7  C   UNL     1      52.974   2.582  17.876  0.00  0.00    +0.000 C 
BRANCH   7  10
ATOM      8  O   UNL     1      54.512   0.597  16.789  0.00  0.00    +0.000 OA
ATOM      9  C   UNL     1      54.088   0.417  17.929  0.00  0.00    +0.000 C 
ATOM     10  N   UNL     1      53.309   1.363  18.566  0.00  0.00    +0.000 N 
ATOM     11  H   UNL     1      53.011   1.192  19.520  0.00  0.00    +0.000 HD
BRANCH   9  12
ATOM     12  C   UNL     1      54.363  -0.784  18.687  0.00  0.00    +0.000 A 
ATOM     13  C   UNL     1      54.437  -2.100  18.273  0.00  0.00    +0.000 A 
ATOM     14  C   UNL     1      54.707  -2.878  19.421  0.00  0.00    +0.000 A 
ATOM     15  C   UNL     1      54.783  -1.992  20.471  0.00  0.00    +0.000 A 
ATOM     16  O   UNL     1      54.583  -0.717  20.039  0.00  0.00    +0.000 OA
ENDBRANCH   9  12
ENDBRANCH   7  10
ENDBRANCH   1   7
BRANCH   4  17
ATOM     17  C   UNL     1      47.386   3.423  16.762  0.00  0.00    +0.000 C 
BRANCH  17  18
ATOM     18  N   UNL     1      47.225   4.465  15.777  0.00  0.00    +0.000 N 
ATOM     19  C   UNL     1      47.126   4.205  14.437  0.00  0.00    +0.000 C 
ATOM     20  O   UNL     1      47.172   3.061  13.992  0.00  0.00    +0.000 OA
ATOM     21  H   UNL     1      47.414   5.410  16.100  0.00  0.00    +0.000 HD
BRANCH  19  22
ATOM     22  C   UNL     1      46.890   5.360  13.561  0.00  0.00    +0.000 A 
ATOM     23  C   UNL     1      45.787   5.362  12.716  0.00  0.00    +0.000 A 
ATOM     24  S   UNL     1      45.631   6.789  11.796  0.00  0.00    +0.000 S 
ATOM     25  C   UNL     1      47.057   7.437  12.460  0.00  0.00    +0.000 A 
ATOM     26  N   UNL     1      47.519   8.655  12.067  0.00  0.00    +0.000 NA
ATOM     27  C   UNL     1      48.627   9.010  12.624  0.00  0.00    +0.000 A 
ATOM     28  N   UNL     1      49.310   8.263  13.549  0.00  0.00    +0.000 N 
ATOM     29  C   UNL     1      48.854   7.052  14.013  0.00  0.00    +0.000 A 
ATOM     30  O   UNL     1      49.444   6.452  14.904  0.00  0.00    +0.000 OA
ATOM     31  C   UNL     1      47.629   6.588  13.390  0.00  0.00    +0.000 A 
ATOM     32  H   UNL     1      50.163   8.605  13.965  0.00  0.00    +0.000 HD
ENDBRANCH  19  22
ENDBRANCH  17  18
ENDBRANCH   4  17
TORSDOF 6
ENDMDL
