MODEL 1
REMARK VINA RESULT:    -8.919      0.000      0.000
REMARK INTER + INTRA:         -12.045
REMARK INTER:                 -11.526
REMARK INTRA:                  -0.518
REMARK UNBOUND:                -0.518
REMARK  Name = 
REMARK  6 active torsions:
REMARK  status: ('A' for Active; 'I' for Inactive)
REMARK    1  A    between atoms: C_1  and  C_2
REMARK    2  A    between atoms: C_2  and  N_3
REMARK    3  A    between atoms: C_2  and  C_16
REMARK    4  A    between atoms: C_4  and  C_6
REMARK    5  A    between atoms: C_19  and  O_20
REMARK    6  A    between atoms: O_20  and  C_21
REMARK                            x       y       z     vdW  Elec       q    Type
REMARK                         _______ _______ _______ _____ _____    ______ ____
ROOT
ATOM      1  C   UNL     1      45.302   8.496  12.604  0.00  0.00    +0.000 C 
ATOM      2  C   UNL     1      46.416   7.464  12.421  0.00  0.00    +0.000 C 
ENDROOT
BRANCH   2   3
ATOM      3  C   UNL     1      45.969   6.290  11.568  0.00  0.00    +0.000 A 
ATOM      4  C   UNL     1      45.295   5.223  12.176  0.00  0.00    +0.000 A 
ATOM      5  C   UNL     1      44.846   4.138  11.421  0.00  0.00    +0.000 A 
ATOM      6  C   UNL     1      45.019   4.123  10.035  0.00  0.00    +0.000 A 
ATOM      7  C   UNL     1      45.717   5.160   9.420  0.00  0.00    +0.000 A 
ATOM      8  C   UNL     1      46.185   6.239  10.179  0.00  0.00    +0.000 A 
BRANCH   6   9
ATOM      9  O   UNL     1      44.596   3.087   9.229  0.00  0.00    +0.000 OA
BRANCH   9  10
ATOM     10  C   UNL     1      45.497   2.561   8.309  0.00  0.00    +0.000 A 
ATOM     11  C   UNL     1      45.776   3.340   7.195  0.00  0.00    +0.000 A 
ATOM     12  C   UNL     1      46.688   2.853   6.263  0.00  0.00    +0.000 A 
ATOM     13  C   UNL     1      47.282   1.612   6.471  0.00  0.00    +0.000 A 
ATOM     14  C   UNL     1      46.922   0.895   7.600  0.00  0.00    +0.000 A 
ATOM     15  N   UNL     1      46.031   1.335   8.512  0.00  0.00    +0.000 NA
ENDBRANCH   9  10
ENDBRANCH   6   9
ENDBRANCH   2   3
BRANCH   2  16
ATOM     16  N   UNL     1      46.916   7.003  13.702  0.00  0.00    +0.000 N 
ATOM     17  C   UNL     1      48.214   6.602  13.886  0.00  0.00    +0.000 C 
ATOM     18  O   UNL     1      49.034   6.599  12.971  0.00  0.00    +0.000 OA
ATOM     19  H   UNL     1      46.238   6.878  14.447  0.00  0.00    +0.000 HD
BRANCH  17  20
ATOM     20  C   UNL     1      48.597   6.226  15.253  0.00  0.00    +0.000 A 
ATOM     21  C   UNL     1      49.546   6.980  15.930  0.00  0.00    +0.000 A 
ATOM     22  S   UNL     1      49.854   6.432  17.514  0.00  0.00    +0.000 S 
ATOM     23  C   UNL     1      48.774   5.130  17.330  0.00  0.00    +0.000 A 
ATOM     24  N   UNL     1      48.586   4.231  18.334  0.00  0.00    +0.000 NA
ATOM     25  C   UNL     1      47.778   3.267  18.042  0.00  0.00    +0.000 A 
ATOM     26  N   UNL     1      47.126   3.132  16.844  0.00  0.00    +0.000 N 
ATOM     27  C   UNL     1      47.220   4.058  15.834  0.00  0.00    +0.000 A 
ATOM     28  O   UNL     1      46.520   3.978  14.830  0.00  0.00    +0.000 OA
ATOM     29  C   UNL     1      48.160   5.134  16.089  0.00  0.00    +0.000 A 
ATOM     30  H   UNL     1      46.483   2.369  16.686  0.00  0.00    +0.000 HD
ENDBRANCH  17  20
ENDBRANCH   2  16
TORSDOF 5
ENDMDL
MODEL 2
REMARK VINA RESULT:    -8.022      2.623      3.892
REMARK INTER + INTRA:         -10.885
REMARK INTER:                  -9.825
REMARK INTRA:                  -1.060
REMARK UNBOUND:                -0.518
REMARK  Name = 
REMARK  6 active torsions:
REMARK  status: ('A' for Active; 'I' for Inactive)
REMARK    1  A    between atoms: C_1  and  C_2
REMARK    2  A    between atoms: C_2  and  N_3
REMARK    3  A    between atoms: C_2  and  C_16
REMARK    4  A    between atoms: C_4  and  C_6
REMARK    5  A    between atoms: C_19  and  O_20
REMARK    6  A    between atoms: O_20  and  C_21
REMARK                            x       y       z     vdW  Elec       q    Type
REMARK                         _______ _______ _______ _____ _____    ______ ____
ROOT
ATOM      1  C   UNL     1      46.725   4.706  14.774  0.00  0.00    +0.000 C 
ATOM      2  C   UNL     1      46.399   5.727  13.682  0.00  0.00    +0.000 C 
ENDROOT
BRANCH   2   3
ATOM      3  C   UNL     1      45.879   5.063  12.419  0.00  0.00    +0.000 A 
ATOM      4  C   UNL     1      45.927   5.767  11.209  0.00  0.00    +0.000 A 
ATOM      5  C   UNL     1      45.483   5.181  10.023  0.00  0.00    +0.000 A 
ATOM      6  C   UNL     1      45.028   3.861  10.015  0.00  0.00    +0.000 A 
ATOM      7  C   UNL     1      44.943   3.158  11.215  0.00  0.00    +0.000 A 
ATOM      8  C   UNL     1      45.369   3.752  12.409  0.00  0.00    +0.000 A 
BRANCH   6   9
ATOM      9  O   UNL     1      44.581   3.219   8.880  0.00  0.00    +0.000 OA
BRANCH   9  10
ATOM     10  C   UNL     1      45.517   2.576   8.077  0.00  0.00    +0.000 A 
ATOM     11  C   UNL     1      45.943   3.260   6.948  0.00  0.00    +0.000 A 
ATOM     12  C   UNL     1      46.894   2.655   6.131  0.00  0.00    +0.000 A 
ATOM     13  C   UNL     1      47.380   1.394   6.465  0.00  0.00    +0.000 A 
ATOM     14  C   UNL     1      46.876   0.778   7.598  0.00  0.00    +0.000 A 
ATOM     15  N   UNL     1      45.944   1.333   8.400  0.00  0.00    +0.000 NA
ENDBRANCH   9  10
ENDBRANCH   6   9
ENDBRANCH   2   3
BRANCH   2  16
ATOM     16  N   UNL     1      47.549   6.558  13.385  0.00  0.00    +0.000 N 
ATOM     17  C   UNL     1      47.490   7.928  13.394  0.00  0.00    +0.000 C 
ATOM     18  O   UNL     1      46.453   8.538  13.645  0.00  0.00    +0.000 OA
ATOM     19  H   UNL     1      48.388   6.091  13.057  0.00  0.00    +0.000 HD
BRANCH  17  20
ATOM     20  C   UNL     1      48.750   8.641  13.143  0.00  0.00    +0.000 A 
ATOM     21  C   UNL     1      48.779   9.677  12.220  0.00  0.00    +0.000 A 
ATOM     22  S   UNL     1      50.306  10.419  12.071  0.00  0.00    +0.000 S 
ATOM     23  C   UNL     1      50.998   9.342  13.192  0.00  0.00    +0.000 A 
ATOM     24  N   UNL     1      52.320   9.413  13.504  0.00  0.00    +0.000 NA
ATOM     25  C   UNL     1      52.722   8.504  14.329  0.00  0.00    +0.000 A 
ATOM     26  N   UNL     1      51.918   7.544  14.885  0.00  0.00    +0.000 N 
ATOM     27  C   UNL     1      50.563   7.486  14.664  0.00  0.00    +0.000 A 
ATOM     28  O   UNL     1      49.851   6.700  15.281  0.00  0.00    +0.000 OA
ATOM     29  C   UNL     1      50.068   8.450  13.699  0.00  0.00    +0.000 A 
ATOM     30  H   UNL     1      52.286   6.877  15.547  0.00  0.00    +0.000 HD
ENDBRANCH  17  20
ENDBRANCH   2  16
TORSDOF 5
ENDMDL
MODEL 3
REMARK VINA RESULT:    -7.879      1.632      2.294
REMARK INTER + INTRA:         -10.700
REMARK INTER:                 -10.878
REMARK INTRA:                   0.178
REMARK UNBOUND:                -0.518
REMARK  Name = 
REMARK  6 active torsions:
REMARK  status: ('A' for Active; 'I' for Inactive)
REMARK    1  A    between atoms: C_1  and  C_2
REMARK    2  A    between atoms: C_2  and  N_3
REMARK    3  A    between atoms: C_2  and  C_16
REMARK    4  A    between atoms: C_4  and  C_6
REMARK    5  A    between atoms: C_19  and  O_20
REMARK    6  A    between atoms: O_20  and  C_21
REMARK                            x       y       z     vdW  Elec       q    Type
REMARK                         _______ _______ _______ _____ _____    ______ ____
ROOT
ATOM      1  C   UNL     1      43.497   3.764  13.517  0.00  0.00    +0.000 C 
ATOM      2  C   UNL     1      44.070   5.065  12.953  0.00  0.00    +0.000 C 
ENDROOT
BRANCH   2   3
ATOM      3  C   UNL     1      44.464   4.926  11.492  0.00  0.00    +0.000 A 
ATOM      4  C   UNL     1      45.527   5.692  10.997  0.00  0.00    +0.000 A 
ATOM      5  C   UNL     1      45.935   5.574   9.668  0.00  0.00    +0.000 A 
ATOM      6  C   UNL     1      45.319   4.651   8.820  0.00  0.00    +0.000 A 
ATOM      7  C   UNL     1      44.238   3.906   9.287  0.00  0.00    +0.000 A 
ATOM      8  C   UNL     1      43.815   4.039  10.616  0.00  0.00    +0.000 A 
BRANCH   6   9
ATOM      9  O   UNL     1      45.675   4.479   7.499  0.00  0.00    +0.000 OA
BRANCH   9  10
ATOM     10  C   UNL     1      46.331   3.305   7.144  0.00  0.00    +0.000 A 
ATOM     11  C   UNL     1      46.984   3.304   5.919  0.00  0.00    +0.000 A 
ATOM     12  C   UNL     1      47.668   2.152   5.539  0.00  0.00    +0.000 A 
ATOM     13  C   UNL     1      47.672   1.048   6.387  0.00  0.00    +0.000 A 
ATOM     14  C   UNL     1      46.971   1.135   7.578  0.00  0.00    +0.000 A 
ATOM     15  N   UNL     1      46.288   2.231   7.965  0.00  0.00    +0.000 NA
ENDBRANCH   9  10
ENDBRANCH   6   9
ENDBRANCH   2   3
BRANCH   2  16
ATOM     16  N   UNL     1      45.196   5.524  13.743  0.00  0.00    +0.000 N 
ATOM     17  C   UNL     1      46.253   4.711  14.062  0.00  0.00    +0.000 C 
ATOM     18  O   UNL     1      46.308   3.537  13.704  0.00  0.00    +0.000 OA
ATOM     19  H   UNL     1      45.127   6.449  14.156  0.00  0.00    +0.000 HD
BRANCH  17  20
ATOM     20  C   UNL     1      47.356   5.332  14.809  0.00  0.00    +0.000 A 
ATOM     21  C   UNL     1      48.075   6.370  14.232  0.00  0.00    +0.000 A 
ATOM     22  S   UNL     1      49.297   6.998  15.239  0.00  0.00    +0.000 S 
ATOM     23  C   UNL     1      48.948   5.866  16.460  0.00  0.00    +0.000 A 
ATOM     24  N   UNL     1      49.668   5.837  17.613  0.00  0.00    +0.000 NA
ATOM     25  C   UNL     1      49.329   4.896  18.430  0.00  0.00    +0.000 A 
ATOM     26  N   UNL     1      48.323   3.993  18.206  0.00  0.00    +0.000 N 
ATOM     27  C   UNL     1      47.516   4.036  17.096  0.00  0.00    +0.000 A 
ATOM     28  O   UNL     1      46.540   3.300  16.990  0.00  0.00    +0.000 OA
ATOM     29  C   UNL     1      47.890   5.041  16.117  0.00  0.00    +0.000 A 
ATOM     30  H   UNL     1      48.087   3.296  18.897  0.00  0.00    +0.000 HD
ENDBRANCH  17  20
ENDBRANCH   2  16
TORSDOF 5
ENDMDL
MODEL 4
REMARK VINA RESULT:    -7.614      1.921      2.657
REMARK INTER + INTRA:         -10.358
REMARK INTER:                  -9.361
REMARK INTRA:                  -0.996
REMARK UNBOUND:                -0.518
REMARK  Name = 
REMARK  6 active torsions:
REMARK  status: ('A' for Active; 'I' for Inactive)
REMARK    1  A    between atoms: C_1  and  C_2
REMARK    2  A    between atoms: C_2  and  N_3
REMARK    3  A    between atoms: C_2  and  C_16
REMARK    4  A    between atoms: C_4  and  C_6
REMARK    5  A    between atoms: C_19  and  O_20
REMARK    6  A    between atoms: O_20  and  C_21
REMARK                            x       y       z     vdW  Elec       q    Type
REMARK                         _______ _______ _______ _____ _____    ______ ____
ROOT
ATOM      1  C   UNL     1      48.295   9.296  13.368  0.00  0.00    +0.000 C 
ATOM      2  C   UNL     1      48.274   7.814  13.745  0.00  0.00    +0.000 C 
ENDROOT
BRANCH   2   3
ATOM      3  C   UNL     1      47.192   7.053  12.998  0.00  0.00    +0.000 A 
ATOM      4  C   UNL     1      46.389   7.738  12.076  0.00  0.00    +0.000 A 
ATOM      5  C   UNL     1      45.402   7.068  11.351  0.00  0.00    +0.000 A 
ATOM      6  C   UNL     1      45.231   5.690  11.499  0.00  0.00    +0.000 A 
ATOM      7  C   UNL     1      45.998   5.000  12.435  0.00  0.00    +0.000 A 
ATOM      8  C   UNL     1      46.975   5.675  13.178  0.00  0.00    +0.000 A 
BRANCH   6   9
ATOM      9  O   UNL     1      44.280   4.966  10.811  0.00  0.00    +0.000 OA
BRANCH   9  10
ATOM     10  C   UNL     1      44.715   4.032   9.876  0.00  0.00    +0.000 A 
ATOM     11  C   UNL     1      45.443   4.521   8.801  0.00  0.00    +0.000 A 
ATOM     12  C   UNL     1      45.912   3.613   7.855  0.00  0.00    +0.000 A 
ATOM     13  C   UNL     1      45.634   2.258   8.012  0.00  0.00    +0.000 A 
ATOM     14  C   UNL     1      44.878   1.868   9.104  0.00  0.00    +0.000 A 
ATOM     15  N   UNL     1      44.399   2.726  10.028  0.00  0.00    +0.000 NA
ENDBRANCH   9  10
ENDBRANCH   6   9
ENDBRANCH   2   3
BRANCH   2  16
ATOM     16  N   UNL     1      48.122   7.641  15.177  0.00  0.00    +0.000 N 
ATOM     17  C   UNL     1      49.083   7.045  15.953  0.00  0.00    +0.000 C 
ATOM     18  O   UNL     1      50.131   6.611  15.480  0.00  0.00    +0.000 OA
ATOM     19  H   UNL     1      47.222   7.878  15.580  0.00  0.00    +0.000 HD
BRANCH  17  20
ATOM     20  C   UNL     1      48.825   7.002  17.398  0.00  0.00    +0.000 A 
ATOM     21  C   UNL     1      48.527   8.176  18.077  0.00  0.00    +0.000 A 
ATOM     22  S   UNL     1      48.224   7.949  19.738  0.00  0.00    +0.000 S 
ATOM     23  C   UNL     1      48.537   6.281  19.622  0.00  0.00    +0.000 A 
ATOM     24  N   UNL     1      48.480   5.481  20.721  0.00  0.00    +0.000 NA
ATOM     25  C   UNL     1      48.789   4.247  20.498  0.00  0.00    +0.000 A 
ATOM     26  N   UNL     1      49.132   3.737  19.274  0.00  0.00    +0.000 N 
ATOM     27  C   UNL     1      49.122   4.488  18.123  0.00  0.00    +0.000 A 
ATOM     28  O   UNL     1      49.302   3.971  17.025  0.00  0.00    +0.000 OA
ATOM     29  C   UNL     1      48.836   5.896  18.326  0.00  0.00    +0.000 A 
ATOM     30  H   UNL     1      49.336   2.755  19.159  0.00  0.00    +0.000 HD
ENDBRANCH  17  20
ENDBRANCH   2  16
TORSDOF 5
ENDMDL
MODEL 5
REMARK VINA RESULT:    -7.607      3.284      7.928
REMARK INTER + INTRA:         -10.349
REMARK INTER:                  -9.188
REMARK INTRA:                  -1.160
REMARK UNBOUND:                -0.518
REMARK  Name = 
REMARK  6 active torsions:
REMARK  status: ('A' for Active; 'I' for Inactive)
REMARK    1  A    between atoms: C_1  and  C_2
REMARK    2  A    between atoms: C_2  and  N_3
REMARK    3  A    between atoms: C_2  and  C_16
REMARK    4  A    between atoms: C_4  and  C_6
REMARK    5  A    between atoms: C_19  and  O_20
REMARK    6  A    between atoms: O_20  and  C_21
REMARK                            x       y       z     vdW  Elec       q    Type
REMARK                         _______ _______ _______ _____ _____    ______ ____
ROOT
ATOM      1  C   UNL     1      49.413   7.746  12.417  0.00  0.00    +0.000 C 
ATOM      2  C   UNL     1      48.228   7.235  13.237  0.00  0.00    +0.000 C 
ENDROOT
BRANCH   2   3
ATOM      3  C   UNL     1      48.670   6.639  14.563  0.00  0.00    +0.000 A 
ATOM      4  C   UNL     1      47.861   5.676  15.181  0.00  0.00    +0.000 A 
ATOM      5  C   UNL     1      48.246   5.088  16.387  0.00  0.00    +0.000 A 
ATOM      6  C   UNL     1      49.470   5.415  16.973  0.00  0.00    +0.000 A 
ATOM      7  C   UNL     1      50.270   6.395  16.389  0.00  0.00    +0.000 A 
ATOM      8  C   UNL     1      49.876   7.001  15.190  0.00  0.00    +0.000 A 
BRANCH   6   9
ATOM      9  O   UNL     1      49.914   4.868  18.159  0.00  0.00    +0.000 OA
BRANCH   9  10
ATOM     10  C   UNL     1      50.851   3.841  18.098  0.00  0.00    +0.000 A 
ATOM     11  C   UNL     1      50.456   2.675  17.460  0.00  0.00    +0.000 A 
ATOM     12  C   UNL     1      51.375   1.633  17.363  0.00  0.00    +0.000 A 
ATOM     13  C   UNL     1      52.646   1.790  17.909  0.00  0.00    +0.000 A 
ATOM     14  C   UNL     1      52.940   2.982  18.549  0.00  0.00    +0.000 A 
ATOM     15  N   UNL     1      52.066   4.001  18.671  0.00  0.00    +0.000 NA
ENDBRANCH   9  10
ENDBRANCH   6   9
ENDBRANCH   2   3
BRANCH   2  16
ATOM     16  N   UNL     1      47.446   6.276  12.483  0.00  0.00    +0.000 N 
ATOM     17  C   UNL     1      46.347   6.637  11.747  0.00  0.00    +0.000 C 
ATOM     18  O   UNL     1      45.950   7.799  11.689  0.00  0.00    +0.000 OA
ATOM     19  H   UNL     1      47.672   5.294  12.604  0.00  0.00    +0.000 HD
BRANCH  17  20
ATOM     20  C   UNL     1      45.694   5.570  10.976  0.00  0.00    +0.000 A 
ATOM     21  C   UNL     1      45.742   5.600   9.589  0.00  0.00    +0.000 A 
ATOM     22  S   UNL     1      44.964   4.276   8.849  0.00  0.00    +0.000 S 
ATOM     23  C   UNL     1      44.484   3.647  10.356  0.00  0.00    +0.000 A 
ATOM     24  N   UNL     1      43.739   2.512  10.433  0.00  0.00    +0.000 NA
ATOM     25  C   UNL     1      43.403   2.176  11.634  0.00  0.00    +0.000 A 
ATOM     26  N   UNL     1      43.760   2.863  12.765  0.00  0.00    +0.000 N 
ATOM     27  C   UNL     1      44.579   3.966  12.741  0.00  0.00    +0.000 A 
ATOM     28  O   UNL     1      44.989   4.476  13.779  0.00  0.00    +0.000 OA
ATOM     29  C   UNL     1      44.940   4.419  11.411  0.00  0.00    +0.000 A 
ATOM     30  H   UNL     1      43.489   2.533  13.680  0.00  0.00    +0.000 HD
ENDBRANCH  17  20
ENDBRANCH   2  16
TORSDOF 5
ENDMDL
MODEL 6
REMARK VINA RESULT:    -7.582      2.449      3.261
REMARK INTER + INTRA:         -10.317
REMARK INTER:                  -9.159
REMARK INTRA:                  -1.157
REMARK UNBOUND:                -0.518
REMARK  Name = 
REMARK  6 active torsions:
REMARK  status: ('A' for Active; 'I' for Inactive)
REMARK    1  A    between atoms: C_1  and  C_2
REMARK    2  A    between atoms: C_2  and  N_3
REMARK    3  A    between atoms: C_2  and  C_16
REMARK    4  A    between atoms: C_4  and  C_6
REMARK    5  A    between atoms: C_19  and  O_20
REMARK    6  A    between atoms: O_20  and  C_21
REMARK                            x       y       z     vdW  Elec       q    Type
REMARK                         _______ _______ _______ _____ _____    ______ ____
ROOT
ATOM      1  C   UNL     1      48.062   9.106  14.220  0.00  0.00    +0.000 C 
ATOM      2  C   UNL     1      48.285   7.594  14.161  0.00  0.00    +0.000 C 
ENDROOT
BRANCH   2   3
ATOM      3  C   UNL     1      47.321   6.914  13.203  0.00  0.00    +0.000 A 
ATOM      4  C   UNL     1      46.994   5.567  13.407  0.00  0.00    +0.000 A 
ATOM      5  C   UNL     1      46.093   4.915  12.564  0.00  0.00    +0.000 A 
ATOM      6  C   UNL     1      45.464   5.611  11.530  0.00  0.00    +0.000 A 
ATOM      7  C   UNL     1      45.803   6.942  11.293  0.00  0.00    +0.000 A 
ATOM      8  C   UNL     1      46.722   7.591  12.126  0.00  0.00    +0.000 A 
BRANCH   6   9
ATOM      9  O   UNL     1      44.561   5.031  10.664  0.00  0.00    +0.000 OA
BRANCH   9  10
ATOM     10  C   UNL     1      45.051   4.196   9.666  0.00  0.00    +0.000 A 
ATOM     11  C   UNL     1      44.850   2.834   9.840  0.00  0.00    +0.000 A 
ATOM     12  C   UNL     1      45.310   1.969   8.851  0.00  0.00    +0.000 A 
ATOM     13  C   UNL     1      45.955   2.490   7.733  0.00  0.00    +0.000 A 
ATOM     14  C   UNL     1      46.132   3.861   7.660  0.00  0.00    +0.000 A 
ATOM     15  N   UNL     1      45.711   4.722   8.608  0.00  0.00    +0.000 NA
ENDBRANCH   9  10
ENDBRANCH   6   9
ENDBRANCH   2   3
BRANCH   2  16
ATOM     16  N   UNL     1      48.195   7.002  15.481  0.00  0.00    +0.000 N 
ATOM     17  C   UNL     1      49.298   6.568  16.171  0.00  0.00    +0.000 C 
ATOM     18  O   UNL     1      50.433   6.647  15.708  0.00  0.00    +0.000 OA
ATOM     19  H   UNL     1      47.266   6.811  15.843  0.00  0.00    +0.000 HD
BRANCH  17  20
ATOM     20  C   UNL     1      49.063   6.054  17.527  0.00  0.00    +0.000 A 
ATOM     21  C   UNL     1      49.386   4.738  17.827  0.00  0.00    +0.000 A 
ATOM     22  S   UNL     1      49.082   4.309  19.448  0.00  0.00    +0.000 S 
ATOM     23  C   UNL     1      48.452   5.852  19.793  0.00  0.00    +0.000 A 
ATOM     24  N   UNL     1      47.972   6.149  21.030  0.00  0.00    +0.000 NA
ATOM     25  C   UNL     1      47.479   7.338  21.139  0.00  0.00    +0.000 A 
ATOM     26  N   UNL     1      47.439   8.262  20.128  0.00  0.00    +0.000 N 
ATOM     27  C   UNL     1      47.986   8.035  18.888  0.00  0.00    +0.000 A 
ATOM     28  O   UNL     1      48.055   8.929  18.050  0.00  0.00    +0.000 OA
ATOM     29  C   UNL     1      48.505   6.693  18.695  0.00  0.00    +0.000 A 
ATOM     30  H   UNL     1      47.065   9.186  20.283  0.00  0.00    +0.000 HD
ENDBRANCH  17  20
ENDBRANCH   2  16
TORSDOF 5
ENDMDL
MODEL 7
REMARK VINA RESULT:    -7.082      3.923      9.451
REMARK INTER + INTRA:          -9.670
REMARK INTER:                  -8.491
REMARK INTRA:                  -1.179
REMARK UNBOUND:                -0.518
REMARK  Name = 
REMARK  6 active torsions:
REMARK  status: ('A' for Active; 'I' for Inactive)
REMARK    1  A    between atoms: C_1  and  C_2
REMARK    2  A    between atoms: C_2  and  N_3
REMARK    3  A    between atoms: C_2  and  C_16
REMARK    4  A    between atoms: C_4  and  C_6
REMARK    5  A    between atoms: C_19  and  O_20
REMARK    6  A    between atoms: O_20  and  C_21
REMARK                            x       y       z     vdW  Elec       q    Type
REMARK                         _______ _______ _______ _____ _____    ______ ____
ROOT
ATOM      1  C   UNL     1      47.895   2.845  16.422  0.00  0.00    +0.000 C 
ATOM      2  C   UNL     1      48.146   4.299  16.021  0.00  0.00    +0.000 C 
ENDROOT
BRANCH   2   3
ATOM      3  C   UNL     1      48.229   5.216  17.229  0.00  0.00    +0.000 A 
ATOM      4  C   UNL     1      49.340   6.058  17.371  0.00  0.00    +0.000 A 
ATOM      5  C   UNL     1      49.440   6.932  18.454  0.00  0.00    +0.000 A 
ATOM      6  C   UNL     1      48.407   7.018  19.390  0.00  0.00    +0.000 A 
ATOM      7  C   UNL     1      47.311   6.164  19.282  0.00  0.00    +0.000 A 
ATOM      8  C   UNL     1      47.219   5.272  18.207  0.00  0.00    +0.000 A 
BRANCH   6   9
ATOM      9  O   UNL     1      48.438   7.863  20.480  0.00  0.00    +0.000 OA
BRANCH   9  10
ATOM     10  C   UNL     1      47.801   9.095  20.373  0.00  0.00    +0.000 A 
ATOM     11  C   UNL     1      46.614   9.244  21.077  0.00  0.00    +0.000 A 
ATOM     12  C   UNL     1      45.959  10.471  21.010  0.00  0.00    +0.000 A 
ATOM     13  C   UNL     1      46.505  11.496  20.243  0.00  0.00    +0.000 A 
ATOM     14  C   UNL     1      47.680  11.244  19.555  0.00  0.00    +0.000 A 
ATOM     15  N   UNL     1      48.328  10.063  19.590  0.00  0.00    +0.000 NA
ENDBRANCH   9  10
ENDBRANCH   6   9
ENDBRANCH   2   3
BRANCH   2  16
ATOM     16  N   UNL     1      47.133   4.767  15.094  0.00  0.00    +0.000 N 
ATOM     17  C   UNL     1      47.428   5.578  14.028  0.00  0.00    +0.000 C 
ATOM     18  O   UNL     1      48.570   5.967  13.797  0.00  0.00    +0.000 OA
ATOM     19  H   UNL     1      46.165   4.566  15.323  0.00  0.00    +0.000 HD
BRANCH  17  20
ATOM     20  C   UNL     1      46.313   5.916  13.133  0.00  0.00    +0.000 A 
ATOM     21  C   UNL     1      46.045   7.247  12.845  0.00  0.00    +0.000 A 
ATOM     22  S   UNL     1      44.742   7.466  11.769  0.00  0.00    +0.000 S 
ATOM     23  C   UNL     1      44.451   5.791  11.696  0.00  0.00    +0.000 A 
ATOM     24  N   UNL     1      43.427   5.291  10.953  0.00  0.00    +0.000 NA
ATOM     25  C   UNL     1      43.291   4.009  11.028  0.00  0.00    +0.000 A 
ATOM     26  N   UNL     1      44.097   3.180  11.763  0.00  0.00    +0.000 N 
ATOM     27  C   UNL     1      45.191   3.630  12.461  0.00  0.00    +0.000 A 
ATOM     28  O   UNL     1      45.970   2.847  12.997  0.00  0.00    +0.000 OA
ATOM     29  C   UNL     1      45.359   5.072  12.456  0.00  0.00    +0.000 A 
ATOM     30  H   UNL     1      43.956   2.181  11.759  0.00  0.00    +0.000 HD
ENDBRANCH  17  20
ENDBRANCH   2  16
TORSDOF 5
ENDMDL
MODEL 8
REMARK VINA RESULT:    -7.013      3.108      8.290
REMARK INTER + INTRA:          -9.581
REMARK INTER:                  -8.722
REMARK INTRA:                  -0.859
REMARK UNBOUND:                -0.518
REMARK  Name = 
REMARK  6 active torsions:
REMARK  status: ('A' for Active; 'I' for Inactive)
REMARK    1  A    between atoms: C_1  and  C_2
REMARK    2  A    between atoms: C_2  and  N_3
REMARK    3  A    between atoms: C_2  and  C_16
REMARK    4  A    between atoms: C_4  and  C_6
REMARK    5  A    between atoms: C_19  and  O_20
REMARK    6  A    between atoms: O_20  and  C_21
REMARK                            x       y       z     vdW  Elec       q    Type
REMARK                         _______ _______ _______ _____ _____    ______ ____
ROOT
ATOM      1  C   UNL     1      48.723   7.562  12.392  0.00  0.00    +0.000 C 
ATOM      2  C   UNL     1      47.707   6.984  13.380  0.00  0.00    +0.000 C 
ENDROOT
BRANCH   2   3
ATOM      3  C   UNL     1      48.371   6.489  14.653  0.00  0.00    +0.000 A 
ATOM      4  C   UNL     1      47.748   5.479  15.398  0.00  0.00    +0.000 A 
ATOM      5  C   UNL     1      48.339   4.979  16.559  0.00  0.00    +0.000 A 
ATOM      6  C   UNL     1      49.589   5.446  16.972  0.00  0.00    +0.000 A 
ATOM      7  C   UNL     1      50.206   6.473  16.261  0.00  0.00    +0.000 A 
ATOM      8  C   UNL     1      49.604   6.989  15.107  0.00  0.00    +0.000 A 
BRANCH   6   9
ATOM      9  O   UNL     1      50.232   4.993  18.104  0.00  0.00    +0.000 OA
BRANCH   9  10
ATOM     10  C   UNL     1      51.020   3.852  18.000  0.00  0.00    +0.000 A 
ATOM     11  C   UNL     1      52.282   3.912  18.575  0.00  0.00    +0.000 A 
ATOM     12  C   UNL     1      53.091   2.781  18.506  0.00  0.00    +0.000 A 
ATOM     13  C   UNL     1      52.617   1.639  17.867  0.00  0.00    +0.000 A 
ATOM     14  C   UNL     1      51.354   1.682  17.301  0.00  0.00    +0.000 A 
ATOM     15  N   UNL     1      50.555   2.767  17.339  0.00  0.00    +0.000 NA
ENDBRANCH   9  10
ENDBRANCH   6   9
ENDBRANCH   2   3
BRANCH   2  16
ATOM     16  N   UNL     1      46.927   5.928  12.767  0.00  0.00    +0.000 N 
ATOM     17  C   UNL     1      45.582   6.049  12.527  0.00  0.00    +0.000 C 
ATOM     18  O   UNL     1      44.952   7.061  12.827  0.00  0.00    +0.000 OA
ATOM     19  H   UNL     1      47.388   5.036  12.617  0.00  0.00    +0.000 HD
BRANCH  17  20
ATOM     20  C   UNL     1      44.934   4.926  11.836  0.00  0.00    +0.000 A 
ATOM     21  C   UNL     1      44.103   4.072  12.547  0.00  0.00    +0.000 A 
ATOM     22  S   UNL     1      43.407   2.842  11.593  0.00  0.00    +0.000 S 
ATOM     23  C   UNL     1      44.240   3.373  10.207  0.00  0.00    +0.000 A 
ATOM     24  N   UNL     1      44.110   2.719   9.022  0.00  0.00    +0.000 NA
ATOM     25  C   UNL     1      44.837   3.198   8.067  0.00  0.00    +0.000 A 
ATOM     26  N   UNL     1      45.666   4.282   8.186  0.00  0.00    +0.000 N 
ATOM     27  C   UNL     1      45.766   5.022   9.339  0.00  0.00    +0.000 A 
ATOM     28  O   UNL     1      46.413   6.065   9.372  0.00  0.00    +0.000 OA
ATOM     29  C   UNL     1      45.012   4.494  10.461  0.00  0.00    +0.000 A 
ATOM     30  H   UNL     1      46.188   4.626   7.394  0.00  0.00    +0.000 HD
ENDBRANCH  17  20
ENDBRANCH   2  16
TORSDOF 5
ENDMDL
MODEL 9
REMARK VINA RESULT:    -6.844      3.778      8.650
REMARK INTER + INTRA:          -9.363
REMARK INTER:                  -8.405
REMARK INTRA:                  -0.958
REMARK UNBOUND:                -0.518
REMARK  Name = 
REMARK  6 active torsions:
REMARK  status: ('A' for Active; 'I' for Inactive)
REMARK    1  A    between atoms: C_1  and  C_2
REMARK    2  A    between atoms: C_2  and  N_3
REMARK    3  A    between atoms: C_2  and  C_16
REMARK    4  A    between atoms: C_4  and  C_6
REMARK    5  A    between atoms: C_19  and  O_20
REMARK    6  A    between atoms: O_20  and  C_21
REMARK                            x       y       z     vdW  Elec       q    Type
REMARK                         _______ _______ _______ _____ _____    ______ ____
ROOT
ATOM      1  C   UNL     1      46.930   3.453  17.647  0.00  0.00    +0.000 C 
ATOM      2  C   UNL     1      47.840   3.797  16.466  0.00  0.00    +0.000 C 
ENDROOT
BRANCH   2   3
ATOM      3  C   UNL     1      49.174   4.362  16.922  0.00  0.00    +0.000 A 
ATOM      4  C   UNL     1      50.165   3.485  17.382  0.00  0.00    +0.000 A 
ATOM      5  C   UNL     1      51.412   3.963  17.785  0.00  0.00    +0.000 A 
ATOM      6  C   UNL     1      51.711   5.324  17.689  0.00  0.00    +0.000 A 
ATOM      7  C   UNL     1      50.725   6.214  17.265  0.00  0.00    +0.000 A 
ATOM      8  C   UNL     1      49.466   5.737  16.880  0.00  0.00    +0.000 A 
BRANCH   6   9
ATOM      9  O   UNL     1      52.923   5.864  18.064  0.00  0.00    +0.000 OA
BRANCH   9  10
ATOM     10  C   UNL     1      53.615   6.632  17.133  0.00  0.00    +0.000 A 
ATOM     11  C   UNL     1      54.129   5.963  16.032  0.00  0.00    +0.000 A 
ATOM     12  C   UNL     1      54.812   6.704  15.071  0.00  0.00    +0.000 A 
ATOM     13  C   UNL     1      54.960   8.077  15.244  0.00  0.00    +0.000 A 
ATOM     14  C   UNL     1      54.435   8.652  16.388  0.00  0.00    +0.000 A 
ATOM     15  N   UNL     1      53.782   7.958  17.343  0.00  0.00    +0.000 NA
ENDBRANCH   9  10
ENDBRANCH   6   9
ENDBRANCH   2   3
BRANCH   2  16
ATOM     16  N   UNL     1      47.184   4.711  15.552  0.00  0.00    +0.000 N 
ATOM     17  C   UNL     1      46.917   4.383  14.247  0.00  0.00    +0.000 C 
ATOM     18  O   UNL     1      47.226   3.295  13.769  0.00  0.00    +0.000 OA
ATOM     19  H   UNL     1      47.024   5.659  15.877  0.00  0.00    +0.000 HD
BRANCH  17  20
ATOM     20  C   UNL     1      46.185   5.382  13.457  0.00  0.00    +0.000 A 
ATOM     21  C   UNL     1      46.733   6.643  13.269  0.00  0.00    +0.000 A 
ATOM     22  S   UNL     1      45.774   7.670  12.304  0.00  0.00    +0.000 S 
ATOM     23  C   UNL     1      44.563   6.484  12.152  0.00  0.00    +0.000 A 
ATOM     24  N   UNL     1      43.422   6.737  11.456  0.00  0.00    +0.000 NA
ATOM     25  C   UNL     1      42.568   5.768  11.463  0.00  0.00    +0.000 A 
ATOM     26  N   UNL     1      42.760   4.563  12.088  0.00  0.00    +0.000 N 
ATOM     27  C   UNL     1      43.929   4.234  12.731  0.00  0.00    +0.000 A 
ATOM     28  O   UNL     1      44.120   3.101  13.161  0.00  0.00    +0.000 OA
ATOM     29  C   UNL     1      44.902   5.309  12.800  0.00  0.00    +0.000 A 
ATOM     30  H   UNL     1      42.065   3.833  12.033  0.00  0.00    +0.000 HD
ENDBRANCH  17  20
ENDBRANCH   2  16
TORSDOF 5
ENDMDL
