MODEL 1
REMARK VINA RESULT:    -8.304      0.000      0.000
REMARK INTER + INTRA:         -13.790
REMARK INTER:                 -12.916
REMARK INTRA:                  -0.874
REMARK UNBOUND:                -0.874
REMARK  Name = 
REMARK  10 active torsions:
REMARK  status: ('A' for Active; 'I' for Inactive)
REMARK    1  A    between atoms: N_1  and  C_2
REMARK    2  A    between atoms: C_2  and  C_3
REMARK    3  A    between atoms: C_3  and  N_4
REMARK    4  A    between atoms: C_3  and  C_20
REMARK    5  A    between atoms: N_4  and  C_5
REMARK    6  A    between atoms: C_5  and  C_6
REMARK    7  A    between atoms: C_9  and  C_10
REMARK    8  A    between atoms: C_10  and  N_11
REMARK    9  A    between atoms: N_11  and  C_12
REMARK   10  A    between atoms: C_12  and  C_13
REMARK                            x       y       z     vdW  Elec       q    Type
REMARK                         _______ _______ _______ _____ _____    ______ ____
ROOT
ATOM      1  N   UNL     1      47.921   5.932  15.823  0.00  0.00    +0.000 NA
ATOM      2  H   UNL     1      48.625   6.550  16.220  0.00  0.00    +0.000 HD
ENDROOT
BRANCH   1   3
ATOM      3  C   UNL     1      48.066   4.605  16.448  0.00  0.00    +0.000 C 
BRANCH   3   4
ATOM      4  C   UNL     1      49.461   4.597  17.076  0.00  0.00    +0.000 A 
ATOM      5  C   UNL     1      50.064   5.727  17.615  0.00  0.00    +0.000 A 
ATOM      6  S   UNL     1      51.621   5.443  18.237  0.00  0.00    +0.000 S 
ATOM      7  C   UNL     1      51.535   3.788  17.852  0.00  0.00    +0.000 A 
ATOM      8  N   UNL     1      52.561   2.952  18.160  0.00  0.00    +0.000 NA
ATOM      9  C   UNL     1      52.342   1.713  17.871  0.00  0.00    +0.000 A 
ATOM     10  N   UNL     1      51.196   1.241  17.284  0.00  0.00    +0.000 N 
ATOM     11  C   UNL     1      50.197   2.068  16.831  0.00  0.00    +0.000 A 
ATOM     12  O   UNL     1      49.280   1.640  16.126  0.00  0.00    +0.000 OA
ATOM     13  C   UNL     1      50.346   3.459  17.222  0.00  0.00    +0.000 A 
ATOM     14  H   UNL     1      51.115   0.262  17.044  0.00  0.00    +0.000 HD
ENDBRANCH   3   4
BRANCH   3  15
ATOM     15  C   UNL     1      46.987   4.260  17.534  0.00  0.00    +0.000 C 
BRANCH  15  16
ATOM     16  N   UNL     1      46.654   2.836  17.685  0.00  0.00    +0.000 NA
ATOM     17  H   UNL     1      45.674   2.683  17.457  0.00  0.00    +0.000 HD
ATOM     18  H   UNL     1      46.794   2.544  18.650  0.00  0.00    +0.000 HD
ENDBRANCH  15  16
ENDBRANCH   3  15
ENDBRANCH   1   3
BRANCH   1  19
ATOM     19  C   UNL     1      48.054   5.937  14.373  0.00  0.00    +0.000 C 
BRANCH  19  20
ATOM     20  C   UNL     1      46.873   5.265  13.740  0.00  0.00    +0.000 A 
ATOM     21  C   UNL     1      45.752   5.981  13.319  0.00  0.00    +0.000 A 
ATOM     22  C   UNL     1      44.685   5.298  12.752  0.00  0.00    +0.000 A 
ATOM     23  C   UNL     1      44.779   3.915  12.598  0.00  0.00    +0.000 A 
ATOM     24  N   UNL     1      45.861   3.199  12.992  0.00  0.00    +0.000 NA
ATOM     25  C   UNL     1      46.869   3.885  13.565  0.00  0.00    +0.000 A 
BRANCH  23  26
ATOM     26  C   UNL     1      43.632   3.132  11.998  0.00  0.00    +0.000 C 
BRANCH  26  27
ATOM     27  N   UNL     1      43.892   2.608  10.652  0.00  0.00    +0.000 NA
ATOM     28  H   UNL     1      43.047   2.126  10.337  0.00  0.00    +0.000 HD
BRANCH  27  29
ATOM     29  C   UNL     1      44.151   3.688   9.692  0.00  0.00    +0.000 C 
BRANCH  29  30
ATOM     30  C   UNL     1      45.187   3.214   8.726  0.00  0.00    +0.000 A 
ATOM     31  C   UNL     1      45.733   1.953   8.606  0.00  0.00    +0.000 A 
ATOM     32  N   UNL     1      46.600   2.031   7.557  0.00  0.00    +0.000 N 
ATOM     33  C   UNL     1      46.568   3.314   7.087  0.00  0.00    +0.000 A 
ATOM     34  N   UNL     1      45.728   4.055   7.774  0.00  0.00    +0.000 NA
ATOM     35  H   UNL     1      47.161   1.280   7.185  0.00  0.00    +0.000 HD
ENDBRANCH  29  30
ENDBRANCH  27  29
ENDBRANCH  26  27
ENDBRANCH  23  26
ENDBRANCH  19  20
ENDBRANCH   1  19
TORSDOF 10
ENDMDL
MODEL 2
REMARK VINA RESULT:    -7.363      1.759      2.365
REMARK INTER + INTRA:         -12.326
REMARK INTER:                 -11.176
REMARK INTRA:                  -1.150
REMARK UNBOUND:                -0.874
REMARK  Name = 
REMARK  10 active torsions:
REMARK  status: ('A' for Active; 'I' for Inactive)
REMARK    1  A    between atoms: N_1  and  C_2
REMARK    2  A    between atoms: C_2  and  C_3
REMARK    3  A    between atoms: C_3  and  N_4
REMARK    4  A    between atoms: C_3  and  C_20
REMARK    5  A    between atoms: N_4  and  C_5
REMARK    6  A    between atoms: C_5  and  C_6
REMARK    7  A    between atoms: C_9  and  C_10
REMARK    8  A    between atoms: C_10  and  N_11
REMARK    9  A    between atoms: N_11  and  C_12
REMARK   10  A    between atoms: C_12  and  C_13
REMARK                            x       y       z     vdW  Elec       q    Type
REMARK                         _______ _______ _______ _____ _____    ______ ____
ROOT
ATOM      1  N   UNL     1      48.197   5.965  15.138  0.00  0.00    +0.000 NA
ATOM      2  H   UNL     1      47.287   5.665  15.479  0.00  0.00    +0.000 HD
ENDROOT
BRANCH   1   3
ATOM      3  C   UNL     1      48.727   6.978  16.067  0.00  0.00    +0.000 C 
BRANCH   3   4
ATOM      4  C   UNL     1      50.182   6.581  16.323  0.00  0.00    +0.000 A 
ATOM      5  C   UNL     1      51.268   7.299  15.837  0.00  0.00    +0.000 A 
ATOM      6  S   UNL     1      52.775   6.633  16.258  0.00  0.00    +0.000 S 
ATOM      7  C   UNL     1      52.038   5.382  17.144  0.00  0.00    +0.000 A 
ATOM      8  N   UNL     1      52.793   4.461  17.799  0.00  0.00    +0.000 NA
ATOM      9  C   UNL     1      52.111   3.604  18.484  0.00  0.00    +0.000 A 
ATOM     10  N   UNL     1      50.742   3.578  18.555  0.00  0.00    +0.000 N 
ATOM     11  C   UNL     1      49.941   4.400  17.800  0.00  0.00    +0.000 A 
ATOM     12  O   UNL     1      48.723   4.219  17.726  0.00  0.00    +0.000 OA
ATOM     13  C   UNL     1      50.656   5.448  17.092  0.00  0.00    +0.000 A 
ATOM     14  H   UNL     1      50.275   2.846  19.075  0.00  0.00    +0.000 HD
ENDBRANCH   3   4
BRANCH   3  15
ATOM     15  C   UNL     1      48.659   8.457  15.546  0.00  0.00    +0.000 C 
BRANCH  15  16
ATOM     16  N   UNL     1      47.560   9.279  16.075  0.00  0.00    +0.000 NA
ATOM     17  H   UNL     1      47.720   9.478  17.061  0.00  0.00    +0.000 HD
ATOM     18  H   UNL     1      46.679   8.775  16.003  0.00  0.00    +0.000 HD
ENDBRANCH  15  16
ENDBRANCH   3  15
ENDBRANCH   1   3
BRANCH   1  19
ATOM     19  C   UNL     1      48.060   6.417  13.761  0.00  0.00    +0.000 C 
BRANCH  19  20
ATOM     20  C   UNL     1      47.022   5.602  13.047  0.00  0.00    +0.000 A 
ATOM     21  C   UNL     1      46.384   6.062  11.895  0.00  0.00    +0.000 A 
ATOM     22  C   UNL     1      45.422   5.265  11.289  0.00  0.00    +0.000 A 
ATOM     23  C   UNL     1      45.144   4.014  11.839  0.00  0.00    +0.000 A 
ATOM     24  N   UNL     1      45.758   3.542  12.953  0.00  0.00    +0.000 NA
ATOM     25  C   UNL     1      46.665   4.350  13.535  0.00  0.00    +0.000 A 
BRANCH  23  26
ATOM     26  C   UNL     1      44.093   3.121  11.217  0.00  0.00    +0.000 C 
BRANCH  26  27
ATOM     27  N   UNL     1      44.071   3.140   9.750  0.00  0.00    +0.000 NA
ATOM     28  H   UNL     1      44.587   3.968   9.442  0.00  0.00    +0.000 HD
BRANCH  27  29
ATOM     29  C   UNL     1      44.758   1.973   9.184  0.00  0.00    +0.000 C 
BRANCH  29  30
ATOM     30  C   UNL     1      45.803   2.462   8.235  0.00  0.00    +0.000 A 
ATOM     31  C   UNL     1      45.996   3.743   7.760  0.00  0.00    +0.000 A 
ATOM     32  N   UNL     1      47.096   3.671   6.957  0.00  0.00    +0.000 N 
ATOM     33  C   UNL     1      47.522   2.373   6.954  0.00  0.00    +0.000 A 
ATOM     34  N   UNL     1      46.761   1.616   7.712  0.00  0.00    +0.000 NA
ATOM     35  H   UNL     1      47.525   4.435   6.458  0.00  0.00    +0.000 HD
ENDBRANCH  29  30
ENDBRANCH  27  29
ENDBRANCH  26  27
ENDBRANCH  23  26
ENDBRANCH  19  20
ENDBRANCH   1  19
TORSDOF 10
ENDMDL
MODEL 3
REMARK VINA RESULT:    -7.240      1.716      2.483
REMARK INTER + INTRA:         -12.135
REMARK INTER:                 -10.866
REMARK INTRA:                  -1.269
REMARK UNBOUND:                -0.874
REMARK  Name = 
REMARK  10 active torsions:
REMARK  status: ('A' for Active; 'I' for Inactive)
REMARK    1  A    between atoms: N_1  and  C_2
REMARK    2  A    between atoms: C_2  and  C_3
REMARK    3  A    between atoms: C_3  and  N_4
REMARK    4  A    between atoms: C_3  and  C_20
REMARK    5  A    between atoms: N_4  and  C_5
REMARK    6  A    between atoms: C_5  and  C_6
REMARK    7  A    between atoms: C_9  and  C_10
REMARK    8  A    between atoms: C_10  and  N_11
REMARK    9  A    between atoms: N_11  and  C_12
REMARK   10  A    between atoms: C_12  and  C_13
REMARK                            x       y       z     vdW  Elec       q    Type
REMARK                         _______ _______ _______ _____ _____    ______ ____
ROOT
ATOM      1  N   UNL     1      48.572   4.457  16.180  0.00  0.00    +0.000 NA
ATOM      2  H   UNL     1      47.686   4.139  15.795  0.00  0.00    +0.000 HD
ENDROOT
BRANCH   1   3
ATOM      3  C   UNL     1      48.509   4.335  17.647  0.00  0.00    +0.000 C 
BRANCH   3   4
ATOM      4  C   UNL     1      49.955   4.133  18.106  0.00  0.00    +0.000 A 
ATOM      5  C   UNL     1      50.626   5.026  18.934  0.00  0.00    +0.000 A 
ATOM      6  S   UNL     1      52.227   4.568  19.280  0.00  0.00    +0.000 S 
ATOM      7  C   UNL     1      52.074   3.137  18.373  0.00  0.00    +0.000 A 
ATOM      8  N   UNL     1      53.108   2.259  18.288  0.00  0.00    +0.000 NA
ATOM      9  C   UNL     1      52.840   1.185  17.622  0.00  0.00    +0.000 A 
ATOM     10  N   UNL     1      51.636   0.923  17.019  0.00  0.00    +0.000 N 
ATOM     11  C   UNL     1      50.617   1.842  16.962  0.00  0.00    +0.000 A 
ATOM     12  O   UNL     1      49.631   1.664  16.242  0.00  0.00    +0.000 OA
ATOM     13  C   UNL     1      50.828   3.024  17.780  0.00  0.00    +0.000 A 
ATOM     14  H   UNL     1      51.515   0.080  16.473  0.00  0.00    +0.000 HD
ENDBRANCH   3   4
BRANCH   3  15
ATOM     15  C   UNL     1      47.878   5.565  18.390  0.00  0.00    +0.000 C 
BRANCH  15  16
ATOM     16  N   UNL     1      46.477   5.416  18.812  0.00  0.00    +0.000 NA
ATOM     17  H   UNL     1      46.006   4.739  18.215  0.00  0.00    +0.000 HD
ATOM     18  H   UNL     1      45.986   6.303  18.717  0.00  0.00    +0.000 HD
ENDBRANCH  15  16
ENDBRANCH   3  15
ENDBRANCH   1   3
BRANCH   1  19
ATOM     19  C   UNL     1      48.841   5.804  15.695  0.00  0.00    +0.000 C 
BRANCH  19  20
ATOM     20  C   UNL     1      47.848   6.182  14.635  0.00  0.00    +0.000 A 
ATOM     21  C   UNL     1      47.800   7.465  14.092  0.00  0.00    +0.000 A 
ATOM     22  C   UNL     1      46.848   7.756  13.123  0.00  0.00    +0.000 A 
ATOM     23  C   UNL     1      45.986   6.742  12.705  0.00  0.00    +0.000 A 
ATOM     24  N   UNL     1      46.020   5.485  13.213  0.00  0.00    +0.000 NA
ATOM     25  C   UNL     1      46.935   5.242  14.172  0.00  0.00    +0.000 A 
BRANCH  23  26
ATOM     26  C   UNL     1      44.926   7.022  11.662  0.00  0.00    +0.000 C 
BRANCH  26  27
ATOM     27  N   UNL     1      43.575   6.588  12.039  0.00  0.00    +0.000 NA
ATOM     28  H   UNL     1      43.027   7.426  12.251  0.00  0.00    +0.000 HD
BRANCH  27  29
ATOM     29  C   UNL     1      42.898   5.904  10.930  0.00  0.00    +0.000 C 
BRANCH  29  30
ATOM     30  C   UNL     1      43.401   4.499  10.874  0.00  0.00    +0.000 A 
ATOM     31  C   UNL     1      43.280   3.508  11.825  0.00  0.00    +0.000 A 
ATOM     32  N   UNL     1      43.871   2.406  11.280  0.00  0.00    +0.000 N 
ATOM     33  C   UNL     1      44.338   2.756  10.044  0.00  0.00    +0.000 A 
ATOM     34  N   UNL     1      44.074   4.013   9.770  0.00  0.00    +0.000 NA
ATOM     35  H   UNL     1      43.947   1.495  11.704  0.00  0.00    +0.000 HD
ENDBRANCH  29  30
ENDBRANCH  27  29
ENDBRANCH  26  27
ENDBRANCH  23  26
ENDBRANCH  19  20
ENDBRANCH   1  19
TORSDOF 10
ENDMDL
MODEL 4
REMARK VINA RESULT:    -7.115      2.598      3.644
REMARK INTER + INTRA:         -11.940
REMARK INTER:                 -11.017
REMARK INTRA:                  -0.924
REMARK UNBOUND:                -0.874
REMARK  Name = 
REMARK  10 active torsions:
REMARK  status: ('A' for Active; 'I' for Inactive)
REMARK    1  A    between atoms: N_1  and  C_2
REMARK    2  A    between atoms: C_2  and  C_3
REMARK    3  A    between atoms: C_3  and  N_4
REMARK    4  A    between atoms: C_3  and  C_20
REMARK    5  A    between atoms: N_4  and  C_5
REMARK    6  A    between atoms: C_5  and  C_6
REMARK    7  A    between atoms: C_9  and  C_10
REMARK    8  A    between atoms: C_10  and  N_11
REMARK    9  A    between atoms: N_11  and  C_12
REMARK   10  A    between atoms: C_12  and  C_13
REMARK                            x       y       z     vdW  Elec       q    Type
REMARK                         _______ _______ _______ _____ _____    ______ ____
ROOT
ATOM      1  N   UNL     1      47.230   4.777  15.708  0.00  0.00    +0.000 NA
ATOM      2  H   UNL     1      47.316   5.701  15.293  0.00  0.00    +0.000 HD
ENDROOT
BRANCH   1   3
ATOM      3  C   UNL     1      48.198   4.676  16.814  0.00  0.00    +0.000 C 
BRANCH   3   4
ATOM      4  C   UNL     1      48.274   6.077  17.424  0.00  0.00    +0.000 A 
ATOM      5  C   UNL     1      47.797   6.386  18.692  0.00  0.00    +0.000 A 
ATOM      6  S   UNL     1      47.995   8.020  19.120  0.00  0.00    +0.000 S 
ATOM      7  C   UNL     1      48.766   8.371  17.645  0.00  0.00    +0.000 A 
ATOM      8  N   UNL     1      49.225   9.624  17.386  0.00  0.00    +0.000 NA
ATOM      9  C   UNL     1      49.845   9.741  16.260  0.00  0.00    +0.000 A 
ATOM     10  N   UNL     1      50.029   8.720  15.363  0.00  0.00    +0.000 N 
ATOM     11  C   UNL     1      49.462   7.479  15.521  0.00  0.00    +0.000 A 
ATOM     12  O   UNL     1      49.468   6.649  14.609  0.00  0.00    +0.000 OA
ATOM     13  C   UNL     1      48.841   7.264  16.817  0.00  0.00    +0.000 A 
ATOM     14  H   UNL     1      50.485   8.898  14.477  0.00  0.00    +0.000 HD
ENDBRANCH   3   4
BRANCH   3  15
ATOM     15  C   UNL     1      47.834   3.627  17.924  0.00  0.00    +0.000 C 
BRANCH  15  16
ATOM     16  N   UNL     1      46.575   2.893  17.730  0.00  0.00    +0.000 NA
ATOM     17  H   UNL     1      46.722   1.901  17.907  0.00  0.00    +0.000 HD
ATOM     18  H   UNL     1      46.257   2.989  16.769  0.00  0.00    +0.000 HD
ENDBRANCH  15  16
ENDBRANCH   3  15
ENDBRANCH   1   3
BRANCH   1  19
ATOM     19  C   UNL     1      47.394   3.774  14.665  0.00  0.00    +0.000 C 
BRANCH  19  20
ATOM     20  C   UNL     1      46.551   4.121  13.474  0.00  0.00    +0.000 A 
ATOM     21  C   UNL     1      46.473   5.422  12.977  0.00  0.00    +0.000 A 
ATOM     22  C   UNL     1      45.664   5.681  11.879  0.00  0.00    +0.000 A 
ATOM     23  C   UNL     1      44.974   4.622  11.290  0.00  0.00    +0.000 A 
ATOM     24  N   UNL     1      45.040   3.348  11.751  0.00  0.00    +0.000 NA
ATOM     25  C   UNL     1      45.810   3.133  12.835  0.00  0.00    +0.000 A 
BRANCH  23  26
ATOM     26  C   UNL     1      44.070   4.864  10.101  0.00  0.00    +0.000 C 
BRANCH  26  27
ATOM     27  N   UNL     1      44.715   4.666   8.798  0.00  0.00    +0.000 NA
ATOM     28  H   UNL     1      45.696   4.943   8.891  0.00  0.00    +0.000 HD
BRANCH  27  29
ATOM     29  C   UNL     1      44.707   3.253   8.400  0.00  0.00    +0.000 C 
BRANCH  29  30
ATOM     30  C   UNL     1      46.007   2.950   7.730  0.00  0.00    +0.000 A 
ATOM     31  C   UNL     1      46.868   3.822   7.098  0.00  0.00    +0.000 A 
ATOM     32  N   UNL     1      47.922   3.060   6.688  0.00  0.00    +0.000 N 
ATOM     33  C   UNL     1      47.671   1.770   7.062  0.00  0.00    +0.000 A 
ATOM     34  N   UNL     1      46.520   1.669   7.689  0.00  0.00    +0.000 NA
ATOM     35  H   UNL     1      48.744   3.384   6.203  0.00  0.00    +0.000 HD
ENDBRANCH  29  30
ENDBRANCH  27  29
ENDBRANCH  26  27
ENDBRANCH  23  26
ENDBRANCH  19  20
ENDBRANCH   1  19
TORSDOF 10
ENDMDL
MODEL 5
REMARK VINA RESULT:    -7.062      3.120      8.752
REMARK INTER + INTRA:         -11.859
REMARK INTER:                 -10.855
REMARK INTRA:                  -1.005
REMARK UNBOUND:                -0.874
REMARK  Name = 
REMARK  10 active torsions:
REMARK  status: ('A' for Active; 'I' for Inactive)
REMARK    1  A    between atoms: N_1  and  C_2
REMARK    2  A    between atoms: C_2  and  C_3
REMARK    3  A    between atoms: C_3  and  N_4
REMARK    4  A    between atoms: C_3  and  C_20
REMARK    5  A    between atoms: N_4  and  C_5
REMARK    6  A    between atoms: C_5  and  C_6
REMARK    7  A    between atoms: C_9  and  C_10
REMARK    8  A    between atoms: C_10  and  N_11
REMARK    9  A    between atoms: N_11  and  C_12
REMARK   10  A    between atoms: C_12  and  C_13
REMARK                            x       y       z     vdW  Elec       q    Type
REMARK                         _______ _______ _______ _____ _____    ______ ____
ROOT
ATOM      1  N   UNL     1      46.062   7.069  13.089  0.00  0.00    +0.000 NA
ATOM      2  H   UNL     1      45.507   6.499  13.722  0.00  0.00    +0.000 HD
ENDROOT
BRANCH   1   3
ATOM      3  C   UNL     1      45.471   6.974  11.743  0.00  0.00    +0.000 C 
BRANCH   3   4
ATOM      4  C   UNL     1      44.844   5.581  11.666  0.00  0.00    +0.000 A 
ATOM      5  C   UNL     1      44.110   5.015  12.702  0.00  0.00    +0.000 A 
ATOM      6  S   UNL     1      43.536   3.450  12.360  0.00  0.00    +0.000 S 
ATOM      7  C   UNL     1      44.208   3.484  10.798  0.00  0.00    +0.000 A 
ATOM      8  N   UNL     1      44.045   2.432   9.953  0.00  0.00    +0.000 NA
ATOM      9  C   UNL     1      44.550   2.610   8.778  0.00  0.00    +0.000 A 
ATOM     10  N   UNL     1      45.220   3.740   8.382  0.00  0.00    +0.000 N 
ATOM     11  C   UNL     1      45.527   4.764   9.245  0.00  0.00    +0.000 A 
ATOM     12  O   UNL     1      46.303   5.666   8.921  0.00  0.00    +0.000 OA
ATOM     13  C   UNL     1      44.895   4.660  10.549  0.00  0.00    +0.000 A 
ATOM     14  H   UNL     1      45.630   3.790   7.459  0.00  0.00    +0.000 HD
ENDBRANCH   3   4
BRANCH   3  15
ATOM     15  C   UNL     1      44.394   8.066  11.411  0.00  0.00    +0.000 C 
BRANCH  15  16
ATOM     16  N   UNL     1      44.464   9.304  12.201  0.00  0.00    +0.000 NA
ATOM     17  H   UNL     1      44.237  10.104  11.612  0.00  0.00    +0.000 HD
ATOM     18  H   UNL     1      45.408   9.442  12.554  0.00  0.00    +0.000 HD
ENDBRANCH  15  16
ENDBRANCH   3  15
ENDBRANCH   1   3
BRANCH   1  19
ATOM     19  C   UNL     1      47.454   6.646  13.172  0.00  0.00    +0.000 C 
BRANCH  19  20
ATOM     20  C   UNL     1      47.658   5.761  14.365  0.00  0.00    +0.000 A 
ATOM     21  C   UNL     1      48.336   6.200  15.503  0.00  0.00    +0.000 A 
ATOM     22  C   UNL     1      48.503   5.328  16.570  0.00  0.00    +0.000 A 
ATOM     23  C   UNL     1      47.963   4.045  16.480  0.00  0.00    +0.000 A 
ATOM     24  N   UNL     1      47.293   3.600  15.387  0.00  0.00    +0.000 NA
ATOM     25  C   UNL     1      47.172   4.459  14.357  0.00  0.00    +0.000 A 
BRANCH  23  26
ATOM     26  C   UNL     1      48.136   3.060  17.614  0.00  0.00    +0.000 C 
BRANCH  26  27
ATOM     27  N   UNL     1      49.520   2.903  18.077  0.00  0.00    +0.000 NA
ATOM     28  H   UNL     1      49.495   2.400  18.967  0.00  0.00    +0.000 HD
BRANCH  27  29
ATOM     29  C   UNL     1      50.311   2.088  17.147  0.00  0.00    +0.000 C 
BRANCH  29  30
ATOM     30  C   UNL     1      51.675   1.909  17.729  0.00  0.00    +0.000 A 
ATOM     31  C   UNL     1      52.457   0.773  17.743  0.00  0.00    +0.000 A 
ATOM     32  N   UNL     1      53.619   1.139  18.357  0.00  0.00    +0.000 N 
ATOM     33  C   UNL     1      53.507   2.456  18.704  0.00  0.00    +0.000 A 
ATOM     34  N   UNL     1      52.344   2.949  18.343  0.00  0.00    +0.000 NA
ATOM     35  H   UNL     1      54.421   0.551  18.521  0.00  0.00    +0.000 HD
ENDBRANCH  29  30
ENDBRANCH  27  29
ENDBRANCH  26  27
ENDBRANCH  23  26
ENDBRANCH  19  20
ENDBRANCH   1  19
TORSDOF 10
ENDMDL
MODEL 6
REMARK VINA RESULT:    -6.899      2.812      8.870
REMARK INTER + INTRA:         -11.605
REMARK INTER:                 -10.741
REMARK INTRA:                  -0.864
REMARK UNBOUND:                -0.874
REMARK  Name = 
REMARK  10 active torsions:
REMARK  status: ('A' for Active; 'I' for Inactive)
REMARK    1  A    between atoms: N_1  and  C_2
REMARK    2  A    between atoms: C_2  and  C_3
REMARK    3  A    between atoms: C_3  and  N_4
REMARK    4  A    between atoms: C_3  and  C_20
REMARK    5  A    between atoms: N_4  and  C_5
REMARK    6  A    between atoms: C_5  and  C_6
REMARK    7  A    between atoms: C_9  and  C_10
REMARK    8  A    between atoms: C_10  and  N_11
REMARK    9  A    between atoms: N_11  and  C_12
REMARK   10  A    between atoms: C_12  and  C_13
REMARK                            x       y       z     vdW  Elec       q    Type
REMARK                         _______ _______ _______ _____ _____    ______ ____
ROOT
ATOM      1  N   UNL     1      46.774   4.492  15.130  0.00  0.00    +0.000 NA
ATOM      2  H   UNL     1      46.899   3.518  14.867  0.00  0.00    +0.000 HD
ENDROOT
BRANCH   1   3
ATOM      3  C   UNL     1      47.462   5.332  14.135  0.00  0.00    +0.000 C 
BRANCH   3   4
ATOM      4  C   UNL     1      46.383   5.755  13.137  0.00  0.00    +0.000 A 
ATOM      5  C   UNL     1      46.089   7.082  12.844  0.00  0.00    +0.000 A 
ATOM      6  S   UNL     1      44.837   7.272  11.709  0.00  0.00    +0.000 S 
ATOM      7  C   UNL     1      44.667   5.590  11.529  0.00  0.00    +0.000 A 
ATOM      8  N   UNL     1      43.760   5.076  10.657  0.00  0.00    +0.000 NA
ATOM      9  C   UNL     1      43.775   3.787  10.571  0.00  0.00    +0.000 A 
ATOM     10  N   UNL     1      44.604   2.969  11.296  0.00  0.00    +0.000 N 
ATOM     11  C   UNL     1      45.433   3.437  12.285  0.00  0.00    +0.000 A 
ATOM     12  O   UNL     1      46.010   2.668  13.058  0.00  0.00    +0.000 OA
ATOM     13  C   UNL     1      45.529   4.885  12.353  0.00  0.00    +0.000 A 
ATOM     14  H   UNL     1      44.527   1.964  11.210  0.00  0.00    +0.000 HD
ENDBRANCH   3   4
BRANCH   3  15
ATOM     15  C   UNL     1      48.180   6.600  14.717  0.00  0.00    +0.000 C 
BRANCH  15  16
ATOM     16  N   UNL     1      49.602   6.753  14.376  0.00  0.00    +0.000 NA
ATOM     17  H   UNL     1      50.180   6.362  15.118  0.00  0.00    +0.000 HD
ATOM     18  H   UNL     1      49.838   7.738  14.290  0.00  0.00    +0.000 HD
ENDBRANCH  15  16
ENDBRANCH   3  15
ENDBRANCH   1   3
BRANCH   1  19
ATOM     19  C   UNL     1      47.236   4.673  16.500  0.00  0.00    +0.000 C 
BRANCH  19  20
ATOM     20  C   UNL     1      48.435   3.811  16.762  0.00  0.00    +0.000 A 
ATOM     21  C   UNL     1      49.484   4.232  17.580  0.00  0.00    +0.000 A 
ATOM     22  C   UNL     1      50.573   3.393  17.772  0.00  0.00    +0.000 A 
ATOM     23  C   UNL     1      50.570   2.140  17.160  0.00  0.00    +0.000 A 
ATOM     24  N   UNL     1      49.559   1.706  16.367  0.00  0.00    +0.000 NA
ATOM     25  C   UNL     1      48.530   2.554  16.176  0.00  0.00    +0.000 A 
BRANCH  23  26
ATOM     26  C   UNL     1      51.744   1.202  17.332  0.00  0.00    +0.000 C 
BRANCH  26  27
ATOM     27  N   UNL     1      52.605   1.511  18.480  0.00  0.00    +0.000 NA
ATOM     28  H   UNL     1      52.460   0.782  19.183  0.00  0.00    +0.000 HD
BRANCH  27  29
ATOM     29  C   UNL     1      54.027   1.475  18.114  0.00  0.00    +0.000 C 
BRANCH  29  30
ATOM     30  C   UNL     1      54.353   0.094  17.647  0.00  0.00    +0.000 A 
ATOM     31  C   UNL     1      54.298  -1.086  18.359  0.00  0.00    +0.000 A 
ATOM     32  N   UNL     1      54.655  -2.061  17.475  0.00  0.00    +0.000 N 
ATOM     33  C   UNL     1      54.926  -1.457  16.279  0.00  0.00    +0.000 A 
ATOM     34  N   UNL     1      54.757  -0.156  16.351  0.00  0.00    +0.000 NA
ATOM     35  H   UNL     1      54.706  -3.050  17.661  0.00  0.00    +0.000 HD
ENDBRANCH  29  30
ENDBRANCH  27  29
ENDBRANCH  26  27
ENDBRANCH  23  26
ENDBRANCH  19  20
ENDBRANCH   1  19
TORSDOF 10
ENDMDL
MODEL 7
REMARK VINA RESULT:    -6.816      3.330      8.499
REMARK INTER + INTRA:         -11.476
REMARK INTER:                 -10.277
REMARK INTRA:                  -1.199
REMARK UNBOUND:                -0.874
REMARK  Name = 
REMARK  10 active torsions:
REMARK  status: ('A' for Active; 'I' for Inactive)
REMARK    1  A    between atoms: N_1  and  C_2
REMARK    2  A    between atoms: C_2  and  C_3
REMARK    3  A    between atoms: C_3  and  N_4
REMARK    4  A    between atoms: C_3  and  C_20
REMARK    5  A    between atoms: N_4  and  C_5
REMARK    6  A    between atoms: C_5  and  C_6
REMARK    7  A    between atoms: C_9  and  C_10
REMARK    8  A    between atoms: C_10  and  N_11
REMARK    9  A    between atoms: N_11  and  C_12
REMARK   10  A    between atoms: C_12  and  C_13
REMARK                            x       y       z     vdW  Elec       q    Type
REMARK                         _______ _______ _______ _____ _____    ______ ____
ROOT
ATOM      1  N   UNL     1      46.852   6.934  11.490  0.00  0.00    +0.000 NA
ATOM      2  H   UNL     1      47.469   6.768  10.698  0.00  0.00    +0.000 HD
ENDROOT
BRANCH   1   3
ATOM      3  C   UNL     1      45.469   7.010  10.989  0.00  0.00    +0.000 C 
BRANCH   3   4
ATOM      4  C   UNL     1      44.869   5.623  11.224  0.00  0.00    +0.000 A 
ATOM      5  C   UNL     1      44.219   5.259  12.397  0.00  0.00    +0.000 A 
ATOM      6  S   UNL     1      43.658   3.653  12.401  0.00  0.00    +0.000 S 
ATOM      7  C   UNL     1      44.223   3.392  10.818  0.00  0.00    +0.000 A 
ATOM      8  N   UNL     1      44.027   2.197  10.203  0.00  0.00    +0.000 NA
ATOM      9  C   UNL     1      44.448   2.151   8.983  0.00  0.00    +0.000 A 
ATOM     10  N   UNL     1      45.064   3.190   8.333  0.00  0.00    +0.000 N 
ATOM     11  C   UNL     1      45.405   4.363   8.961  0.00  0.00    +0.000 A 
ATOM     12  O   UNL     1      46.138   5.193   8.416  0.00  0.00    +0.000 OA
ATOM     13  C   UNL     1      44.866   4.505  10.302  0.00  0.00    +0.000 A 
ATOM     14  H   UNL     1      45.410   3.065   7.390  0.00  0.00    +0.000 HD
ENDBRANCH   3   4
BRANCH   3  15
ATOM     15  C   UNL     1      44.574   8.104  11.672  0.00  0.00    +0.000 C 
BRANCH  15  16
ATOM     16  N   UNL     1      43.333   8.457  10.967  0.00  0.00    +0.000 NA
ATOM     17  H   UNL     1      42.995   7.654  10.439  0.00  0.00    +0.000 HD
ATOM     18  H   UNL     1      43.508   9.208  10.304  0.00  0.00    +0.000 HD
ENDBRANCH  15  16
ENDBRANCH   3  15
ENDBRANCH   1   3
BRANCH   1  19
ATOM     19  C   UNL     1      47.306   8.121  12.201  0.00  0.00    +0.000 C 
BRANCH  19  20
ATOM     20  C   UNL     1      48.183   7.732  13.354  0.00  0.00    +0.000 A 
ATOM     21  C   UNL     1      49.227   8.545  13.796  0.00  0.00    +0.000 A 
ATOM     22  C   UNL     1      50.011   8.122  14.861  0.00  0.00    +0.000 A 
ATOM     23  C   UNL     1      49.711   6.906  15.473  0.00  0.00    +0.000 A 
ATOM     24  N   UNL     1      48.697   6.103  15.066  0.00  0.00    +0.000 NA
ATOM     25  C   UNL     1      47.972   6.526  14.013  0.00  0.00    +0.000 A 
BRANCH  23  26
ATOM     26  C   UNL     1      50.550   6.402  16.627  0.00  0.00    +0.000 C 
BRANCH  26  27
ATOM     27  N   UNL     1      49.842   6.340  17.911  0.00  0.00    +0.000 NA
ATOM     28  H   UNL     1      48.854   6.531  17.731  0.00  0.00    +0.000 HD
BRANCH  27  29
ATOM     29  C   UNL     1      49.917   4.999  18.504  0.00  0.00    +0.000 C 
BRANCH  29  30
ATOM     30  C   UNL     1      48.922   4.127  17.811  0.00  0.00    +0.000 A 
ATOM     31  C   UNL     1      47.545   4.188  17.865  0.00  0.00    +0.000 A 
ATOM     32  N   UNL     1      47.104   3.203  17.032  0.00  0.00    +0.000 N 
ATOM     33  C   UNL     1      48.202   2.574  16.516  0.00  0.00    +0.000 A 
ATOM     34  N   UNL     1      49.315   3.105  16.969  0.00  0.00    +0.000 NA
ATOM     35  H   UNL     1      46.144   2.978  16.824  0.00  0.00    +0.000 HD
ENDBRANCH  29  30
ENDBRANCH  27  29
ENDBRANCH  26  27
ENDBRANCH  23  26
ENDBRANCH  19  20
ENDBRANCH   1  19
TORSDOF 10
ENDMDL
MODEL 8
REMARK VINA RESULT:    -6.777      2.818      3.840
REMARK INTER + INTRA:         -11.416
REMARK INTER:                 -10.522
REMARK INTRA:                  -0.893
REMARK UNBOUND:                -0.874
REMARK  Name = 
REMARK  10 active torsions:
REMARK  status: ('A' for Active; 'I' for Inactive)
REMARK    1  A    between atoms: N_1  and  C_2
REMARK    2  A    between atoms: C_2  and  C_3
REMARK    3  A    between atoms: C_3  and  N_4
REMARK    4  A    between atoms: C_3  and  C_20
REMARK    5  A    between atoms: N_4  and  C_5
REMARK    6  A    between atoms: C_5  and  C_6
REMARK    7  A    between atoms: C_9  and  C_10
REMARK    8  A    between atoms: C_10  and  N_11
REMARK    9  A    between atoms: N_11  and  C_12
REMARK   10  A    between atoms: C_12  and  C_13
REMARK                            x       y       z     vdW  Elec       q    Type
REMARK                         _______ _______ _______ _____ _____    ______ ____
ROOT
ATOM      1  N   UNL     1      48.213   5.878  14.677  0.00  0.00    +0.000 NA
ATOM      2  H   UNL     1      47.499   5.275  15.080  0.00  0.00    +0.000 HD
ENDROOT
BRANCH   1   3
ATOM      3  C   UNL     1      48.812   6.672  15.764  0.00  0.00    +0.000 C 
BRANCH   3   4
ATOM      4  C   UNL     1      48.678   5.814  17.023  0.00  0.00    +0.000 A 
ATOM      5  C   UNL     1      48.901   4.442  17.041  0.00  0.00    +0.000 A 
ATOM      6  S   UNL     1      48.671   3.730  18.569  0.00  0.00    +0.000 S 
ATOM      7  C   UNL     1      48.307   5.233  19.277  0.00  0.00    +0.000 A 
ATOM      8  N   UNL     1      48.038   5.324  20.606  0.00  0.00    +0.000 NA
ATOM      9  C   UNL     1      47.840   6.528  21.028  0.00  0.00    +0.000 A 
ATOM     10  N   UNL     1      47.868   7.646  20.233  0.00  0.00    +0.000 N 
ATOM     11  C   UNL     1      47.997   7.584  18.867  0.00  0.00    +0.000 A 
ATOM     12  O   UNL     1      47.812   8.577  18.158  0.00  0.00    +0.000 OA
ATOM     13  C   UNL     1      48.324   6.265  18.354  0.00  0.00    +0.000 A 
ATOM     14  H   UNL     1      47.657   8.554  20.626  0.00  0.00    +0.000 HD
ENDBRANCH   3   4
BRANCH   3  15
ATOM     15  C   UNL     1      50.314   7.072  15.544  0.00  0.00    +0.000 C 
BRANCH  15  16
ATOM     16  N   UNL     1      50.568   8.485  15.229  0.00  0.00    +0.000 NA
ATOM     17  H   UNL     1      50.098   8.736  14.361  0.00  0.00    +0.000 HD
ATOM     18  H   UNL     1      51.564   8.641  15.094  0.00  0.00    +0.000 HD
ENDBRANCH  15  16
ENDBRANCH   3  15
ENDBRANCH   1   3
BRANCH   1  19
ATOM     19  C   UNL     1      47.617   6.666  13.607  0.00  0.00    +0.000 C 
BRANCH  19  20
ATOM     20  C   UNL     1      46.618   5.841  12.849  0.00  0.00    +0.000 A 
ATOM     21  C   UNL     1      46.010   4.718  13.410  0.00  0.00    +0.000 A 
ATOM     22  C   UNL     1      45.104   3.990  12.652  0.00  0.00    +0.000 A 
ATOM     23  C   UNL     1      44.810   4.422  11.358  0.00  0.00    +0.000 A 
ATOM     24  N   UNL     1      45.383   5.515  10.796  0.00  0.00    +0.000 NA
ATOM     25  C   UNL     1      46.280   6.185  11.546  0.00  0.00    +0.000 A 
BRANCH  23  26
ATOM     26  C   UNL     1      43.839   3.647  10.494  0.00  0.00    +0.000 C 
BRANCH  26  27
ATOM     27  N   UNL     1      44.244   3.521   9.089  0.00  0.00    +0.000 NA
ATOM     28  H   UNL     1      44.959   4.230   8.907  0.00  0.00    +0.000 HD
BRANCH  27  29
ATOM     29  C   UNL     1      44.858   2.216   8.819  0.00  0.00    +0.000 C 
BRANCH  29  30
ATOM     30  C   UNL     1      46.049   2.433   7.943  0.00  0.00    +0.000 A 
ATOM     31  C   UNL     1      46.473   3.604   7.350  0.00  0.00    +0.000 A 
ATOM     32  N   UNL     1      47.621   3.281   6.689  0.00  0.00    +0.000 N 
ATOM     33  C   UNL     1      47.851   1.949   6.884  0.00  0.00    +0.000 A 
ATOM     34  N   UNL     1      46.918   1.406   7.633  0.00  0.00    +0.000 NA
ATOM     35  H   UNL     1      48.204   3.910   6.157  0.00  0.00    +0.000 HD
ENDBRANCH  29  30
ENDBRANCH  27  29
ENDBRANCH  26  27
ENDBRANCH  23  26
ENDBRANCH  19  20
ENDBRANCH   1  19
TORSDOF 10
ENDMDL
MODEL 9
REMARK VINA RESULT:    -6.741      2.741      4.157
REMARK INTER + INTRA:         -11.359
REMARK INTER:                  -9.986
REMARK INTRA:                  -1.373
REMARK UNBOUND:                -0.874
REMARK  Name = 
REMARK  10 active torsions:
REMARK  status: ('A' for Active; 'I' for Inactive)
REMARK    1  A    between atoms: N_1  and  C_2
REMARK    2  A    between atoms: C_2  and  C_3
REMARK    3  A    between atoms: C_3  and  N_4
REMARK    4  A    between atoms: C_3  and  C_20
REMARK    5  A    between atoms: N_4  and  C_5
REMARK    6  A    between atoms: C_5  and  C_6
REMARK    7  A    between atoms: C_9  and  C_10
REMARK    8  A    between atoms: C_10  and  N_11
REMARK    9  A    between atoms: N_11  and  C_12
REMARK   10  A    between atoms: C_12  and  C_13
REMARK                            x       y       z     vdW  Elec       q    Type
REMARK                         _______ _______ _______ _____ _____    ______ ____
ROOT
ATOM      1  N   UNL     1      47.287   5.522  15.461  0.00  0.00    +0.000 NA
ATOM      2  H   UNL     1      47.052   6.258  14.799  0.00  0.00    +0.000 HD
ENDROOT
BRANCH   1   3
ATOM      3  C   UNL     1      48.645   5.776  15.972  0.00  0.00    +0.000 C 
BRANCH   3   4
ATOM      4  C   UNL     1      48.891   7.271  15.760  0.00  0.00    +0.000 A 
ATOM      5  C   UNL     1      48.853   8.206  16.788  0.00  0.00    +0.000 A 
ATOM      6  S   UNL     1      49.149   9.801  16.275  0.00  0.00    +0.000 S 
ATOM      7  C   UNL     1      49.384   9.301  14.667  0.00  0.00    +0.000 A 
ATOM      8  N   UNL     1      49.707  10.202  13.703  0.00  0.00    +0.000 NA
ATOM      9  C   UNL     1      49.918   9.684  12.539  0.00  0.00    +0.000 A 
ATOM     10  N   UNL     1      49.815   8.346  12.252  0.00  0.00    +0.000 N 
ATOM     11  C   UNL     1      49.357   7.424  13.160  0.00  0.00    +0.000 A 
ATOM     12  O   UNL     1      49.077   6.271  12.820  0.00  0.00    +0.000 OA
ATOM     13  C   UNL     1      49.202   7.936  14.511  0.00  0.00    +0.000 A 
ATOM     14  H   UNL     1      49.950   8.019  11.305  0.00  0.00    +0.000 HD
ENDBRANCH   3   4
BRANCH   3  15
ATOM     15  C   UNL     1      48.868   5.405  17.481  0.00  0.00    +0.000 C 
BRANCH  15  16
ATOM     16  N   UNL     1      47.655   5.276  18.302  0.00  0.00    +0.000 NA
ATOM     17  H   UNL     1      47.050   6.082  18.154  0.00  0.00    +0.000 HD
ATOM     18  H   UNL     1      47.900   5.254  19.288  0.00  0.00    +0.000 HD
ENDBRANCH  15  16
ENDBRANCH   3  15
ENDBRANCH   1   3
BRANCH   1  19
ATOM     19  C   UNL     1      47.115   4.230  14.810  0.00  0.00    +0.000 C 
BRANCH  19  20
ATOM     20  C   UNL     1      46.243   4.370  13.599  0.00  0.00    +0.000 A 
ATOM     21  C   UNL     1      45.728   5.603  13.197  0.00  0.00    +0.000 A 
ATOM     22  C   UNL     1      44.915   5.665  12.074  0.00  0.00    +0.000 A 
ATOM     23  C   UNL     1      44.660   4.491  11.365  0.00  0.00    +0.000 A 
ATOM     24  N   UNL     1      45.157   3.283  11.731  0.00  0.00    +0.000 NA
ATOM     25  C   UNL     1      45.918   3.250  12.842  0.00  0.00    +0.000 A 
BRANCH  23  26
ATOM     26  C   UNL     1      43.768   4.513  10.143  0.00  0.00    +0.000 C 
BRANCH  26  27
ATOM     27  N   UNL     1      44.128   3.535   9.110  0.00  0.00    +0.000 NA
ATOM     28  H   UNL     1      43.315   3.411   8.501  0.00  0.00    +0.000 HD
BRANCH  27  29
ATOM     29  C   UNL     1      45.225   4.022   8.264  0.00  0.00    +0.000 C 
BRANCH  29  30
ATOM     30  C   UNL     1      46.084   2.856   7.898  0.00  0.00    +0.000 A 
ATOM     31  C   UNL     1      45.951   1.539   8.286  0.00  0.00    +0.000 A 
ATOM     32  N   UNL     1      46.958   0.870   7.655  0.00  0.00    +0.000 N 
ATOM     33  C   UNL     1      47.669   1.783   6.928  0.00  0.00    +0.000 A 
ATOM     34  N   UNL     1      47.170   2.991   7.056  0.00  0.00    +0.000 NA
ATOM     35  H   UNL     1      47.145  -0.119   7.707  0.00  0.00    +0.000 HD
ENDBRANCH  29  30
ENDBRANCH  27  29
ENDBRANCH  26  27
ENDBRANCH  23  26
ENDBRANCH  19  20
ENDBRANCH   1  19
TORSDOF 10
ENDMDL
