MODEL 1
REMARK VINA RESULT:    -8.506      0.000      0.000
REMARK INTER + INTRA:         -13.760
REMARK INTER:                 -12.483
REMARK INTRA:                  -1.276
REMARK UNBOUND:                -1.276
REMARK  Name = 
REMARK  9 active torsions:
REMARK  status: ('A' for Active; 'I' for Inactive)
REMARK    1  A    between atoms: C_1  and  O_2
REMARK    2  A    between atoms: O_2  and  C_3
REMARK    3  A    between atoms: C_10  and  C_11
REMARK    4  A    between atoms: N_13  and  C_14
REMARK    5  A    between atoms: C_14  and  C_15
REMARK    6  A    between atoms: C_18  and  C_19
REMARK    7  A    between atoms: C_19  and  O_20
REMARK    8  A    between atoms: O_20  and  C_21
REMARK    9  A    between atoms: C_21  and  C_22
REMARK                            x       y       z     vdW  Elec       q    Type
REMARK                         _______ _______ _______ _____ _____    ______ ____
ROOT
ATOM      1  C   UNL     1      48.114   6.692  13.216  0.00  0.00    +0.000 C 
ENDROOT
BRANCH   1   2
ATOM      2  C   UNL     1      46.978   5.906  12.617  0.00  0.00    +0.000 A 
ATOM      3  C   UNL     1      46.397   6.310  11.408  0.00  0.00    +0.000 A 
ATOM      4  C   UNL     1      45.301   5.623  10.884  0.00  0.00    +0.000 A 
ATOM      5  C   UNL     1      44.762   4.521  11.561  0.00  0.00    +0.000 A 
ATOM      6  C   UNL     1      45.350   4.107  12.763  0.00  0.00    +0.000 A 
ATOM      7  C   UNL     1      46.447   4.796  13.287  0.00  0.00    +0.000 A 
BRANCH   5   8
ATOM      8  C   UNL     1      43.577   3.781  10.987  0.00  0.00    +0.000 C 
BRANCH   8   9
ATOM      9  O   UNL     1      43.832   3.296   9.669  0.00  0.00    +0.000 OA
BRANCH   9  10
ATOM     10  C   UNL     1      44.716   2.176   9.663  0.00  0.00    +0.000 C 
BRANCH  10  11
ATOM     11  C   UNL     1      45.628   2.271   8.468  0.00  0.00    +0.000 A 
ATOM     12  C   UNL     1      46.399   1.165   8.075  0.00  0.00    +0.000 A 
ATOM     13  C   UNL     1      47.220   1.241   6.949  0.00  0.00    +0.000 A 
ATOM     14  C   UNL     1      47.272   2.421   6.219  0.00  0.00    +0.000 A 
ATOM     15  F   UNL     1      48.054   2.491   5.134  0.00  0.00    +0.000 F 
ATOM     16  C   UNL     1      46.526   3.532   6.597  0.00  0.00    +0.000 A 
ATOM     17  C   UNL     1      45.705   3.458   7.722  0.00  0.00    +0.000 A 
ENDBRANCH  10  11
ENDBRANCH   9  10
ENDBRANCH   8   9
ENDBRANCH   5   8
ENDBRANCH   1   2
BRANCH   1  20
ATOM     18  C   UNL     1      49.075   6.914  15.460  0.00  0.00    +0.000 C 
ATOM     19  O   UNL     1      50.209   6.945  14.986  0.00  0.00    +0.000 OA
ATOM     20  N   UNL     1      47.980   6.780  14.652  0.00  0.00    +0.000 N 
ATOM     21  H   UNL     1      47.048   6.775  15.044  0.00  0.00    +0.000 HD
BRANCH  18  29
ATOM     22  C   UNL     1      48.911   4.621  18.038  0.00  0.00    +0.000 A 
ATOM     23  N   UNL     1      48.757   3.961  19.204  0.00  0.00    +0.000 NA
ATOM     24  C   UNL     1      48.503   4.675  20.303  0.00  0.00    +0.000 A 
ATOM     25  N   UNL     1      48.385   5.996  20.388  0.00  0.00    +0.000 NA
ATOM     26  C   UNL     1      48.531   6.615  19.205  0.00  0.00    +0.000 A 
ATOM     27  S   UNL     1      48.418   8.304  19.128  0.00  0.00    +0.000 S 
ATOM     28  C   UNL     1      48.678   8.294  17.450  0.00  0.00    +0.000 A 
ATOM     29  C   UNL     1      48.855   7.024  16.912  0.00  0.00    +0.000 A 
ATOM     30  C   UNL     1      48.780   6.018  17.969  0.00  0.00    +0.000 A 
BRANCH  22  32
ATOM     31  C   UNL     1      48.156   2.928  16.624  0.00  0.00    +0.000 C 
ATOM     32  O   UNL     1      49.180   3.881  16.906  0.00  0.00    +0.000 OA
ENDBRANCH  22  32
ENDBRANCH  18  29
ENDBRANCH   1  20
TORSDOF 8
ENDMDL
MODEL 2
REMARK VINA RESULT:    -8.134      1.573      2.570
REMARK INTER + INTRA:         -13.215
REMARK INTER:                 -11.877
REMARK INTRA:                  -1.338
REMARK UNBOUND:                -1.276
REMARK  Name = 
REMARK  9 active torsions:
REMARK  status: ('A' for Active; 'I' for Inactive)
REMARK    1  A    between atoms: C_1  and  O_2
REMARK    2  A    between atoms: O_2  and  C_3
REMARK    3  A    between atoms: C_10  and  C_11
REMARK    4  A    between atoms: N_13  and  C_14
REMARK    5  A    between atoms: C_14  and  C_15
REMARK    6  A    between atoms: C_18  and  C_19
REMARK    7  A    between atoms: C_19  and  O_20
REMARK    8  A    between atoms: O_20  and  C_21
REMARK    9  A    between atoms: C_21  and  C_22
REMARK                            x       y       z     vdW  Elec       q    Type
REMARK                         _______ _______ _______ _____ _____    ______ ____
ROOT
ATOM      1  C   UNL     1      48.291   6.410  13.926  0.00  0.00    +0.000 C 
ENDROOT
BRANCH   1   2
ATOM      2  C   UNL     1      47.087   5.972  13.136  0.00  0.00    +0.000 A 
ATOM      3  C   UNL     1      46.794   6.568  11.902  0.00  0.00    +0.000 A 
ATOM      4  C   UNL     1      45.642   6.211  11.199  0.00  0.00    +0.000 A 
ATOM      5  C   UNL     1      44.758   5.257  11.718  0.00  0.00    +0.000 A 
ATOM      6  C   UNL     1      45.056   4.651  12.946  0.00  0.00    +0.000 A 
ATOM      7  C   UNL     1      46.210   5.008  13.649  0.00  0.00    +0.000 A 
BRANCH   5   8
ATOM      8  C   UNL     1      43.515   4.875  10.952  0.00  0.00    +0.000 C 
BRANCH   8   9
ATOM      9  O   UNL     1      43.819   4.336   9.665  0.00  0.00    +0.000 OA
BRANCH   9  10
ATOM     10  C   UNL     1      44.252   2.979   9.732  0.00  0.00    +0.000 C 
BRANCH  10  11
ATOM     11  C   UNL     1      45.347   2.757   8.721  0.00  0.00    +0.000 A 
ATOM     12  C   UNL     1      45.869   1.470   8.513  0.00  0.00    +0.000 A 
ATOM     13  C   UNL     1      46.860   1.257   7.553  0.00  0.00    +0.000 A 
ATOM     14  C   UNL     1      47.329   2.328   6.805  0.00  0.00    +0.000 A 
ATOM     15  F   UNL     1      48.274   2.122   5.879  0.00  0.00    +0.000 F 
ATOM     16  C   UNL     1      46.834   3.612   7.003  0.00  0.00    +0.000 A 
ATOM     17  C   UNL     1      45.843   3.828   7.961  0.00  0.00    +0.000 A 
ENDBRANCH  10  11
ENDBRANCH   9  10
ENDBRANCH   8   9
ENDBRANCH   5   8
ENDBRANCH   1   2
BRANCH   1  20
ATOM     18  C   UNL     1      48.972   6.289  16.278  0.00  0.00    +0.000 C 
ATOM     19  O   UNL     1      50.134   6.068  15.944  0.00  0.00    +0.000 OA
ATOM     20  N   UNL     1      47.992   6.460  15.338  0.00  0.00    +0.000 N 
ATOM     21  H   UNL     1      47.041   6.661  15.616  0.00  0.00    +0.000 HD
BRANCH  18  29
ATOM     22  C   UNL     1      47.751   8.832  18.272  0.00  0.00    +0.000 A 
ATOM     23  N   UNL     1      47.322   9.630  19.271  0.00  0.00    +0.000 NA
ATOM     24  C   UNL     1      47.200   9.102  20.491  0.00  0.00    +0.000 A 
ATOM     25  N   UNL     1      47.454   7.847  20.847  0.00  0.00    +0.000 NA
ATOM     26  C   UNL     1      47.891   7.089  19.828  0.00  0.00    +0.000 A 
ATOM     27  S   UNL     1      48.257   5.456  20.100  0.00  0.00    +0.000 S 
ATOM     28  C   UNL     1      48.706   5.236  18.478  0.00  0.00    +0.000 A 
ATOM     29  C   UNL     1      48.592   6.380  17.698  0.00  0.00    +0.000 A 
ATOM     30  C   UNL     1      48.089   7.489  18.506  0.00  0.00    +0.000 A 
BRANCH  22  32
ATOM     31  C   UNL     1      48.862  10.403  16.955  0.00  0.00    +0.000 C 
ATOM     32  O   UNL     1      47.869   9.379  17.011  0.00  0.00    +0.000 OA
ENDBRANCH  22  32
ENDBRANCH  18  29
ENDBRANCH   1  20
TORSDOF 8
ENDMDL
MODEL 3
REMARK VINA RESULT:    -7.333      1.883      3.411
REMARK INTER + INTRA:         -12.039
REMARK INTER:                 -11.016
REMARK INTRA:                  -1.022
REMARK UNBOUND:                -1.276
REMARK  Name = 
REMARK  9 active torsions:
REMARK  status: ('A' for Active; 'I' for Inactive)
REMARK    1  A    between atoms: C_1  and  O_2
REMARK    2  A    between atoms: O_2  and  C_3
REMARK    3  A    between atoms: C_10  and  C_11
REMARK    4  A    between atoms: N_13  and  C_14
REMARK    5  A    between atoms: C_14  and  C_15
REMARK    6  A    between atoms: C_18  and  C_19
REMARK    7  A    between atoms: C_19  and  O_20
REMARK    8  A    between atoms: O_20  and  C_21
REMARK    9  A    between atoms: C_21  and  C_22
REMARK                            x       y       z     vdW  Elec       q    Type
REMARK                         _______ _______ _______ _____ _____    ______ ____
ROOT
ATOM      1  C   UNL     1      47.551   4.591  15.059  0.00  0.00    +0.000 C 
ENDROOT
BRANCH   1   2
ATOM      2  C   UNL     1      46.572   4.591  13.915  0.00  0.00    +0.000 A 
ATOM      3  C   UNL     1      45.967   5.785  13.502  0.00  0.00    +0.000 A 
ATOM      4  C   UNL     1      45.008   5.779  12.487  0.00  0.00    +0.000 A 
ATOM      5  C   UNL     1      44.632   4.579  11.870  0.00  0.00    +0.000 A 
ATOM      6  C   UNL     1      45.246   3.386  12.274  0.00  0.00    +0.000 A 
ATOM      7  C   UNL     1      46.205   3.392  13.290  0.00  0.00    +0.000 A 
BRANCH   5   8
ATOM      8  C   UNL     1      43.596   4.580  10.772  0.00  0.00    +0.000 C 
BRANCH   8   9
ATOM      9  O   UNL     1      44.155   4.241   9.503  0.00  0.00    +0.000 OA
BRANCH   9  10
ATOM     10  C   UNL     1      44.313   2.833   9.337  0.00  0.00    +0.000 C 
BRANCH  10  11
ATOM     11  C   UNL     1      45.390   2.572   8.317  0.00  0.00    +0.000 A 
ATOM     12  C   UNL     1      46.071   1.344   8.302  0.00  0.00    +0.000 A 
ATOM     13  C   UNL     1      47.046   1.087   7.337  0.00  0.00    +0.000 A 
ATOM     14  C   UNL     1      47.341   2.059   6.390  0.00  0.00    +0.000 A 
ATOM     15  F   UNL     1      48.271   1.810   5.459  0.00  0.00    +0.000 F 
ATOM     16  C   UNL     1      46.689   3.286   6.393  0.00  0.00    +0.000 A 
ATOM     17  C   UNL     1      45.714   3.544   7.357  0.00  0.00    +0.000 A 
ENDBRANCH  10  11
ENDBRANCH   9  10
ENDBRANCH   8   9
ENDBRANCH   5   8
ENDBRANCH   1   2
BRANCH   1  20
ATOM     18  C   UNL     1      48.927   6.226  16.261  0.00  0.00    +0.000 C 
ATOM     19  O   UNL     1      49.712   5.340  16.594  0.00  0.00    +0.000 OA
ATOM     20  N   UNL     1      47.822   5.937  15.507  0.00  0.00    +0.000 N 
ATOM     21  H   UNL     1      47.189   6.671  15.219  0.00  0.00    +0.000 HD
BRANCH  18  29
ATOM     22  C   UNL     1      48.823   9.237  14.570  0.00  0.00    +0.000 A 
ATOM     23  N   UNL     1      48.896  10.521  14.164  0.00  0.00    +0.000 NA
ATOM     24  C   UNL     1      49.218  11.450  15.067  0.00  0.00    +0.000 A 
ATOM     25  N   UNL     1      49.479  11.255  16.355  0.00  0.00    +0.000 NA
ATOM     26  C   UNL     1      49.410   9.963  16.717  0.00  0.00    +0.000 A 
ATOM     27  S   UNL     1      49.707   9.532  18.329  0.00  0.00    +0.000 S 
ATOM     28  C   UNL     1      49.459   7.888  17.986  0.00  0.00    +0.000 A 
ATOM     29  C   UNL     1      49.148   7.627  16.656  0.00  0.00    +0.000 A 
ATOM     30  C   UNL     1      49.105   8.876  15.898  0.00  0.00    +0.000 A 
BRANCH  22  32
ATOM     31  C   UNL     1      49.621   7.766  12.947  0.00  0.00    +0.000 C 
ATOM     32  O   UNL     1      48.482   8.280  13.637  0.00  0.00    +0.000 OA
ENDBRANCH  22  32
ENDBRANCH  18  29
ENDBRANCH   1  20
TORSDOF 8
ENDMDL
MODEL 4
REMARK VINA RESULT:    -7.244      1.719      2.364
REMARK INTER + INTRA:         -11.908
REMARK INTER:                 -10.852
REMARK INTRA:                  -1.056
REMARK UNBOUND:                -1.276
REMARK  Name = 
REMARK  9 active torsions:
REMARK  status: ('A' for Active; 'I' for Inactive)
REMARK    1  A    between atoms: C_1  and  O_2
REMARK    2  A    between atoms: O_2  and  C_3
REMARK    3  A    between atoms: C_10  and  C_11
REMARK    4  A    between atoms: N_13  and  C_14
REMARK    5  A    between atoms: C_14  and  C_15
REMARK    6  A    between atoms: C_18  and  C_19
REMARK    7  A    between atoms: C_19  and  O_20
REMARK    8  A    between atoms: O_20  and  C_21
REMARK    9  A    between atoms: C_21  and  C_22
REMARK                            x       y       z     vdW  Elec       q    Type
REMARK                         _______ _______ _______ _____ _____    ______ ____
ROOT
ATOM      1  C   UNL     1      47.860   4.687  15.206  0.00  0.00    +0.000 C 
ENDROOT
BRANCH   1   2
ATOM      2  C   UNL     1      46.866   4.650  14.076  0.00  0.00    +0.000 A 
ATOM      3  C   UNL     1      46.288   5.835  13.602  0.00  0.00    +0.000 A 
ATOM      4  C   UNL     1      45.317   5.798  12.600  0.00  0.00    +0.000 A 
ATOM      5  C   UNL     1      44.901   4.576  12.057  0.00  0.00    +0.000 A 
ATOM      6  C   UNL     1      45.487   3.391  12.521  0.00  0.00    +0.000 A 
ATOM      7  C   UNL     1      46.460   3.428  13.524  0.00  0.00    +0.000 A 
BRANCH   5   8
ATOM      8  C   UNL     1      43.851   4.543  10.973  0.00  0.00    +0.000 C 
BRANCH   8   9
ATOM      9  O   UNL     1      44.414   4.291   9.685  0.00  0.00    +0.000 OA
BRANCH   9  10
ATOM     10  C   UNL     1      44.396   2.906   9.346  0.00  0.00    +0.000 C 
BRANCH  10  11
ATOM     11  C   UNL     1      45.463   2.633   8.318  0.00  0.00    +0.000 A 
ATOM     12  C   UNL     1      46.113   1.389   8.282  0.00  0.00    +0.000 A 
ATOM     13  C   UNL     1      47.078   1.123   7.310  0.00  0.00    +0.000 A 
ATOM     14  C   UNL     1      47.395   2.101   6.377  0.00  0.00    +0.000 A 
ATOM     15  F   UNL     1      48.316   1.843   5.439  0.00  0.00    +0.000 F 
ATOM     16  C   UNL     1      46.773   3.345   6.401  0.00  0.00    +0.000 A 
ATOM     17  C   UNL     1      45.808   3.612   7.372  0.00  0.00    +0.000 A 
ENDBRANCH  10  11
ENDBRANCH   9  10
ENDBRANCH   8   9
ENDBRANCH   5   8
ENDBRANCH   1   2
BRANCH   1  20
ATOM     18  C   UNL     1      48.880   6.762  16.024  0.00  0.00    +0.000 C 
ATOM     19  O   UNL     1      49.961   6.439  15.535  0.00  0.00    +0.000 OA
ATOM     20  N   UNL     1      47.788   5.944  15.916  0.00  0.00    +0.000 N 
ATOM     21  H   UNL     1      46.896   6.221  16.303  0.00  0.00    +0.000 HD
BRANCH  18  29
ATOM     22  C   UNL     1      47.667   7.623  19.142  0.00  0.00    +0.000 A 
ATOM     23  N   UNL     1      47.220   8.238  20.256  0.00  0.00    +0.000 NA
ATOM     24  C   UNL     1      47.308   9.569  20.319  0.00  0.00    +0.000 A 
ATOM     25  N   UNL     1      47.801  10.382  19.391  0.00  0.00    +0.000 NA
ATOM     26  C   UNL     1      48.223   9.733  18.293  0.00  0.00    +0.000 A 
ATOM     27  S   UNL     1      48.891  10.615  17.008  0.00  0.00    +0.000 S 
ATOM     28  C   UNL     1      49.133   9.201  16.100  0.00  0.00    +0.000 A 
ATOM     29  C   UNL     1      48.719   8.038  16.740  0.00  0.00    +0.000 A 
ATOM     30  C   UNL     1      48.186   8.358  18.063  0.00  0.00    +0.000 A 
BRANCH  22  32
ATOM     31  C   UNL     1      48.153   5.619  20.229  0.00  0.00    +0.000 C 
ATOM     32  O   UNL     1      47.582   6.248  19.083  0.00  0.00    +0.000 OA
ENDBRANCH  22  32
ENDBRANCH  18  29
ENDBRANCH   1  20
TORSDOF 8
ENDMDL
MODEL 5
REMARK VINA RESULT:    -7.111      1.962      2.263
REMARK INTER + INTRA:         -11.713
REMARK INTER:                 -11.021
REMARK INTRA:                  -0.692
REMARK UNBOUND:                -1.276
REMARK  Name = 
REMARK  9 active torsions:
REMARK  status: ('A' for Active; 'I' for Inactive)
REMARK    1  A    between atoms: C_1  and  O_2
REMARK    2  A    between atoms: O_2  and  C_3
REMARK    3  A    between atoms: C_10  and  C_11
REMARK    4  A    between atoms: N_13  and  C_14
REMARK    5  A    between atoms: C_14  and  C_15
REMARK    6  A    between atoms: C_18  and  C_19
REMARK    7  A    between atoms: C_19  and  O_20
REMARK    8  A    between atoms: O_20  and  C_21
REMARK    9  A    between atoms: C_21  and  C_22
REMARK                            x       y       z     vdW  Elec       q    Type
REMARK                         _______ _______ _______ _____ _____    ______ ____
ROOT
ATOM      1  C   UNL     1      46.082   8.498  13.181  0.00  0.00    +0.000 C 
ENDROOT
BRANCH   1   2
ATOM      2  C   UNL     1      45.571   7.210  12.592  0.00  0.00    +0.000 A 
ATOM      3  C   UNL     1      44.385   7.194  11.846  0.00  0.00    +0.000 A 
ATOM      4  C   UNL     1      43.873   5.992  11.356  0.00  0.00    +0.000 A 
ATOM      5  C   UNL     1      44.533   4.782  11.606  0.00  0.00    +0.000 A 
ATOM      6  C   UNL     1      45.726   4.798  12.340  0.00  0.00    +0.000 A 
ATOM      7  C   UNL     1      46.238   6.002  12.831  0.00  0.00    +0.000 A 
BRANCH   5   8
ATOM      8  C   UNL     1      43.974   3.486  11.070  0.00  0.00    +0.000 C 
BRANCH   8   9
ATOM      9  O   UNL     1      44.982   2.672  10.469  0.00  0.00    +0.000 OA
BRANCH   9  10
ATOM     10  C   UNL     1      44.524   2.029   9.282  0.00  0.00    +0.000 C 
BRANCH  10  11
ATOM     11  C   UNL     1      45.564   2.182   8.202  0.00  0.00    +0.000 A 
ATOM     12  C   UNL     1      46.481   1.149   7.949  0.00  0.00    +0.000 A 
ATOM     13  C   UNL     1      47.424   1.276   6.928  0.00  0.00    +0.000 A 
ATOM     14  C   UNL     1      47.451   2.435   6.163  0.00  0.00    +0.000 A 
ATOM     15  F   UNL     1      48.351   2.553   5.178  0.00  0.00    +0.000 F 
ATOM     16  C   UNL     1      46.560   3.474   6.404  0.00  0.00    +0.000 A 
ATOM     17  C   UNL     1      45.617   3.349   7.424  0.00  0.00    +0.000 A 
ENDBRANCH  10  11
ENDBRANCH   9  10
ENDBRANCH   8   9
ENDBRANCH   5   8
ENDBRANCH   1   2
BRANCH   1  20
ATOM     18  C   UNL     1      48.326   8.958  14.056  0.00  0.00    +0.000 C 
ATOM     19  O   UNL     1      48.500   9.818  13.194  0.00  0.00    +0.000 OA
ATOM     20  N   UNL     1      47.158   8.248  14.113  0.00  0.00    +0.000 N 
ATOM     21  H   UNL     1      47.011   7.555  14.834  0.00  0.00    +0.000 HD
BRANCH  18  29
ATOM     22  C   UNL     1      49.154   6.153  15.893  0.00  0.00    +0.000 A 
ATOM     23  N   UNL     1      49.662   5.245  16.752  0.00  0.00    +0.000 NA
ATOM     24  C   UNL     1      50.692   5.611  17.519  0.00  0.00    +0.000 A 
ATOM     25  N   UNL     1      51.296   6.794  17.534  0.00  0.00    +0.000 NA
ATOM     26  C   UNL     1      50.753   7.674  16.676  0.00  0.00    +0.000 A 
ATOM     27  S   UNL     1      51.404   9.234  16.558  0.00  0.00    +0.000 S 
ATOM     28  C   UNL     1      50.259   9.676  15.385  0.00  0.00    +0.000 A 
ATOM     29  C   UNL     1      49.365   8.664  15.057  0.00  0.00    +0.000 A 
ATOM     30  C   UNL     1      49.671   7.457  15.823  0.00  0.00    +0.000 A 
BRANCH  22  32
ATOM     31  C   UNL     1      47.365   4.678  15.654  0.00  0.00    +0.000 C 
ATOM     32  O   UNL     1      48.095   5.770  15.097  0.00  0.00    +0.000 OA
ENDBRANCH  22  32
ENDBRANCH  18  29
ENDBRANCH   1  20
TORSDOF 8
ENDMDL
MODEL 6
REMARK VINA RESULT:    -7.045      1.988      2.481
REMARK INTER + INTRA:         -11.617
REMARK INTER:                 -10.575
REMARK INTRA:                  -1.042
REMARK UNBOUND:                -1.276
REMARK  Name = 
REMARK  9 active torsions:
REMARK  status: ('A' for Active; 'I' for Inactive)
REMARK    1  A    between atoms: C_1  and  O_2
REMARK    2  A    between atoms: O_2  and  C_3
REMARK    3  A    between atoms: C_10  and  C_11
REMARK    4  A    between atoms: N_13  and  C_14
REMARK    5  A    between atoms: C_14  and  C_15
REMARK    6  A    between atoms: C_18  and  C_19
REMARK    7  A    between atoms: C_19  and  O_20
REMARK    8  A    between atoms: O_20  and  C_21
REMARK    9  A    between atoms: C_21  and  C_22
REMARK                            x       y       z     vdW  Elec       q    Type
REMARK                         _______ _______ _______ _____ _____    ______ ____
ROOT
ATOM      1  C   UNL     1      47.962   8.297  14.046  0.00  0.00    +0.000 C 
ENDROOT
BRANCH   1   2
ATOM      2  C   UNL     1      47.152   7.159  13.485  0.00  0.00    +0.000 A 
ATOM      3  C   UNL     1      47.574   5.835  13.663  0.00  0.00    +0.000 A 
ATOM      4  C   UNL     1      46.862   4.782  13.086  0.00  0.00    +0.000 A 
ATOM      5  C   UNL     1      45.719   5.032  12.317  0.00  0.00    +0.000 A 
ATOM      6  C   UNL     1      45.289   6.355  12.148  0.00  0.00    +0.000 A 
ATOM      7  C   UNL     1      46.001   7.409  12.726  0.00  0.00    +0.000 A 
BRANCH   5   8
ATOM      8  C   UNL     1      44.953   3.888  11.698  0.00  0.00    +0.000 C 
BRANCH   8   9
ATOM      9  O   UNL     1      44.578   4.158  10.347  0.00  0.00    +0.000 OA
BRANCH   9  10
ATOM     10  C   UNL     1      44.226   2.975   9.633  0.00  0.00    +0.000 C 
BRANCH  10  11
ATOM     11  C   UNL     1      45.273   2.699   8.584  0.00  0.00    +0.000 A 
ATOM     12  C   UNL     1      45.682   3.716   7.707  0.00  0.00    +0.000 A 
ATOM     13  C   UNL     1      46.675   3.471   6.757  0.00  0.00    +0.000 A 
ATOM     14  C   UNL     1      47.255   2.212   6.683  0.00  0.00    +0.000 A 
ATOM     15  F   UNL     1      48.213   1.979   5.777  0.00  0.00    +0.000 F 
ATOM     16  C   UNL     1      46.856   1.187   7.534  0.00  0.00    +0.000 A 
ATOM     17  C   UNL     1      45.864   1.430   8.485  0.00  0.00    +0.000 A 
ENDBRANCH  10  11
ENDBRANCH   9  10
ENDBRANCH   8   9
ENDBRANCH   5   8
ENDBRANCH   1   2
BRANCH   1  20
ATOM     18  C   UNL     1      50.250   7.686  14.680  0.00  0.00    +0.000 C 
ATOM     19  O   UNL     1      50.650   7.954  13.549  0.00  0.00    +0.000 OA
ATOM     20  N   UNL     1      48.928   7.818  15.008  0.00  0.00    +0.000 N 
ATOM     21  H   UNL     1      48.607   7.615  15.945  0.00  0.00    +0.000 HD
BRANCH  18  29
ATOM     22  C   UNL     1      50.069   5.258  17.131  0.00  0.00    +0.000 A 
ATOM     23  N   UNL     1      50.254   4.432  18.181  0.00  0.00    +0.000 NA
ATOM     24  C   UNL     1      51.413   4.501  18.840  0.00  0.00    +0.000 A 
ATOM     25  N   UNL     1      52.436   5.306  18.574  0.00  0.00    +0.000 NA
ATOM     26  C   UNL     1      52.208   6.121  17.532  0.00  0.00    +0.000 A 
ATOM     27  S   UNL     1      53.411   7.213  17.047  0.00  0.00    +0.000 S 
ATOM     28  C   UNL     1      52.428   7.819  15.802  0.00  0.00    +0.000 A 
ATOM     29  C   UNL     1      51.178   7.217  15.723  0.00  0.00    +0.000 A 
ATOM     30  C   UNL     1      51.052   6.188  16.754  0.00  0.00    +0.000 A 
BRANCH  22  32
ATOM     31  C   UNL     1      48.027   4.147  16.952  0.00  0.00    +0.000 C 
ATOM     32  O   UNL     1      48.873   5.180  16.449  0.00  0.00    +0.000 OA
ENDBRANCH  22  32
ENDBRANCH  18  29
ENDBRANCH   1  20
TORSDOF 8
ENDMDL
MODEL 7
REMARK VINA RESULT:    -6.857      5.213      9.562
REMARK INTER + INTRA:         -11.340
REMARK INTER:                 -10.331
REMARK INTRA:                  -1.008
REMARK UNBOUND:                -1.276
REMARK  Name = 
REMARK  9 active torsions:
REMARK  status: ('A' for Active; 'I' for Inactive)
REMARK    1  A    between atoms: C_1  and  O_2
REMARK    2  A    between atoms: O_2  and  C_3
REMARK    3  A    between atoms: C_10  and  C_11
REMARK    4  A    between atoms: N_13  and  C_14
REMARK    5  A    between atoms: C_14  and  C_15
REMARK    6  A    between atoms: C_18  and  C_19
REMARK    7  A    between atoms: C_19  and  O_20
REMARK    8  A    between atoms: O_20  and  C_21
REMARK    9  A    between atoms: C_21  and  C_22
REMARK                            x       y       z     vdW  Elec       q    Type
REMARK                         _______ _______ _______ _____ _____    ______ ____
ROOT
ATOM      1  C   UNL     1      47.201   3.342  16.766  0.00  0.00    +0.000 C 
ENDROOT
BRANCH   1   2
ATOM      2  C   UNL     1      48.679   3.308  17.055  0.00  0.00    +0.000 A 
ATOM      3  C   UNL     1      49.402   2.117  16.910  0.00  0.00    +0.000 A 
ATOM      4  C   UNL     1      50.757   2.067  17.241  0.00  0.00    +0.000 A 
ATOM      5  C   UNL     1      51.414   3.204  17.727  0.00  0.00    +0.000 A 
ATOM      6  C   UNL     1      50.695   4.400  17.860  0.00  0.00    +0.000 A 
ATOM      7  C   UNL     1      49.339   4.450  17.528  0.00  0.00    +0.000 A 
BRANCH   5   8
ATOM      8  C   UNL     1      52.880   3.142  18.081  0.00  0.00    +0.000 C 
BRANCH   8   9
ATOM      9  O   UNL     1      53.201   1.982  18.849  0.00  0.00    +0.000 OA
BRANCH   9  10
ATOM     10  C   UNL     1      54.588   1.655  18.787  0.00  0.00    +0.000 C 
BRANCH  10  11
ATOM     11  C   UNL     1      54.752   0.320  18.106  0.00  0.00    +0.000 A 
ATOM     12  C   UNL     1      54.774  -0.863  18.862  0.00  0.00    +0.000 A 
ATOM     13  C   UNL     1      54.894  -2.102  18.231  0.00  0.00    +0.000 A 
ATOM     14  C   UNL     1      54.994  -2.157  16.847  0.00  0.00    +0.000 A 
ATOM     15  F   UNL     1      55.100  -3.347  16.241  0.00  0.00    +0.000 F 
ATOM     16  C   UNL     1      54.986  -0.997  16.080  0.00  0.00    +0.000 A 
ATOM     17  C   UNL     1      54.866   0.242  16.709  0.00  0.00    +0.000 A 
ENDBRANCH  10  11
ENDBRANCH   9  10
ENDBRANCH   8   9
ENDBRANCH   5   8
ENDBRANCH   1   2
BRANCH   1  20
ATOM     18  C   UNL     1      46.900   4.258  14.512  0.00  0.00    +0.000 C 
ATOM     19  O   UNL     1      47.221   3.180  14.016  0.00  0.00    +0.000 OA
ATOM     20  N   UNL     1      46.875   4.426  15.870  0.00  0.00    +0.000 N 
ATOM     21  H   UNL     1      46.592   5.309  16.274  0.00  0.00    +0.000 HD
BRANCH  18  29
ATOM     22  C   UNL     1      44.103   5.049  12.646  0.00  0.00    +0.000 A 
ATOM     23  N   UNL     1      43.180   5.582  11.819  0.00  0.00    +0.000 NA
ATOM     24  C   UNL     1      43.453   6.756  11.245  0.00  0.00    +0.000 A 
ATOM     25  N   UNL     1      44.554   7.484  11.399  0.00  0.00    +0.000 NA
ATOM     26  C   UNL     1      45.452   6.914  12.218  0.00  0.00    +0.000 A 
ATOM     27  S   UNL     1      46.915   7.709  12.536  0.00  0.00    +0.000 S 
ATOM     28  C   UNL     1      47.438   6.448  13.545  0.00  0.00    +0.000 A 
ATOM     29  C   UNL     1      46.528   5.404  13.665  0.00  0.00    +0.000 A 
ATOM     30  C   UNL     1      45.330   5.691  12.879  0.00  0.00    +0.000 A 
BRANCH  22  32
ATOM     31  C   UNL     1      43.596   2.802  12.289  0.00  0.00    +0.000 C 
ATOM     32  O   UNL     1      43.815   3.840  13.244  0.00  0.00    +0.000 OA
ENDBRANCH  22  32
ENDBRANCH  18  29
ENDBRANCH   1  20
TORSDOF 8
ENDMDL
MODEL 8
REMARK VINA RESULT:    -6.781      4.403      9.044
REMARK INTER + INTRA:         -11.229
REMARK INTER:                  -9.914
REMARK INTRA:                  -1.315
REMARK UNBOUND:                -1.276
REMARK  Name = 
REMARK  9 active torsions:
REMARK  status: ('A' for Active; 'I' for Inactive)
REMARK    1  A    between atoms: C_1  and  O_2
REMARK    2  A    between atoms: O_2  and  C_3
REMARK    3  A    between atoms: C_10  and  C_11
REMARK    4  A    between atoms: N_13  and  C_14
REMARK    5  A    between atoms: C_14  and  C_15
REMARK    6  A    between atoms: C_18  and  C_19
REMARK    7  A    between atoms: C_19  and  O_20
REMARK    8  A    between atoms: O_20  and  C_21
REMARK    9  A    between atoms: C_21  and  C_22
REMARK                            x       y       z     vdW  Elec       q    Type
REMARK                         _______ _______ _______ _____ _____    ______ ____
ROOT
ATOM      1  C   UNL     1      47.393   3.450  16.948  0.00  0.00    +0.000 C 
ENDROOT
BRANCH   1   2
ATOM      2  C   UNL     1      48.875   3.294  17.164  0.00  0.00    +0.000 A 
ATOM      3  C   UNL     1      49.500   2.063  16.923  0.00  0.00    +0.000 A 
ATOM      4  C   UNL     1      50.861   1.897  17.186  0.00  0.00    +0.000 A 
ATOM      5  C   UNL     1      51.622   2.955  17.699  0.00  0.00    +0.000 A 
ATOM      6  C   UNL     1      51.001   4.190  17.927  0.00  0.00    +0.000 A 
ATOM      7  C   UNL     1      49.639   4.357  17.664  0.00  0.00    +0.000 A 
BRANCH   5   8
ATOM      8  C   UNL     1      53.093   2.768  17.979  0.00  0.00    +0.000 C 
BRANCH   8   9
ATOM      9  O   UNL     1      53.723   3.982  18.389  0.00  0.00    +0.000 OA
BRANCH   9  10
ATOM     10  C   UNL     1      55.009   4.155  17.797  0.00  0.00    +0.000 C 
BRANCH  10  11
ATOM     11  C   UNL     1      54.893   5.096  16.625  0.00  0.00    +0.000 A 
ATOM     12  C   UNL     1      55.775   4.987  15.538  0.00  0.00    +0.000 A 
ATOM     13  C   UNL     1      55.648   5.837  14.438  0.00  0.00    +0.000 A 
ATOM     14  C   UNL     1      54.643   6.794  14.426  0.00  0.00    +0.000 A 
ATOM     15  F   UNL     1      54.517   7.604  13.367  0.00  0.00    +0.000 F 
ATOM     16  C   UNL     1      53.766   6.927  15.497  0.00  0.00    +0.000 A 
ATOM     17  C   UNL     1      53.891   6.079  16.597  0.00  0.00    +0.000 A 
ENDBRANCH  10  11
ENDBRANCH   9  10
ENDBRANCH   8   9
ENDBRANCH   5   8
ENDBRANCH   1   2
BRANCH   1  20
ATOM     18  C   UNL     1      47.062   4.269  14.661  0.00  0.00    +0.000 C 
ATOM     19  O   UNL     1      47.265   3.141  14.214  0.00  0.00    +0.000 OA
ATOM     20  N   UNL     1      47.117   4.510  16.007  0.00  0.00    +0.000 N 
ATOM     21  H   UNL     1      46.931   5.435  16.372  0.00  0.00    +0.000 HD
BRANCH  18  29
ATOM     22  C   UNL     1      44.328   5.098  12.719  0.00  0.00    +0.000 A 
ATOM     23  N   UNL     1      43.440   5.635  11.857  0.00  0.00    +0.000 NA
ATOM     24  C   UNL     1      43.768   6.776  11.246  0.00  0.00    +0.000 A 
ATOM     25  N   UNL     1      44.894   7.467  11.394  0.00  0.00    +0.000 NA
ATOM     26  C   UNL     1      45.756   6.893  12.249  0.00  0.00    +0.000 A 
ATOM     27  S   UNL     1      47.243   7.642  12.564  0.00  0.00    +0.000 S 
ATOM     28  C   UNL     1      47.700   6.400  13.626  0.00  0.00    +0.000 A 
ATOM     29  C   UNL     1      46.748   5.396  13.768  0.00  0.00    +0.000 A 
ATOM     30  C   UNL     1      45.575   5.701  12.951  0.00  0.00    +0.000 A 
BRANCH  22  32
ATOM     31  C   UNL     1      43.711   2.868  12.433  0.00  0.00    +0.000 C 
ATOM     32  O   UNL     1      43.984   3.923  13.354  0.00  0.00    +0.000 OA
ENDBRANCH  22  32
ENDBRANCH  18  29
ENDBRANCH   1  20
TORSDOF 8
ENDMDL
MODEL 9
REMARK VINA RESULT:    -6.770      4.184      9.009
REMARK INTER + INTRA:         -11.213
REMARK INTER:                  -9.122
REMARK INTRA:                  -2.090
REMARK UNBOUND:                -1.276
REMARK  Name = 
REMARK  9 active torsions:
REMARK  status: ('A' for Active; 'I' for Inactive)
REMARK    1  A    between atoms: C_1  and  O_2
REMARK    2  A    between atoms: O_2  and  C_3
REMARK    3  A    between atoms: C_10  and  C_11
REMARK    4  A    between atoms: N_13  and  C_14
REMARK    5  A    between atoms: C_14  and  C_15
REMARK    6  A    between atoms: C_18  and  C_19
REMARK    7  A    between atoms: C_19  and  O_20
REMARK    8  A    between atoms: O_20  and  C_21
REMARK    9  A    between atoms: C_21  and  C_22
REMARK                            x       y       z     vdW  Elec       q    Type
REMARK                         _______ _______ _______ _____ _____    ______ ____
ROOT
ATOM      1  C   UNL     1      47.189   3.315  16.861  0.00  0.00    +0.000 C 
ENDROOT
BRANCH   1   2
ATOM      2  C   UNL     1      48.488   3.604  17.565  0.00  0.00    +0.000 A 
ATOM      3  C   UNL     1      48.536   4.543  18.604  0.00  0.00    +0.000 A 
ATOM      4  C   UNL     1      49.751   4.862  19.214  0.00  0.00    +0.000 A 
ATOM      5  C   UNL     1      50.940   4.253  18.793  0.00  0.00    +0.000 A 
ATOM      6  C   UNL     1      50.891   3.305  17.763  0.00  0.00    +0.000 A 
ATOM      7  C   UNL     1      49.675   2.986  17.153  0.00  0.00    +0.000 A 
BRANCH   5   8
ATOM      8  C   UNL     1      52.250   4.602  19.459  0.00  0.00    +0.000 C 
BRANCH   8   9
ATOM      9  O   UNL     1      52.466   6.013  19.517  0.00  0.00    +0.000 OA
BRANCH   9  10
ATOM     10  C   UNL     1      52.971   6.536  18.291  0.00  0.00    +0.000 C 
BRANCH  10  11
ATOM     11  C   UNL     1      51.847   7.188  17.529  0.00  0.00    +0.000 A 
ATOM     12  C   UNL     1      51.513   6.745  16.239  0.00  0.00    +0.000 A 
ATOM     13  C   UNL     1      50.451   7.326  15.545  0.00  0.00    +0.000 A 
ATOM     14  C   UNL     1      49.725   8.350  16.139  0.00  0.00    +0.000 A 
ATOM     15  F   UNL     1      48.700   8.902  15.476  0.00  0.00    +0.000 F 
ATOM     16  C   UNL     1      50.045   8.812  17.411  0.00  0.00    +0.000 A 
ATOM     17  C   UNL     1      51.106   8.233  18.106  0.00  0.00    +0.000 A 
ENDBRANCH  10  11
ENDBRANCH   9  10
ENDBRANCH   8   9
ENDBRANCH   5   8
ENDBRANCH   1   2
BRANCH   1  20
ATOM     18  C   UNL     1      46.949   4.221  14.596  0.00  0.00    +0.000 C 
ATOM     19  O   UNL     1      47.354   3.164  14.115  0.00  0.00    +0.000 OA
ATOM     20  N   UNL     1      46.847   4.383  15.950  0.00  0.00    +0.000 N 
ATOM     21  H   UNL     1      46.495   5.248  16.341  0.00  0.00    +0.000 HD
BRANCH  18  29
ATOM     22  C   UNL     1      44.161   4.908  12.675  0.00  0.00    +0.000 A 
ATOM     23  N   UNL     1      43.237   5.405  11.827  0.00  0.00    +0.000 NA
ATOM     24  C   UNL     1      43.483   6.582  11.247  0.00  0.00    +0.000 A 
ATOM     25  N   UNL     1      44.558   7.346  11.413  0.00  0.00    +0.000 NA
ATOM     26  C   UNL     1      45.459   6.811  12.253  0.00  0.00    +0.000 A 
ATOM     27  S   UNL     1      46.890   7.654  12.589  0.00  0.00    +0.000 S 
ATOM     28  C   UNL     1      47.435   6.419  13.618  0.00  0.00    +0.000 A 
ATOM     29  C   UNL     1      46.556   5.348  13.732  0.00  0.00    +0.000 A 
ATOM     30  C   UNL     1      45.363   5.591  12.923  0.00  0.00    +0.000 A 
BRANCH  22  32
ATOM     31  C   UNL     1      43.551   2.684  12.334  0.00  0.00    +0.000 C 
ATOM     32  O   UNL     1      43.901   3.696  13.278  0.00  0.00    +0.000 OA
ENDBRANCH  22  32
ENDBRANCH  18  29
ENDBRANCH   1  20
TORSDOF 8
ENDMDL
