MODEL 1
REMARK VINA RESULT:    -7.943      0.000      0.000
REMARK INTER + INTRA:         -11.629
REMARK INTER:                 -11.425
REMARK INTRA:                  -0.203
REMARK UNBOUND:                -0.203
REMARK  Name = 
REMARK  8 active torsions:
REMARK  status: ('A' for Active; 'I' for Inactive)
REMARK    1  A    between atoms: C_2  and  C_3
REMARK    2  A    between atoms: N_7  and  C_8
REMARK    3  A    between atoms: C_8  and  C_9
REMARK    4  A    between atoms: C_9  and  C_10
REMARK    5  A    between atoms: C_9  and  C_12
REMARK    6  A    between atoms: C_10  and  O_11
REMARK    7  A    between atoms: C_14  and  S_15
REMARK    8  A    between atoms: S_15  and  C_16
REMARK                            x       y       z     vdW  Elec       q    Type
REMARK                         _______ _______ _______ _____ _____    ______ ____
ROOT
ATOM      1  C   UNL     1      44.035   4.990  12.301  0.00  0.00    +0.000 C 
ENDROOT
BRANCH   1   2
ATOM      2  C   UNL     1      45.432   5.564  12.532  0.00  0.00    +0.000 A 
ATOM      3  C   UNL     1      46.112   5.360  13.751  0.00  0.00    +0.000 A 
ATOM      4  C   UNL     1      47.382   5.917  13.974  0.00  0.00    +0.000 A 
ATOM      5  C   UNL     1      47.985   6.680  12.967  0.00  0.00    +0.000 A 
ATOM      6  C   UNL     1      47.325   6.889  11.757  0.00  0.00    +0.000 A 
ATOM      7  C   UNL     1      46.071   6.329  11.547  0.00  0.00    +0.000 A 
ATOM      8  F   UNL     1      45.472   6.538  10.367  0.00  0.00    +0.000 F 
BRANCH   4   9
ATOM      9  S   UNL     1      48.312   5.544  15.449  0.00  0.00    +0.000 S 
BRANCH   9  10
ATOM     10  C   UNL     1      47.243   4.260  16.183  0.00  0.00    +0.000 C 
ATOM     11  C   UNL     1      47.181   4.265  17.715  0.00  0.00    +0.000 C 
ATOM     12  O   UNL     1      47.525   2.852  17.760  0.00  0.00    +0.000 OA
ATOM     13  C   UNL     1      47.993   2.931  16.385  0.00  0.00    +0.000 C 
ENDBRANCH   9  10
ENDBRANCH   4   9
ENDBRANCH   1   2
BRANCH   1  14
ATOM     14  C   UNL     1      43.699   5.013  10.789  0.00  0.00    +0.000 C 
BRANCH  14  19
ATOM     15  C   UNL     1      46.600   2.496   7.481  0.00  0.00    +0.000 A 
ATOM     16  C   UNL     1      46.203   3.826   7.486  0.00  0.00    +0.000 A 
ATOM     17  C   UNL     1      45.240   4.247   8.402  0.00  0.00    +0.000 A 
ATOM     18  C   UNL     1      44.703   3.339   9.316  0.00  0.00    +0.000 A 
ATOM     19  N   UNL     1      43.686   3.678  10.201  0.00  0.00    +0.000 N 
ATOM     20  N   UNL     1      45.096   2.052   9.328  0.00  0.00    +0.000 NA
ATOM     21  C   UNL     1      46.020   1.654   8.417  0.00  0.00    +0.000 A 
ATOM     22  H   UNL     1      43.623   2.919  10.886  0.00  0.00    +0.000 HD
BRANCH  15  24
ATOM     23  N   UNL     1      48.314   1.592   5.765  0.00  0.00    +0.000 NA
ATOM     24  C   UNL     1      47.546   2.008   6.530  0.00  0.00    +0.000 C 
ENDBRANCH  15  24
ENDBRANCH  14  19
ENDBRANCH   1  14
BRANCH   1  25
ATOM     25  C   UNL     1      43.889   3.580  12.904  0.00  0.00    +0.000 C 
BRANCH  25  26
ATOM     26  O   UNL     1      44.967   2.729  12.516  0.00  0.00    +0.000 OA
ATOM     27  H   UNL     1      45.368   3.100  11.711  0.00  0.00    +0.000 HD
ENDBRANCH  25  26
ENDBRANCH   1  25
TORSDOF 8
ENDMDL
MODEL 2
REMARK VINA RESULT:    -7.757      1.754      2.121
REMARK INTER + INTRA:         -11.361
REMARK INTER:                 -10.748
REMARK INTRA:                  -0.613
REMARK UNBOUND:                -0.203
REMARK  Name = 
REMARK  8 active torsions:
REMARK  status: ('A' for Active; 'I' for Inactive)
REMARK    1  A    between atoms: C_2  and  C_3
REMARK    2  A    between atoms: N_7  and  C_8
REMARK    3  A    between atoms: C_8  and  C_9
REMARK    4  A    between atoms: C_9  and  C_10
REMARK    5  A    between atoms: C_9  and  C_12
REMARK    6  A    between atoms: C_10  and  O_11
REMARK    7  A    between atoms: C_14  and  S_15
REMARK    8  A    between atoms: S_15  and  C_16
REMARK                            x       y       z     vdW  Elec       q    Type
REMARK                         _______ _______ _______ _____ _____    ______ ____
ROOT
ATOM      1  C   UNL     1      44.300   4.867  12.017  0.00  0.00    +0.000 C 
ENDROOT
BRANCH   1   2
ATOM      2  C   UNL     1      45.198   6.101  12.073  0.00  0.00    +0.000 A 
ATOM      3  C   UNL     1      46.547   6.004  12.474  0.00  0.00    +0.000 A 
ATOM      4  C   UNL     1      47.362   7.146  12.556  0.00  0.00    +0.000 A 
ATOM      5  C   UNL     1      46.828   8.398  12.229  0.00  0.00    +0.000 A 
ATOM      6  C   UNL     1      45.497   8.508  11.830  0.00  0.00    +0.000 A 
ATOM      7  C   UNL     1      44.702   7.371  11.748  0.00  0.00    +0.000 A 
ATOM      8  F   UNL     1      43.431   7.512  11.347  0.00  0.00    +0.000 F 
BRANCH   4   9
ATOM      9  S   UNL     1      49.103   7.017  12.916  0.00  0.00    +0.000 S 
BRANCH   9  10
ATOM     10  C   UNL     1      49.097   7.468  14.685  0.00  0.00    +0.000 C 
ATOM     11  C   UNL     1      50.440   7.294  15.404  0.00  0.00    +0.000 C 
ATOM     12  O   UNL     1      49.810   6.493  16.443  0.00  0.00    +0.000 OA
ATOM     13  C   UNL     1      48.657   6.295  15.578  0.00  0.00    +0.000 C 
ENDBRANCH   9  10
ENDBRANCH   4   9
ENDBRANCH   1   2
BRANCH   1  14
ATOM     14  C   UNL     1      43.655   4.747  10.614  0.00  0.00    +0.000 C 
BRANCH  14  19
ATOM     15  C   UNL     1      46.690   2.439   7.274  0.00  0.00    +0.000 A 
ATOM     16  C   UNL     1      46.156   3.720   7.256  0.00  0.00    +0.000 A 
ATOM     17  C   UNL     1      45.186   4.068   8.194  0.00  0.00    +0.000 A 
ATOM     18  C   UNL     1      44.779   3.139   9.153  0.00  0.00    +0.000 A 
ATOM     19  N   UNL     1      43.762   3.399  10.065  0.00  0.00    +0.000 N 
ATOM     20  N   UNL     1      45.305   1.901   9.188  0.00  0.00    +0.000 NA
ATOM     21  C   UNL     1      46.235   1.572   8.255  0.00  0.00    +0.000 A 
ATOM     22  H   UNL     1      43.803   2.660  10.774  0.00  0.00    +0.000 HD
BRANCH  15  24
ATOM     23  N   UNL     1      48.440   1.672   5.528  0.00  0.00    +0.000 NA
ATOM     24  C   UNL     1      47.650   2.022   6.303  0.00  0.00    +0.000 C 
ENDBRANCH  15  24
ENDBRANCH  14  19
ENDBRANCH   1  14
BRANCH   1  25
ATOM     25  C   UNL     1      45.060   3.587  12.415  0.00  0.00    +0.000 C 
BRANCH  25  26
ATOM     26  O   UNL     1      44.166   2.513  12.704  0.00  0.00    +0.000 OA
ATOM     27  H   UNL     1      44.059   1.985  11.893  0.00  0.00    +0.000 HD
ENDBRANCH  25  26
ENDBRANCH   1  25
TORSDOF 8
ENDMDL
MODEL 3
REMARK VINA RESULT:    -7.709      2.439      3.516
REMARK INTER + INTRA:         -11.293
REMARK INTER:                 -10.585
REMARK INTRA:                  -0.707
REMARK UNBOUND:                -0.203
REMARK  Name = 
REMARK  8 active torsions:
REMARK  status: ('A' for Active; 'I' for Inactive)
REMARK    1  A    between atoms: C_2  and  C_3
REMARK    2  A    between atoms: N_7  and  C_8
REMARK    3  A    between atoms: C_8  and  C_9
REMARK    4  A    between atoms: C_9  and  C_10
REMARK    5  A    between atoms: C_9  and  C_12
REMARK    6  A    between atoms: C_10  and  O_11
REMARK    7  A    between atoms: C_14  and  S_15
REMARK    8  A    between atoms: S_15  and  C_16
REMARK                            x       y       z     vdW  Elec       q    Type
REMARK                         _______ _______ _______ _____ _____    ______ ____
ROOT
ATOM      1  C   UNL     1      44.169   4.739  11.874  0.00  0.00    +0.000 C 
ENDROOT
BRANCH   1   2
ATOM      2  C   UNL     1      45.045   5.987  11.969  0.00  0.00    +0.000 A 
ATOM      3  C   UNL     1      46.387   5.905  12.394  0.00  0.00    +0.000 A 
ATOM      4  C   UNL     1      47.180   7.059  12.511  0.00  0.00    +0.000 A 
ATOM      5  C   UNL     1      46.632   8.307  12.196  0.00  0.00    +0.000 A 
ATOM      6  C   UNL     1      45.306   8.402  11.774  0.00  0.00    +0.000 A 
ATOM      7  C   UNL     1      44.533   7.254  11.656  0.00  0.00    +0.000 A 
ATOM      8  F   UNL     1      43.268   7.380  11.234  0.00  0.00    +0.000 F 
BRANCH   4   9
ATOM      9  S   UNL     1      48.917   6.953  12.903  0.00  0.00    +0.000 S 
BRANCH   9  10
ATOM     10  C   UNL     1      49.603   8.034  11.602  0.00  0.00    +0.000 C 
ATOM     11  C   UNL     1      50.995   7.638  11.096  0.00  0.00    +0.000 C 
ATOM     12  O   UNL     1      51.495   8.983  11.339  0.00  0.00    +0.000 OA
ATOM     13  C   UNL     1      50.346   9.246  12.192  0.00  0.00    +0.000 C 
ENDBRANCH   9  10
ENDBRANCH   4   9
ENDBRANCH   1   2
BRANCH   1  14
ATOM     14  C   UNL     1      43.597   4.602  10.442  0.00  0.00    +0.000 C 
BRANCH  14  19
ATOM     15  C   UNL     1      46.762   2.422   7.137  0.00  0.00    +0.000 A 
ATOM     16  C   UNL     1      46.172   3.678   7.109  0.00  0.00    +0.000 A 
ATOM     17  C   UNL     1      45.178   3.985   8.038  0.00  0.00    +0.000 A 
ATOM     18  C   UNL     1      44.804   3.042   8.996  0.00  0.00    +0.000 A 
ATOM     19  N   UNL     1      43.769   3.259   9.899  0.00  0.00    +0.000 N 
ATOM     20  N   UNL     1      45.385   1.829   9.040  0.00  0.00    +0.000 NA
ATOM     21  C   UNL     1      46.336   1.539   8.116  0.00  0.00    +0.000 A 
ATOM     22  H   UNL     1      43.836   2.525  10.610  0.00  0.00    +0.000 HD
BRANCH  15  24
ATOM     23  N   UNL     1      48.544   1.755   5.382  0.00  0.00    +0.000 NA
ATOM     24  C   UNL     1      47.747   2.045   6.175  0.00  0.00    +0.000 C 
ENDBRANCH  15  24
ENDBRANCH  14  19
ENDBRANCH   1  14
BRANCH   1  25
ATOM     25  C   UNL     1      44.928   3.472  12.317  0.00  0.00    +0.000 C 
BRANCH  25  26
ATOM     26  O   UNL     1      44.032   2.402  12.618  0.00  0.00    +0.000 OA
ATOM     27  H   UNL     1      43.749   2.500  13.545  0.00  0.00    +0.000 HD
ENDBRANCH  25  26
ENDBRANCH   1  25
TORSDOF 8
ENDMDL
MODEL 4
REMARK VINA RESULT:    -7.555      3.122      4.793
REMARK INTER + INTRA:         -11.070
REMARK INTER:                 -11.140
REMARK INTRA:                   0.070
REMARK UNBOUND:                -0.203
REMARK  Name = 
REMARK  8 active torsions:
REMARK  status: ('A' for Active; 'I' for Inactive)
REMARK    1  A    between atoms: C_2  and  C_3
REMARK    2  A    between atoms: N_7  and  C_8
REMARK    3  A    between atoms: C_8  and  C_9
REMARK    4  A    between atoms: C_9  and  C_10
REMARK    5  A    between atoms: C_9  and  C_12
REMARK    6  A    between atoms: C_10  and  O_11
REMARK    7  A    between atoms: C_14  and  S_15
REMARK    8  A    between atoms: S_15  and  C_16
REMARK                            x       y       z     vdW  Elec       q    Type
REMARK                         _______ _______ _______ _____ _____    ______ ____
ROOT
ATOM      1  C   UNL     1      44.513   4.984  12.226  0.00  0.00    +0.000 C 
ENDROOT
BRANCH   1   2
ATOM      2  C   UNL     1      45.361   6.240  12.413  0.00  0.00    +0.000 A 
ATOM      3  C   UNL     1      44.887   7.507  12.012  0.00  0.00    +0.000 A 
ATOM      4  C   UNL     1      45.683   8.656  12.155  0.00  0.00    +0.000 A 
ATOM      5  C   UNL     1      46.963   8.543  12.709  0.00  0.00    +0.000 A 
ATOM      6  C   UNL     1      47.444   7.297  13.110  0.00  0.00    +0.000 A 
ATOM      7  C   UNL     1      46.646   6.169  12.968  0.00  0.00    +0.000 A 
ATOM      8  F   UNL     1      47.134   4.990  13.378  0.00  0.00    +0.000 F 
BRANCH   4   9
ATOM      9  S   UNL     1      45.040  10.279  11.792  0.00  0.00    +0.000 S 
BRANCH   9  10
ATOM     10  C   UNL     1      43.704   9.840  10.629  0.00  0.00    +0.000 C 
ATOM     11  C   UNL     1      43.654  10.683   9.349  0.00  0.00    +0.000 C 
ATOM     12  O   UNL     1      42.250  10.989   9.574  0.00  0.00    +0.000 OA
ATOM     13  C   UNL     1      42.389  10.568  10.959  0.00  0.00    +0.000 C 
ENDBRANCH   9  10
ENDBRANCH   4   9
ENDBRANCH   1   2
BRANCH   1  14
ATOM     14  C   UNL     1      43.774   5.044  10.866  0.00  0.00    +0.000 C 
BRANCH  14  19
ATOM     15  C   UNL     1      46.611   2.511   7.516  0.00  0.00    +0.000 A 
ATOM     16  C   UNL     1      46.294   3.861   7.574  0.00  0.00    +0.000 A 
ATOM     17  C   UNL     1      45.332   4.297   8.485  0.00  0.00    +0.000 A 
ATOM     18  C   UNL     1      44.717   3.382   9.340  0.00  0.00    +0.000 A 
ATOM     19  N   UNL     1      43.698   3.740  10.215  0.00  0.00    +0.000 N 
ATOM     20  N   UNL     1      45.033   2.074   9.302  0.00  0.00    +0.000 NA
ATOM     21  C   UNL     1      45.957   1.663   8.396  0.00  0.00    +0.000 A 
ATOM     22  H   UNL     1      43.571   2.956  10.862  0.00  0.00    +0.000 HD
BRANCH  15  24
ATOM     23  N   UNL     1      48.324   1.624   5.790  0.00  0.00    +0.000 NA
ATOM     24  C   UNL     1      47.553   2.011   6.566  0.00  0.00    +0.000 C 
ENDBRANCH  15  24
ENDBRANCH  14  19
ENDBRANCH   1  14
BRANCH   1  25
ATOM     25  C   UNL     1      45.352   3.700  12.371  0.00  0.00    +0.000 C 
BRANCH  25  26
ATOM     26  O   UNL     1      44.530   2.560  12.620  0.00  0.00    +0.000 OA
ATOM     27  H   UNL     1      43.703   2.871  13.031  0.00  0.00    +0.000 HD
ENDBRANCH  25  26
ENDBRANCH   1  25
TORSDOF 8
ENDMDL
MODEL 5
REMARK VINA RESULT:    -7.480      4.088      7.149
REMARK INTER + INTRA:         -10.963
REMARK INTER:                 -10.172
REMARK INTRA:                  -0.791
REMARK UNBOUND:                -0.203
REMARK  Name = 
REMARK  8 active torsions:
REMARK  status: ('A' for Active; 'I' for Inactive)
REMARK    1  A    between atoms: C_2  and  C_3
REMARK    2  A    between atoms: N_7  and  C_8
REMARK    3  A    between atoms: C_8  and  C_9
REMARK    4  A    between atoms: C_9  and  C_10
REMARK    5  A    between atoms: C_9  and  C_12
REMARK    6  A    between atoms: C_10  and  O_11
REMARK    7  A    between atoms: C_14  and  S_15
REMARK    8  A    between atoms: S_15  and  C_16
REMARK                            x       y       z     vdW  Elec       q    Type
REMARK                         _______ _______ _______ _____ _____    ______ ____
ROOT
ATOM      1  C   UNL     1      43.720   5.207  12.013  0.00  0.00    +0.000 C 
ENDROOT
BRANCH   1   2
ATOM      2  C   UNL     1      44.159   4.223  10.929  0.00  0.00    +0.000 A 
ATOM      3  C   UNL     1      44.942   4.645   9.835  0.00  0.00    +0.000 A 
ATOM      4  C   UNL     1      45.317   3.745   8.823  0.00  0.00    +0.000 A 
ATOM      5  C   UNL     1      44.911   2.408   8.906  0.00  0.00    +0.000 A 
ATOM      6  C   UNL     1      44.137   1.978   9.982  0.00  0.00    +0.000 A 
ATOM      7  C   UNL     1      43.777   2.876  10.979  0.00  0.00    +0.000 A 
ATOM      8  F   UNL     1      43.045   2.424  12.007  0.00  0.00    +0.000 F 
BRANCH   4   9
ATOM      9  S   UNL     1      46.428   4.231   7.516  0.00  0.00    +0.000 S 
BRANCH   9  10
ATOM     10  C   UNL     1      46.623   2.634   6.654  0.00  0.00    +0.000 C 
ATOM     11  C   UNL     1      47.916   1.876   6.975  0.00  0.00    +0.000 C 
ATOM     12  O   UNL     1      48.226   1.751   5.559  0.00  0.00    +0.000 OA
ATOM     13  C   UNL     1      47.265   2.802   5.265  0.00  0.00    +0.000 C 
ENDBRANCH   9  10
ENDBRANCH   4   9
ENDBRANCH   1   2
BRANCH   1  14
ATOM     14  C   UNL     1      44.803   6.297  12.206  0.00  0.00    +0.000 C 
BRANCH  14  19
ATOM     15  C   UNL     1      49.637   7.729  12.723  0.00  0.00    +0.000 A 
ATOM     16  C   UNL     1      48.827   7.720  11.596  0.00  0.00    +0.000 A 
ATOM     17  C   UNL     1      47.581   7.096  11.658  0.00  0.00    +0.000 A 
ATOM     18  C   UNL     1      47.152   6.511  12.850  0.00  0.00    +0.000 A 
ATOM     19  N   UNL     1      45.957   5.809  12.954  0.00  0.00    +0.000 N 
ATOM     20  N   UNL     1      47.925   6.531  13.951  0.00  0.00    +0.000 NA
ATOM     21  C   UNL     1      49.144   7.125  13.869  0.00  0.00    +0.000 A 
ATOM     22  H   UNL     1      45.780   5.669  13.953  0.00  0.00    +0.000 HD
BRANCH  15  24
ATOM     23  N   UNL     1      51.993   8.800  12.681  0.00  0.00    +0.000 NA
ATOM     24  C   UNL     1      50.941   8.310  12.694  0.00  0.00    +0.000 C 
ENDBRANCH  15  24
ENDBRANCH  14  19
ENDBRANCH   1  14
BRANCH   1  25
ATOM     25  C   UNL     1      42.337   5.814  11.708  0.00  0.00    +0.000 C 
BRANCH  25  26
ATOM     26  O   UNL     1      42.450   7.100  11.100  0.00  0.00    +0.000 OA
ATOM     27  H   UNL     1      42.021   7.059  10.227  0.00  0.00    +0.000 HD
ENDBRANCH  25  26
ENDBRANCH   1  25
TORSDOF 8
ENDMDL
MODEL 6
REMARK VINA RESULT:    -7.274      3.949      7.562
REMARK INTER + INTRA:         -10.666
REMARK INTER:                  -9.918
REMARK INTRA:                  -0.749
REMARK UNBOUND:                -0.203
REMARK  Name = 
REMARK  8 active torsions:
REMARK  status: ('A' for Active; 'I' for Inactive)
REMARK    1  A    between atoms: C_2  and  C_3
REMARK    2  A    between atoms: N_7  and  C_8
REMARK    3  A    between atoms: C_8  and  C_9
REMARK    4  A    between atoms: C_9  and  C_10
REMARK    5  A    between atoms: C_9  and  C_12
REMARK    6  A    between atoms: C_10  and  O_11
REMARK    7  A    between atoms: C_14  and  S_15
REMARK    8  A    between atoms: S_15  and  C_16
REMARK                            x       y       z     vdW  Elec       q    Type
REMARK                         _______ _______ _______ _____ _____    ______ ____
ROOT
ATOM      1  C   UNL     1      45.380   6.308  12.016  0.00  0.00    +0.000 C 
ENDROOT
BRANCH   1   2
ATOM      2  C   UNL     1      44.969   5.045  11.263  0.00  0.00    +0.000 A 
ATOM      3  C   UNL     1      45.259   4.886   9.891  0.00  0.00    +0.000 A 
ATOM      4  C   UNL     1      44.850   3.738   9.193  0.00  0.00    +0.000 A 
ATOM      5  C   UNL     1      44.150   2.732   9.870  0.00  0.00    +0.000 A 
ATOM      6  C   UNL     1      43.857   2.876  11.226  0.00  0.00    +0.000 A 
ATOM      7  C   UNL     1      44.270   4.014  11.907  0.00  0.00    +0.000 A 
ATOM      8  F   UNL     1      43.985   4.113  13.212  0.00  0.00    +0.000 F 
BRANCH   4   9
ATOM      9  S   UNL     1      45.340   3.459   7.501  0.00  0.00    +0.000 S 
BRANCH   9  10
ATOM     10  C   UNL     1      46.904   2.557   7.767  0.00  0.00    +0.000 C 
ATOM     11  C   UNL     1      47.817   2.465   6.538  0.00  0.00    +0.000 C 
ATOM     12  O   UNL     1      47.906   1.020   6.680  0.00  0.00    +0.000 OA
ATOM     13  C   UNL     1      46.742   1.042   7.551  0.00  0.00    +0.000 C 
ENDBRANCH   9  10
ENDBRANCH   4   9
ENDBRANCH   1   2
BRANCH   1  14
ATOM     14  C   UNL     1      46.922   6.365  12.149  0.00  0.00    +0.000 C 
BRANCH  14  19
ATOM     15  C   UNL     1      48.149   4.379  16.648  0.00  0.00    +0.000 A 
ATOM     16  C   UNL     1      47.152   4.012  15.755  0.00  0.00    +0.000 A 
ATOM     17  C   UNL     1      46.880   4.834  14.662  0.00  0.00    +0.000 A 
ATOM     18  C   UNL     1      47.623   5.999  14.463  0.00  0.00    +0.000 A 
ATOM     19  N   UNL     1      47.350   6.898  13.439  0.00  0.00    +0.000 N 
ATOM     20  N   UNL     1      48.603   6.351  15.316  0.00  0.00    +0.000 NA
ATOM     21  C   UNL     1      48.842   5.550  16.385  0.00  0.00    +0.000 A 
ATOM     22  H   UNL     1      48.148   7.537  13.384  0.00  0.00    +0.000 HD
BRANCH  15  24
ATOM     23  N   UNL     1      48.669   2.974  18.759  0.00  0.00    +0.000 NA
ATOM     24  C   UNL     1      48.430   3.595  17.808  0.00  0.00    +0.000 C 
ENDBRANCH  15  24
ENDBRANCH  14  19
ENDBRANCH   1  14
BRANCH   1  25
ATOM     25  C   UNL     1      44.809   7.579  11.356  0.00  0.00    +0.000 C 
BRANCH  25  26
ATOM     26  O   UNL     1      43.411   7.454  11.099  0.00  0.00    +0.000 OA
ATOM     27  H   UNL     1      43.076   8.329  10.832  0.00  0.00    +0.000 HD
ENDBRANCH  25  26
ENDBRANCH   1  25
TORSDOF 8
ENDMDL
MODEL 7
REMARK VINA RESULT:    -7.095      2.769      3.909
REMARK INTER + INTRA:         -10.409
REMARK INTER:                  -9.749
REMARK INTRA:                  -0.660
REMARK UNBOUND:                -0.203
REMARK  Name = 
REMARK  8 active torsions:
REMARK  status: ('A' for Active; 'I' for Inactive)
REMARK    1  A    between atoms: C_2  and  C_3
REMARK    2  A    between atoms: N_7  and  C_8
REMARK    3  A    between atoms: C_8  and  C_9
REMARK    4  A    between atoms: C_9  and  C_10
REMARK    5  A    between atoms: C_9  and  C_12
REMARK    6  A    between atoms: C_10  and  O_11
REMARK    7  A    between atoms: C_14  and  S_15
REMARK    8  A    between atoms: S_15  and  C_16
REMARK                            x       y       z     vdW  Elec       q    Type
REMARK                         _______ _______ _______ _____ _____    ______ ____
ROOT
ATOM      1  C   UNL     1      44.942   4.783  12.464  0.00  0.00    +0.000 C 
ENDROOT
BRANCH   1   2
ATOM      2  C   UNL     1      46.147   5.608  12.910  0.00  0.00    +0.000 A 
ATOM      3  C   UNL     1      46.635   6.671  12.123  0.00  0.00    +0.000 A 
ATOM      4  C   UNL     1      47.764   7.407  12.519  0.00  0.00    +0.000 A 
ATOM      5  C   UNL     1      48.411   7.084  13.718  0.00  0.00    +0.000 A 
ATOM      6  C   UNL     1      47.938   6.036  14.507  0.00  0.00    +0.000 A 
ATOM      7  C   UNL     1      46.818   5.319  14.107  0.00  0.00    +0.000 A 
ATOM      8  F   UNL     1      46.383   4.328  14.896  0.00  0.00    +0.000 F 
BRANCH   4   9
ATOM      9  S   UNL     1      48.300   8.844  11.610  0.00  0.00    +0.000 S 
BRANCH   9  10
ATOM     10  C   UNL     1      50.097   8.762  11.912  0.00  0.00    +0.000 C 
ATOM     11  C   UNL     1      50.944   9.714  11.060  0.00  0.00    +0.000 C 
ATOM     12  O   UNL     1      51.790   8.615  10.624  0.00  0.00    +0.000 OA
ATOM     13  C   UNL     1      50.776   7.670  11.066  0.00  0.00    +0.000 C 
ENDBRANCH   9  10
ENDBRANCH   4   9
ENDBRANCH   1   2
BRANCH   1  14
ATOM     14  C   UNL     1      44.500   5.219  11.045  0.00  0.00    +0.000 C 
BRANCH  14  19
ATOM     15  C   UNL     1      46.765   2.723   7.260  0.00  0.00    +0.000 A 
ATOM     16  C   UNL     1      46.741   4.081   7.542  0.00  0.00    +0.000 A 
ATOM     17  C   UNL     1      45.885   4.557   8.535  0.00  0.00    +0.000 A 
ATOM     18  C   UNL     1      45.083   3.665   9.249  0.00  0.00    +0.000 A 
ATOM     19  N   UNL     1      44.155   4.083  10.196  0.00  0.00    +0.000 N 
ATOM     20  N   UNL     1      45.114   2.344   8.993  0.00  0.00    +0.000 NA
ATOM     21  C   UNL     1      45.939   1.900   8.009  0.00  0.00    +0.000 A 
ATOM     22  H   UNL     1      43.860   3.249  10.712  0.00  0.00    +0.000 HD
BRANCH  15  24
ATOM     23  N   UNL     1      48.258   1.751   5.382  0.00  0.00    +0.000 NA
ATOM     24  C   UNL     1      47.588   2.196   6.218  0.00  0.00    +0.000 C 
ENDBRANCH  15  24
ENDBRANCH  14  19
ENDBRANCH   1  14
BRANCH   1  25
ATOM     25  C   UNL     1      45.223   3.270  12.543  0.00  0.00    +0.000 C 
BRANCH  25  26
ATOM     26  O   UNL     1      44.016   2.516  12.647  0.00  0.00    +0.000 OA
ATOM     27  H   UNL     1      43.385   2.868  11.995  0.00  0.00    +0.000 HD
ENDBRANCH  25  26
ENDBRANCH   1  25
TORSDOF 8
ENDMDL
MODEL 8
REMARK VINA RESULT:    -6.841      3.953      7.663
REMARK INTER + INTRA:         -10.044
REMARK INTER:                  -9.826
REMARK INTRA:                  -0.219
REMARK UNBOUND:                -0.203
REMARK  Name = 
REMARK  8 active torsions:
REMARK  status: ('A' for Active; 'I' for Inactive)
REMARK    1  A    between atoms: C_2  and  C_3
REMARK    2  A    between atoms: N_7  and  C_8
REMARK    3  A    between atoms: C_8  and  C_9
REMARK    4  A    between atoms: C_9  and  C_10
REMARK    5  A    between atoms: C_9  and  C_12
REMARK    6  A    between atoms: C_10  and  O_11
REMARK    7  A    between atoms: C_14  and  S_15
REMARK    8  A    between atoms: S_15  and  C_16
REMARK                            x       y       z     vdW  Elec       q    Type
REMARK                         _______ _______ _______ _____ _____    ______ ____
ROOT
ATOM      1  C   UNL     1      44.460   4.018  12.682  0.00  0.00    +0.000 C 
ENDROOT
BRANCH   1   2
ATOM      2  C   UNL     1      44.987   4.433  11.309  0.00  0.00    +0.000 A 
ATOM      3  C   UNL     1      44.959   3.542  10.217  0.00  0.00    +0.000 A 
ATOM      4  C   UNL     1      45.474   3.915   8.964  0.00  0.00    +0.000 A 
ATOM      5  C   UNL     1      46.018   5.194   8.797  0.00  0.00    +0.000 A 
ATOM      6  C   UNL     1      46.051   6.086   9.868  0.00  0.00    +0.000 A 
ATOM      7  C   UNL     1      45.534   5.707  11.100  0.00  0.00    +0.000 A 
ATOM      8  F   UNL     1      45.568   6.594  12.104  0.00  0.00    +0.000 F 
BRANCH   4   9
ATOM      9  S   UNL     1      45.310   2.854   7.541  0.00  0.00    +0.000 S 
BRANCH   9  10
ATOM     10  C   UNL     1      47.002   2.964   6.864  0.00  0.00    +0.000 C 
ATOM     11  C   UNL     1      47.132   2.607   5.379  0.00  0.00    +0.000 C 
ATOM     12  O   UNL     1      48.187   1.651   5.674  0.00  0.00    +0.000 OA
ATOM     13  C   UNL     1      47.794   1.661   7.074  0.00  0.00    +0.000 C 
ENDBRANCH   9  10
ENDBRANCH   4   9
ENDBRANCH   1   2
BRANCH   1  14
ATOM     14  C   UNL     1      45.397   4.556  13.791  0.00  0.00    +0.000 C 
BRANCH  14  19
ATOM     15  C   UNL     1      49.057   4.204  17.280  0.00  0.00    +0.000 A 
ATOM     16  C   UNL     1      48.438   5.327  16.749  0.00  0.00    +0.000 A 
ATOM     17  C   UNL     1      47.587   5.182  15.653  0.00  0.00    +0.000 A 
ATOM     18  C   UNL     1      47.349   3.916  15.118  0.00  0.00    +0.000 A 
ATOM     19  N   UNL     1      46.575   3.715  13.981  0.00  0.00    +0.000 N 
ATOM     20  N   UNL     1      47.933   2.821  15.638  0.00  0.00    +0.000 NA
ATOM     21  C   UNL     1      48.773   2.981  16.693  0.00  0.00    +0.000 A 
ATOM     22  H   UNL     1      46.386   2.710  13.923  0.00  0.00    +0.000 HD
BRANCH  15  24
ATOM     23  N   UNL     1      50.704   4.389  19.268  0.00  0.00    +0.000 NA
ATOM     24  C   UNL     1      49.974   4.308  18.369  0.00  0.00    +0.000 C 
ENDBRANCH  15  24
ENDBRANCH  14  19
ENDBRANCH   1  14
BRANCH   1  25
ATOM     25  C   UNL     1      43.000   4.463  12.893  0.00  0.00    +0.000 C 
BRANCH  25  26
ATOM     26  O   UNL     1      42.925   5.795  13.399  0.00  0.00    +0.000 OA
ATOM     27  H   UNL     1      43.783   6.226  13.239  0.00  0.00    +0.000 HD
ENDBRANCH  25  26
ENDBRANCH   1  25
TORSDOF 8
ENDMDL
MODEL 9
REMARK VINA RESULT:    -6.737      4.290      7.949
REMARK INTER + INTRA:          -9.895
REMARK INTER:                  -9.099
REMARK INTRA:                  -0.796
REMARK UNBOUND:                -0.203
REMARK  Name = 
REMARK  8 active torsions:
REMARK  status: ('A' for Active; 'I' for Inactive)
REMARK    1  A    between atoms: C_2  and  C_3
REMARK    2  A    between atoms: N_7  and  C_8
REMARK    3  A    between atoms: C_8  and  C_9
REMARK    4  A    between atoms: C_9  and  C_10
REMARK    5  A    between atoms: C_9  and  C_12
REMARK    6  A    between atoms: C_10  and  O_11
REMARK    7  A    between atoms: C_14  and  S_15
REMARK    8  A    between atoms: S_15  and  C_16
REMARK                            x       y       z     vdW  Elec       q    Type
REMARK                         _______ _______ _______ _____ _____    ______ ____
ROOT
ATOM      1  C   UNL     1      45.763   6.395  12.001  0.00  0.00    +0.000 C 
ENDROOT
BRANCH   1   2
ATOM      2  C   UNL     1      45.270   5.143  11.279  0.00  0.00    +0.000 A 
ATOM      3  C   UNL     1      45.467   4.975   9.892  0.00  0.00    +0.000 A 
ATOM      4  C   UNL     1      44.983   3.838   9.224  0.00  0.00    +0.000 A 
ATOM      5  C   UNL     1      44.301   2.853   9.947  0.00  0.00    +0.000 A 
ATOM      6  C   UNL     1      44.099   3.005  11.318  0.00  0.00    +0.000 A 
ATOM      7  C   UNL     1      44.587   4.132  11.969  0.00  0.00    +0.000 A 
ATOM      8  F   UNL     1      44.388   4.239  13.290  0.00  0.00    +0.000 F 
BRANCH   4   9
ATOM      9  S   UNL     1      45.355   3.545   7.505  0.00  0.00    +0.000 S 
BRANCH   9  10
ATOM     10  C   UNL     1      46.964   2.700   7.666  0.00  0.00    +0.000 C 
ATOM     11  C   UNL     1      47.710   2.464   6.347  0.00  0.00    +0.000 C 
ATOM     12  O   UNL     1      47.856   1.050   6.652  0.00  0.00    +0.000 OA
ATOM     13  C   UNL     1      46.816   1.168   7.662  0.00  0.00    +0.000 C 
ENDBRANCH   9  10
ENDBRANCH   4   9
ENDBRANCH   1   2
BRANCH   1  14
ATOM     14  C   UNL     1      47.229   6.692  11.600  0.00  0.00    +0.000 C 
BRANCH  14  19
ATOM     15  C   UNL     1      48.778   8.281  16.157  0.00  0.00    +0.000 A 
ATOM     16  C   UNL     1      48.471   9.011  15.017  0.00  0.00    +0.000 A 
ATOM     17  C   UNL     1      48.251   8.337  13.816  0.00  0.00    +0.000 A 
ATOM     18  C   UNL     1      48.319   6.944  13.775  0.00  0.00    +0.000 A 
ATOM     19  N   UNL     1      48.186   6.220  12.596  0.00  0.00    +0.000 N 
ATOM     20  N   UNL     1      48.599   6.230  14.881  0.00  0.00    +0.000 NA
ATOM     21  C   UNL     1      48.829   6.902  16.038  0.00  0.00    +0.000 A 
ATOM     22  H   UNL     1      48.064   5.238  12.862  0.00  0.00    +0.000 HD
BRANCH  15  24
ATOM     23  N   UNL     1      49.309   9.450  18.405  0.00  0.00    +0.000 NA
ATOM     24  C   UNL     1      49.060   8.929  17.398  0.00  0.00    +0.000 C 
ENDBRANCH  15  24
ENDBRANCH  14  19
ENDBRANCH   1  14
BRANCH   1  25
ATOM     25  C   UNL     1      44.839   7.602  11.750  0.00  0.00    +0.000 C 
BRANCH  25  26
ATOM     26  O   UNL     1      44.878   8.528  12.835  0.00  0.00    +0.000 OA
ATOM     27  H   UNL     1      44.504   8.088  13.619  0.00  0.00    +0.000 HD
ENDBRANCH  25  26
ENDBRANCH   1  25
TORSDOF 8
ENDMDL
