MODEL 1
REMARK VINA RESULT:    -7.339      0.000      0.000
REMARK INTER + INTRA:          -8.479
REMARK INTER:                  -8.197
REMARK INTRA:                  -0.282
REMARK UNBOUND:                -0.282
REMARK  Name = 
REMARK  4 active torsions:
REMARK  status: ('A' for Active; 'I' for Inactive)
REMARK    1  A    between atoms: C_1  and  C_2
REMARK    2  A    between atoms: C_4  and  C_5
REMARK    3  A    between atoms: N_8  and  C_9
REMARK    4  A    between atoms: C_9  and  C_10
REMARK                            x       y       z     vdW  Elec       q    Type
REMARK                         _______ _______ _______ _____ _____    ______ ____
ROOT
ATOM      1  C   UNL     1      46.802   4.413  15.130  0.00  0.00    +0.000 C 
ATOM      2  C   UNL     1      46.217   4.635  13.767  0.00  0.00    +0.000 A 
ATOM      3  C   UNL     1      46.018   5.912  13.285  0.00  0.00    +0.000 A 
ATOM      4  C   UNL     1      45.527   6.006  12.002  0.00  0.00    +0.000 A 
ATOM      5  C   UNL     1      45.229   7.332  11.375  0.00  0.00    +0.000 C 
ATOM      6  N   UNL     1      45.277   4.920  11.246  0.00  0.00    +0.000 NA
ATOM      7  C   UNL     1      45.481   3.712  11.792  0.00  0.00    +0.000 A 
ATOM      8  N   UNL     1      45.260   2.573  11.052  0.00  0.00    +0.000 N 
ATOM      9  N   UNL     1      45.927   3.534  13.042  0.00  0.00    +0.000 NA
ATOM     10  H   UNL     1      44.995   1.808  11.658  0.00  0.00    +0.000 HD
ENDROOT
BRANCH   8  11
ATOM     11  C   UNL     1      44.556   2.677   9.789  0.00  0.00    +0.000 C 
BRANCH  11  12
ATOM     12  C   UNL     1      45.444   2.507   8.570  0.00  0.00    +0.000 A 
ATOM     13  C   UNL     1      45.620   3.559   7.671  0.00  0.00    +0.000 A 
ATOM     14  C   UNL     1      46.484   3.393   6.591  0.00  0.00    +0.000 A 
ATOM     15  C   UNL     1      47.152   2.187   6.436  0.00  0.00    +0.000 A 
ATOM     16  C   UNL     1      46.920   1.188   7.366  0.00  0.00    +0.000 A 
ATOM     17  N   UNL     1      46.081   1.316   8.419  0.00  0.00    +0.000 NA
ENDBRANCH  11  12
ENDBRANCH   8  11
TORSDOF 2
ENDMDL
MODEL 2
REMARK VINA RESULT:    -7.212      0.887      2.215
REMARK INTER + INTRA:          -8.338
REMARK INTER:                  -8.065
REMARK INTRA:                  -0.272
REMARK UNBOUND:                -0.282
REMARK  Name = 
REMARK  4 active torsions:
REMARK  status: ('A' for Active; 'I' for Inactive)
REMARK    1  A    between atoms: C_1  and  C_2
REMARK    2  A    between atoms: C_4  and  C_5
REMARK    3  A    between atoms: N_8  and  C_9
REMARK    4  A    between atoms: C_9  and  C_10
REMARK                            x       y       z     vdW  Elec       q    Type
REMARK                         _______ _______ _______ _____ _____    ______ ____
ROOT
ATOM      1  C   UNL     1      45.074   8.186  12.150  0.00  0.00    +0.000 C 
ATOM      2  C   UNL     1      45.292   6.704  12.070  0.00  0.00    +0.000 A 
ATOM      3  C   UNL     1      45.994   6.042  13.055  0.00  0.00    +0.000 A 
ATOM      4  C   UNL     1      46.091   4.676  12.916  0.00  0.00    +0.000 A 
ATOM      5  C   UNL     1      46.861   3.843  13.894  0.00  0.00    +0.000 C 
ATOM      6  N   UNL     1      45.515   4.014  11.894  0.00  0.00    +0.000 NA
ATOM      7  C   UNL     1      44.862   4.730  10.968  0.00  0.00    +0.000 A 
ATOM      8  N   UNL     1      44.239   4.098   9.917  0.00  0.00    +0.000 N 
ATOM      9  N   UNL     1      44.748   6.064  11.013  0.00  0.00    +0.000 NA
ATOM     10  H   UNL     1      44.213   4.704   9.109  0.00  0.00    +0.000 HD
ENDROOT
BRANCH   8  11
ATOM     11  C   UNL     1      44.517   2.697   9.671  0.00  0.00    +0.000 C 
BRANCH  11  12
ATOM     12  C   UNL     1      45.475   2.448   8.520  0.00  0.00    +0.000 A 
ATOM     13  C   UNL     1      45.778   3.468   7.618  0.00  0.00    +0.000 A 
ATOM     14  C   UNL     1      46.702   3.227   6.605  0.00  0.00    +0.000 A 
ATOM     15  C   UNL     1      47.304   1.979   6.518  0.00  0.00    +0.000 A 
ATOM     16  C   UNL     1      46.948   1.017   7.446  0.00  0.00    +0.000 A 
ATOM     17  N   UNL     1      46.047   1.218   8.435  0.00  0.00    +0.000 NA
ENDBRANCH  11  12
ENDBRANCH   8  11
TORSDOF 2
ENDMDL
MODEL 3
REMARK VINA RESULT:    -7.059      1.285      2.614
REMARK INTER + INTRA:          -8.167
REMARK INTER:                  -7.900
REMARK INTRA:                  -0.267
REMARK UNBOUND:                -0.282
REMARK  Name = 
REMARK  4 active torsions:
REMARK  status: ('A' for Active; 'I' for Inactive)
REMARK    1  A    between atoms: C_1  and  C_2
REMARK    2  A    between atoms: C_4  and  C_5
REMARK    3  A    between atoms: N_8  and  C_9
REMARK    4  A    between atoms: C_9  and  C_10
REMARK                            x       y       z     vdW  Elec       q    Type
REMARK                         _______ _______ _______ _____ _____    ______ ____
ROOT
ATOM      1  C   UNL     1      45.733   8.641  12.304  0.00  0.00    +0.000 C 
ATOM      2  C   UNL     1      45.695   7.150  12.151  0.00  0.00    +0.000 A 
ATOM      3  C   UNL     1      46.286   6.330  13.090  0.00  0.00    +0.000 A 
ATOM      4  C   UNL     1      46.148   4.976  12.885  0.00  0.00    +0.000 A 
ATOM      5  C   UNL     1      46.777   3.978  13.807  0.00  0.00    +0.000 C 
ATOM      6  N   UNL     1      45.454   4.472  11.846  0.00  0.00    +0.000 NA
ATOM      7  C   UNL     1      44.922   5.333  10.968  0.00  0.00    +0.000 A 
ATOM      8  N   UNL     1      44.186   4.868   9.902  0.00  0.00    +0.000 N 
ATOM      9  N   UNL     1      45.036   6.664  11.077  0.00  0.00    +0.000 NA
ATOM     10  H   UNL     1      44.254   5.509   9.123  0.00  0.00    +0.000 HD
ENDROOT
BRANCH   8  11
ATOM     11  C   UNL     1      44.219   3.454   9.585  0.00  0.00    +0.000 C 
BRANCH  11  12
ATOM     12  C   UNL     1      45.302   3.066   8.595  0.00  0.00    +0.000 A 
ATOM     13  C   UNL     1      45.806   1.765   8.571  0.00  0.00    +0.000 A 
ATOM     14  C   UNL     1      46.758   1.423   7.616  0.00  0.00    +0.000 A 
ATOM     15  C   UNL     1      47.183   2.382   6.706  0.00  0.00    +0.000 A 
ATOM     16  C   UNL     1      46.641   3.652   6.797  0.00  0.00    +0.000 A 
ATOM     17  N   UNL     1      45.722   4.017   7.719  0.00  0.00    +0.000 NA
ENDBRANCH  11  12
ENDBRANCH   8  11
TORSDOF 2
ENDMDL
MODEL 4
REMARK VINA RESULT:    -5.884      1.215      5.738
REMARK INTER + INTRA:          -6.854
REMARK INTER:                  -6.562
REMARK INTRA:                  -0.292
REMARK UNBOUND:                -0.282
REMARK  Name = 
REMARK  4 active torsions:
REMARK  status: ('A' for Active; 'I' for Inactive)
REMARK    1  A    between atoms: C_1  and  C_2
REMARK    2  A    between atoms: C_4  and  C_5
REMARK    3  A    between atoms: N_8  and  C_9
REMARK    4  A    between atoms: C_9  and  C_10
REMARK                            x       y       z     vdW  Elec       q    Type
REMARK                         _______ _______ _______ _____ _____    ______ ____
ROOT
ATOM      1  C   UNL     1      46.766  -0.718   7.628  0.00  0.00    +0.000 C 
ATOM      2  C   UNL     1      46.445   0.745   7.705  0.00  0.00    +0.000 A 
ATOM      3  C   UNL     1      46.966   1.629   6.783  0.00  0.00    +0.000 A 
ATOM      4  C   UNL     1      46.566   2.941   6.909  0.00  0.00    +0.000 A 
ATOM      5  C   UNL     1      47.089   4.008   5.999  0.00  0.00    +0.000 C 
ATOM      6  N   UNL     1      45.698   3.341   7.858  0.00  0.00    +0.000 NA
ATOM      7  C   UNL     1      45.248   2.424   8.726  0.00  0.00    +0.000 A 
ATOM      8  N   UNL     1      44.343   2.779   9.700  0.00  0.00    +0.000 N 
ATOM      9  N   UNL     1      45.611   1.135   8.692  0.00  0.00    +0.000 NA
ATOM     10  H   UNL     1      44.451   2.186  10.512  0.00  0.00    +0.000 HD
ENDROOT
BRANCH   8  11
ATOM     11  C   UNL     1      44.090   4.184   9.950  0.00  0.00    +0.000 C 
BRANCH  11  12
ATOM     12  C   UNL     1      44.963   4.788  11.035  0.00  0.00    +0.000 A 
ATOM     13  C   UNL     1      45.749   5.909  10.769  0.00  0.00    +0.000 A 
ATOM     14  C   UNL     1      46.496   6.475  11.798  0.00  0.00    +0.000 A 
ATOM     15  C   UNL     1      46.439   5.914  13.067  0.00  0.00    +0.000 A 
ATOM     16  C   UNL     1      45.642   4.798  13.251  0.00  0.00    +0.000 A 
ATOM     17  N   UNL     1      44.912   4.220  12.270  0.00  0.00    +0.000 NA
ENDBRANCH  11  12
ENDBRANCH   8  11
TORSDOF 2
ENDMDL
MODEL 5
REMARK VINA RESULT:    -5.834      3.327      5.686
REMARK INTER + INTRA:          -6.798
REMARK INTER:                  -6.626
REMARK INTRA:                  -0.171
REMARK UNBOUND:                -0.282
REMARK  Name = 
REMARK  4 active torsions:
REMARK  status: ('A' for Active; 'I' for Inactive)
REMARK    1  A    between atoms: C_1  and  C_2
REMARK    2  A    between atoms: C_4  and  C_5
REMARK    3  A    between atoms: N_8  and  C_9
REMARK    4  A    between atoms: C_9  and  C_10
REMARK                            x       y       z     vdW  Elec       q    Type
REMARK                         _______ _______ _______ _____ _____    ______ ____
ROOT
ATOM      1  C   UNL     1      47.924   5.461  19.627  0.00  0.00    +0.000 C 
ATOM      2  C   UNL     1      48.153   4.674  18.371  0.00  0.00    +0.000 A 
ATOM      3  C   UNL     1      49.115   3.685  18.325  0.00  0.00    +0.000 A 
ATOM      4  C   UNL     1      49.208   2.985  17.144  0.00  0.00    +0.000 A 
ATOM      5  C   UNL     1      50.237   1.915  16.949  0.00  0.00    +0.000 C 
ATOM      6  N   UNL     1      48.394   3.227  16.098  0.00  0.00    +0.000 NA
ATOM      7  C   UNL     1      47.495   4.214  16.214  0.00  0.00    +0.000 A 
ATOM      8  N   UNL     1      46.628   4.485  15.181  0.00  0.00    +0.000 N 
ATOM      9  N   UNL     1      47.361   4.963  17.317  0.00  0.00    +0.000 NA
ATOM     10  H   UNL     1      46.367   5.462  15.190  0.00  0.00    +0.000 HD
ENDROOT
BRANCH   8  11
ATOM     11  C   UNL     1      46.867   3.887  13.883  0.00  0.00    +0.000 C 
BRANCH  11  12
ATOM     12  C   UNL     1      45.748   4.108  12.882  0.00  0.00    +0.000 A 
ATOM     13  C   UNL     1      45.745   5.236  12.061  0.00  0.00    +0.000 A 
ATOM     14  C   UNL     1      44.736   5.384  11.114  0.00  0.00    +0.000 A 
ATOM     15  C   UNL     1      43.757   4.405  11.005  0.00  0.00    +0.000 A 
ATOM     16  C   UNL     1      43.824   3.318  11.860  0.00  0.00    +0.000 A 
ATOM     17  N   UNL     1      44.786   3.151  12.795  0.00  0.00    +0.000 NA
ENDBRANCH  11  12
ENDBRANCH   8  11
TORSDOF 2
ENDMDL
MODEL 6
REMARK VINA RESULT:    -5.733      2.163      3.950
REMARK INTER + INTRA:          -6.686
REMARK INTER:                  -6.492
REMARK INTRA:                  -0.194
REMARK UNBOUND:                -0.282
REMARK  Name = 
REMARK  4 active torsions:
REMARK  status: ('A' for Active; 'I' for Inactive)
REMARK    1  A    between atoms: C_1  and  C_2
REMARK    2  A    between atoms: C_4  and  C_5
REMARK    3  A    between atoms: N_8  and  C_9
REMARK    4  A    between atoms: C_9  and  C_10
REMARK                            x       y       z     vdW  Elec       q    Type
REMARK                         _______ _______ _______ _____ _____    ______ ____
ROOT
ATOM      1  C   UNL     1      48.219   2.899  17.843  0.00  0.00    +0.000 C 
ATOM      2  C   UNL     1      48.016   3.929  16.772  0.00  0.00    +0.000 A 
ATOM      3  C   UNL     1      48.768   5.085  16.755  0.00  0.00    +0.000 A 
ATOM      4  C   UNL     1      48.542   5.940  15.699  0.00  0.00    +0.000 A 
ATOM      5  C   UNL     1      49.263   7.247  15.585  0.00  0.00    +0.000 C 
ATOM      6  N   UNL     1      47.659   5.659  14.722  0.00  0.00    +0.000 NA
ATOM      7  C   UNL     1      46.954   4.523  14.818  0.00  0.00    +0.000 A 
ATOM      8  N   UNL     1      46.055   4.181  13.834  0.00  0.00    +0.000 N 
ATOM      9  N   UNL     1      47.092   3.653  15.827  0.00  0.00    +0.000 NA
ATOM     10  H   UNL     1      45.308   3.621  14.221  0.00  0.00    +0.000 HD
ENDROOT
BRANCH   8  11
ATOM     11  C   UNL     1      45.680   5.173  12.846  0.00  0.00    +0.000 C 
BRANCH  11  12
ATOM     12  C   UNL     1      45.280   4.590  11.503  0.00  0.00    +0.000 A 
ATOM     13  C   UNL     1      45.577   5.266  10.320  0.00  0.00    +0.000 A 
ATOM     14  C   UNL     1      45.248   4.681   9.101  0.00  0.00    +0.000 A 
ATOM     15  C   UNL     1      44.634   3.436   9.089  0.00  0.00    +0.000 A 
ATOM     16  C   UNL     1      44.365   2.830  10.304  0.00  0.00    +0.000 A 
ATOM     17  N   UNL     1      44.665   3.377  11.504  0.00  0.00    +0.000 NA
ENDBRANCH  11  12
ENDBRANCH   8  11
TORSDOF 2
ENDMDL
MODEL 7
REMARK VINA RESULT:    -5.604      2.173      4.137
REMARK INTER + INTRA:          -6.542
REMARK INTER:                  -6.350
REMARK INTRA:                  -0.192
REMARK UNBOUND:                -0.282
REMARK  Name = 
REMARK  4 active torsions:
REMARK  status: ('A' for Active; 'I' for Inactive)
REMARK    1  A    between atoms: C_1  and  C_2
REMARK    2  A    between atoms: C_4  and  C_5
REMARK    3  A    between atoms: N_8  and  C_9
REMARK    4  A    between atoms: C_9  and  C_10
REMARK                            x       y       z     vdW  Elec       q    Type
REMARK                         _______ _______ _______ _____ _____    ______ ____
ROOT
ATOM      1  C   UNL     1      49.971   7.024  15.778  0.00  0.00    +0.000 C 
ATOM      2  C   UNL     1      48.876   6.009  15.625  0.00  0.00    +0.000 A 
ATOM      3  C   UNL     1      48.621   5.093  16.623  0.00  0.00    +0.000 A 
ATOM      4  C   UNL     1      47.561   4.241  16.407  0.00  0.00    +0.000 A 
ATOM      5  C   UNL     1      47.203   3.173  17.394  0.00  0.00    +0.000 C 
ATOM      6  N   UNL     1      46.796   4.310  15.301  0.00  0.00    +0.000 NA
ATOM      7  C   UNL     1      47.118   5.218  14.369  0.00  0.00    +0.000 A 
ATOM      8  N   UNL     1      46.355   5.341  13.231  0.00  0.00    +0.000 N 
ATOM      9  N   UNL     1      48.151   6.062  14.487  0.00  0.00    +0.000 NA
ATOM     10  H   UNL     1      46.922   5.673  12.463  0.00  0.00    +0.000 HD
ENDROOT
BRANCH   8  11
ATOM     11  C   UNL     1      45.377   4.316  12.922  0.00  0.00    +0.000 C 
BRANCH  11  12
ATOM     12  C   UNL     1      45.132   4.121  11.437  0.00  0.00    +0.000 A 
ATOM     13  C   UNL     1      45.455   5.127  10.528  0.00  0.00    +0.000 A 
ATOM     14  C   UNL     1      45.270   4.898   9.167  0.00  0.00    +0.000 A 
ATOM     15  C   UNL     1      44.774   3.672   8.745  0.00  0.00    +0.000 A 
ATOM     16  C   UNL     1      44.470   2.725   9.709  0.00  0.00    +0.000 A 
ATOM     17  N   UNL     1      44.630   2.922  11.037  0.00  0.00    +0.000 NA
ENDBRANCH  11  12
ENDBRANCH   8  11
TORSDOF 2
ENDMDL
MODEL 8
REMARK VINA RESULT:    -5.601      2.072      6.394
REMARK INTER + INTRA:          -6.537
REMARK INTER:                  -6.266
REMARK INTRA:                  -0.271
REMARK UNBOUND:                -0.282
REMARK  Name = 
REMARK  4 active torsions:
REMARK  status: ('A' for Active; 'I' for Inactive)
REMARK    1  A    between atoms: C_1  and  C_2
REMARK    2  A    between atoms: C_4  and  C_5
REMARK    3  A    between atoms: N_8  and  C_9
REMARK    4  A    between atoms: C_9  and  C_10
REMARK                            x       y       z     vdW  Elec       q    Type
REMARK                         _______ _______ _______ _____ _____    ______ ____
ROOT
ATOM      1  C   UNL     1      45.743   3.123   7.049  0.00  0.00    +0.000 C 
ATOM      2  C   UNL     1      45.286   3.580   8.403  0.00  0.00    +0.000 A 
ATOM      3  C   UNL     1      44.573   2.736   9.228  0.00  0.00    +0.000 A 
ATOM      4  C   UNL     1      44.249   3.234  10.470  0.00  0.00    +0.000 A 
ATOM      5  C   UNL     1      43.441   2.435  11.445  0.00  0.00    +0.000 C 
ATOM      6  N   UNL     1      44.625   4.462  10.874  0.00  0.00    +0.000 NA
ATOM      7  C   UNL     1      45.303   5.229  10.008  0.00  0.00    +0.000 A 
ATOM      8  N   UNL     1      45.728   6.484  10.382  0.00  0.00    +0.000 N 
ATOM      9  N   UNL     1      45.632   4.832   8.772  0.00  0.00    +0.000 NA
ATOM     10  H   UNL     1      45.782   7.090   9.575  0.00  0.00    +0.000 HD
ENDROOT
BRANCH   8  11
ATOM     11  C   UNL     1      45.211   7.070  11.602  0.00  0.00    +0.000 C 
BRANCH  11  12
ATOM     12  C   UNL     1      46.260   7.292  12.676  0.00  0.00    +0.000 A 
ATOM     13  C   UNL     1      46.989   6.218  13.186  0.00  0.00    +0.000 A 
ATOM     14  C   UNL     1      47.983   6.458  14.131  0.00  0.00    +0.000 A 
ATOM     15  C   UNL     1      48.230   7.762  14.540  0.00  0.00    +0.000 A 
ATOM     16  C   UNL     1      47.460   8.774  13.993  0.00  0.00    +0.000 A 
ATOM     17  N   UNL     1      46.482   8.571  13.082  0.00  0.00    +0.000 NA
ENDBRANCH  11  12
ENDBRANCH   8  11
TORSDOF 2
ENDMDL
MODEL 9
REMARK VINA RESULT:    -5.512      2.976      7.004
REMARK INTER + INTRA:          -6.439
REMARK INTER:                  -6.216
REMARK INTRA:                  -0.223
REMARK UNBOUND:                -0.282
REMARK  Name = 
REMARK  4 active torsions:
REMARK  status: ('A' for Active; 'I' for Inactive)
REMARK    1  A    between atoms: C_1  and  C_2
REMARK    2  A    between atoms: C_4  and  C_5
REMARK    3  A    between atoms: N_8  and  C_9
REMARK    4  A    between atoms: C_9  and  C_10
REMARK                            x       y       z     vdW  Elec       q    Type
REMARK                         _______ _______ _______ _____ _____    ______ ____
ROOT
ATOM      1  C   UNL     1      44.613   3.051  11.089  0.00  0.00    +0.000 C 
ATOM      2  C   UNL     1      45.335   4.026  11.971  0.00  0.00    +0.000 A 
ATOM      3  C   UNL     1      45.503   5.339  11.581  0.00  0.00    +0.000 A 
ATOM      4  C   UNL     1      46.131   6.164  12.486  0.00  0.00    +0.000 A 
ATOM      5  C   UNL     1      46.411   7.600  12.170  0.00  0.00    +0.000 C 
ATOM      6  N   UNL     1      46.538   5.730  13.694  0.00  0.00    +0.000 NA
ATOM      7  C   UNL     1      46.354   4.436  13.993  0.00  0.00    +0.000 A 
ATOM      8  N   UNL     1      46.733   3.949  15.223  0.00  0.00    +0.000 N 
ATOM      9  N   UNL     1      45.779   3.561  13.158  0.00  0.00    +0.000 NA
ATOM     10  H   UNL     1      46.977   2.971  15.153  0.00  0.00    +0.000 HD
ENDROOT
BRANCH   8  11
ATOM     11  C   UNL     1      47.569   4.768  16.079  0.00  0.00    +0.000 C 
BRANCH  11  12
ATOM     12  C   UNL     1      48.785   4.047  16.630  0.00  0.00    +0.000 A 
ATOM     13  C   UNL     1      48.833   2.654  16.653  0.00  0.00    +0.000 A 
ATOM     14  C   UNL     1      49.984   2.020  17.113  0.00  0.00    +0.000 A 
ATOM     15  C   UNL     1      51.060   2.789  17.535  0.00  0.00    +0.000 A 
ATOM     16  C   UNL     1      50.935   4.167  17.489  0.00  0.00    +0.000 A 
ATOM     17  N   UNL     1      49.827   4.811  17.056  0.00  0.00    +0.000 NA
ENDBRANCH  11  12
ENDBRANCH   8  11
TORSDOF 2
ENDMDL
