MODEL 1
REMARK VINA RESULT:    -8.449      0.000      0.000
REMARK INTER + INTRA:         -14.001
REMARK INTER:                 -12.400
REMARK INTRA:                  -1.601
REMARK UNBOUND:                -1.601
REMARK  Name = 
REMARK  9 active torsions:
REMARK  status: ('A' for Active; 'I' for Inactive)
REMARK    1  A    between atoms: C_1  and  O_2
REMARK    2  A    between atoms: O_2  and  C_3
REMARK    3  A    between atoms: C_10  and  C_11
REMARK    4  A    between atoms: N_13  and  C_14
REMARK    5  A    between atoms: C_14  and  C_15
REMARK    6  A    between atoms: C_18  and  C_19
REMARK    7  A    between atoms: C_19  and  N_20
REMARK    8  A    between atoms: N_20  and  C_21
REMARK    9  A    between atoms: C_21  and  C_22
REMARK                            x       y       z     vdW  Elec       q    Type
REMARK                         _______ _______ _______ _____ _____    ______ ____
ROOT
ATOM      1  C   UNL     1      47.265   8.233  13.341  0.00  0.00    +0.000 C 
ENDROOT
BRANCH   1   2
ATOM      2  C   UNL     1      46.348   7.410  12.466  0.00  0.00    +0.000 A 
ATOM      3  C   UNL     1      44.987   7.290  12.775  0.00  0.00    +0.000 A 
ATOM      4  C   UNL     1      44.149   6.465  12.012  0.00  0.00    +0.000 A 
ATOM      5  C   UNL     1      44.656   5.729  10.931  0.00  0.00    +0.000 A 
ATOM      6  C   UNL     1      46.014   5.863  10.613  0.00  0.00    +0.000 A 
ATOM      7  C   UNL     1      46.849   6.696  11.369  0.00  0.00    +0.000 A 
BRANCH   5   8
ATOM      8  C   UNL     1      43.762   4.799  10.136  0.00  0.00    +0.000 C 
BRANCH   8   9
ATOM      9  N   UNL     1      44.441   4.316   8.939  0.00  0.00    +0.000 NA
ATOM     10  H   UNL     1      45.383   4.702   8.915  0.00  0.00    +0.000 HD
BRANCH   9  11
ATOM     11  C   UNL     1      44.526   2.857   8.905  0.00  0.00    +0.000 C 
BRANCH  11  12
ATOM     12  C   UNL     1      45.755   2.423   8.143  0.00  0.00    +0.000 A 
ATOM     13  C   UNL     1      46.523   3.343   7.423  0.00  0.00    +0.000 A 
ATOM     14  C   UNL     1      47.626   2.882   6.718  0.00  0.00    +0.000 A 
ATOM     15  N   UNL     1      48.012   1.589   6.684  0.00  0.00    +0.000 NA
ATOM     16  C   UNL     1      47.260   0.716   7.387  0.00  0.00    +0.000 A 
ATOM     17  C   UNL     1      46.145   1.079   8.126  0.00  0.00    +0.000 A 
ENDBRANCH  11  12
ENDBRANCH   9  11
ENDBRANCH   8   9
ENDBRANCH   5   8
ENDBRANCH   1   2
BRANCH   1  20
ATOM     18  C   UNL     1      48.791   6.928  14.788  0.00  0.00    +0.000 C 
ATOM     19  O   UNL     1      49.684   6.962  13.942  0.00  0.00    +0.000 OA
ATOM     20  N   UNL     1      47.581   7.529  14.564  0.00  0.00    +0.000 N 
ATOM     21  H   UNL     1      46.894   7.562  15.303  0.00  0.00    +0.000 HD
BRANCH  18  29
ATOM     22  C   UNL     1      47.246   4.206  16.224  0.00  0.00    +0.000 A 
ATOM     23  N   UNL     1      46.894   3.126  16.952  0.00  0.00    +0.000 NA
ATOM     24  C   UNL     1      47.566   2.882  18.080  0.00  0.00    +0.000 A 
ATOM     25  N   UNL     1      48.556   3.601  18.592  0.00  0.00    +0.000 NA
ATOM     26  C   UNL     1      48.882   4.661  17.833  0.00  0.00    +0.000 A 
ATOM     27  S   UNL     1      50.117   5.709  18.344  0.00  0.00    +0.000 S 
ATOM     28  C   UNL     1      49.946   6.669  16.951  0.00  0.00    +0.000 A 
ATOM     29  C   UNL     1      48.973   6.215  16.067  0.00  0.00    +0.000 A 
ATOM     30  C   UNL     1      48.306   5.038  16.623  0.00  0.00    +0.000 A 
BRANCH  22  32
ATOM     31  C   UNL     1      46.960   3.798  13.926  0.00  0.00    +0.000 C 
ATOM     32  O   UNL     1      46.522   4.498  15.087  0.00  0.00    +0.000 OA
ENDBRANCH  22  32
ENDBRANCH  18  29
ENDBRANCH   1  20
TORSDOF 8
ENDMDL
MODEL 2
REMARK VINA RESULT:    -7.813      1.545      1.921
REMARK INTER + INTRA:         -13.068
REMARK INTER:                 -12.079
REMARK INTRA:                  -0.989
REMARK UNBOUND:                -1.601
REMARK  Name = 
REMARK  9 active torsions:
REMARK  status: ('A' for Active; 'I' for Inactive)
REMARK    1  A    between atoms: C_1  and  O_2
REMARK    2  A    between atoms: O_2  and  C_3
REMARK    3  A    between atoms: C_10  and  C_11
REMARK    4  A    between atoms: N_13  and  C_14
REMARK    5  A    between atoms: C_14  and  C_15
REMARK    6  A    between atoms: C_18  and  C_19
REMARK    7  A    between atoms: C_19  and  N_20
REMARK    8  A    between atoms: N_20  and  C_21
REMARK    9  A    between atoms: C_21  and  C_22
REMARK                            x       y       z     vdW  Elec       q    Type
REMARK                         _______ _______ _______ _____ _____    ______ ____
ROOT
ATOM      1  C   UNL     1      47.919   6.847  13.100  0.00  0.00    +0.000 C 
ENDROOT
BRANCH   1   2
ATOM      2  C   UNL     1      46.795   5.968  12.602  0.00  0.00    +0.000 A 
ATOM      3  C   UNL     1      46.528   4.737  13.216  0.00  0.00    +0.000 A 
ATOM      4  C   UNL     1      45.538   3.884  12.710  0.00  0.00    +0.000 A 
ATOM      5  C   UNL     1      44.802   4.234  11.570  0.00  0.00    +0.000 A 
ATOM      6  C   UNL     1      45.058   5.473  10.967  0.00  0.00    +0.000 A 
ATOM      7  C   UNL     1      46.040   6.331  11.478  0.00  0.00    +0.000 A 
BRANCH   5   8
ATOM      8  C   UNL     1      43.766   3.291  10.992  0.00  0.00    +0.000 C 
BRANCH   8   9
ATOM      9  N   UNL     1      44.367   2.381  10.024  0.00  0.00    +0.000 NA
ATOM     10  H   UNL     1      43.770   1.562   9.925  0.00  0.00    +0.000 HD
BRANCH   9  11
ATOM     11  C   UNL     1      44.538   3.006   8.714  0.00  0.00    +0.000 C 
BRANCH  11  12
ATOM     12  C   UNL     1      45.780   2.475   8.040  0.00  0.00    +0.000 A 
ATOM     13  C   UNL     1      46.622   3.316   7.306  0.00  0.00    +0.000 A 
ATOM     14  C   UNL     1      47.735   2.768   6.685  0.00  0.00    +0.000 A 
ATOM     15  N   UNL     1      48.064   1.460   6.745  0.00  0.00    +0.000 NA
ATOM     16  C   UNL     1      47.241   0.663   7.461  0.00  0.00    +0.000 A 
ATOM     17  C   UNL     1      46.110   1.117   8.122  0.00  0.00    +0.000 A 
ENDBRANCH  11  12
ENDBRANCH   9  11
ENDBRANCH   8   9
ENDBRANCH   5   8
ENDBRANCH   1   2
BRANCH   1  20
ATOM     18  C   UNL     1      48.999   7.016  15.320  0.00  0.00    +0.000 C 
ATOM     19  O   UNL     1      50.122   6.942  14.822  0.00  0.00    +0.000 OA
ATOM     20  N   UNL     1      47.875   6.977  14.539  0.00  0.00    +0.000 N 
ATOM     21  H   UNL     1      46.968   7.123  14.959  0.00  0.00    +0.000 HD
BRANCH  18  29
ATOM     22  C   UNL     1      48.909   4.700  17.868  0.00  0.00    +0.000 A 
ATOM     23  N   UNL     1      48.936   4.032  19.040  0.00  0.00    +0.000 NA
ATOM     24  C   UNL     1      48.843   4.740  20.169  0.00  0.00    +0.000 A 
ATOM     25  N   UNL     1      48.707   6.055  20.279  0.00  0.00    +0.000 NA
ATOM     26  C   UNL     1      48.694   6.683  19.091  0.00  0.00    +0.000 A 
ATOM     27  S   UNL     1      48.507   8.370  19.037  0.00  0.00    +0.000 S 
ATOM     28  C   UNL     1      48.618   8.377  17.340  0.00  0.00    +0.000 A 
ATOM     29  C   UNL     1      48.813   7.120  16.780  0.00  0.00    +0.000 A 
ATOM     30  C   UNL     1      48.811   6.101  17.832  0.00  0.00    +0.000 A 
BRANCH  22  32
ATOM     31  C   UNL     1      47.694   3.418  16.315  0.00  0.00    +0.000 C 
ATOM     32  O   UNL     1      48.949   3.975  16.696  0.00  0.00    +0.000 OA
ENDBRANCH  22  32
ENDBRANCH  18  29
ENDBRANCH   1  20
TORSDOF 8
ENDMDL
MODEL 3
REMARK VINA RESULT:    -7.473      1.959      3.521
REMARK INTER + INTRA:         -12.570
REMARK INTER:                 -11.249
REMARK INTRA:                  -1.321
REMARK UNBOUND:                -1.601
REMARK  Name = 
REMARK  9 active torsions:
REMARK  status: ('A' for Active; 'I' for Inactive)
REMARK    1  A    between atoms: C_1  and  O_2
REMARK    2  A    between atoms: O_2  and  C_3
REMARK    3  A    between atoms: C_10  and  C_11
REMARK    4  A    between atoms: N_13  and  C_14
REMARK    5  A    between atoms: C_14  and  C_15
REMARK    6  A    between atoms: C_18  and  C_19
REMARK    7  A    between atoms: C_19  and  N_20
REMARK    8  A    between atoms: N_20  and  C_21
REMARK    9  A    between atoms: C_21  and  C_22
REMARK                            x       y       z     vdW  Elec       q    Type
REMARK                         _______ _______ _______ _____ _____    ______ ____
ROOT
ATOM      1  C   UNL     1      47.330   3.783  15.076  0.00  0.00    +0.000 C 
ENDROOT
BRANCH   1   2
ATOM      2  C   UNL     1      46.697   4.178  13.762  0.00  0.00    +0.000 A 
ATOM      3  C   UNL     1      46.804   5.491  13.286  0.00  0.00    +0.000 A 
ATOM      4  C   UNL     1      46.153   5.881  12.108  0.00  0.00    +0.000 A 
ATOM      5  C   UNL     1      45.368   4.971  11.386  0.00  0.00    +0.000 A 
ATOM      6  C   UNL     1      45.276   3.654  11.853  0.00  0.00    +0.000 A 
ATOM      7  C   UNL     1      45.935   3.261  13.025  0.00  0.00    +0.000 A 
BRANCH   5   8
ATOM      8  C   UNL     1      44.623   5.404  10.138  0.00  0.00    +0.000 C 
BRANCH   8   9
ATOM      9  N   UNL     1      45.352   5.024   8.934  0.00  0.00    +0.000 NA
ATOM     10  H   UNL     1      46.315   4.809   9.185  0.00  0.00    +0.000 HD
BRANCH   9  11
ATOM     11  C   UNL     1      44.762   3.859   8.278  0.00  0.00    +0.000 C 
BRANCH  11  12
ATOM     12  C   UNL     1      45.846   2.934   7.779  0.00  0.00    +0.000 A 
ATOM     13  C   UNL     1      45.907   1.600   8.190  0.00  0.00    +0.000 A 
ATOM     14  C   UNL     1      46.942   0.804   7.721  0.00  0.00    +0.000 A 
ATOM     15  N   UNL     1      47.905   1.240   6.881  0.00  0.00    +0.000 NA
ATOM     16  C   UNL     1      47.829   2.530   6.492  0.00  0.00    +0.000 A 
ATOM     17  C   UNL     1      46.831   3.401   6.901  0.00  0.00    +0.000 A 
ENDBRANCH  11  12
ENDBRANCH   9  11
ENDBRANCH   8   9
ENDBRANCH   5   8
ENDBRANCH   1   2
BRANCH   1  20
ATOM     18  C   UNL     1      48.572   5.046  16.804  0.00  0.00    +0.000 C 
ATOM     19  O   UNL     1      49.402   4.144  16.922  0.00  0.00    +0.000 OA
ATOM     20  N   UNL     1      47.532   4.939  15.920  0.00  0.00    +0.000 N 
ATOM     21  H   UNL     1      46.912   5.724  15.780  0.00  0.00    +0.000 HD
BRANCH  18  29
ATOM     22  C   UNL     1      48.639   8.408  16.060  0.00  0.00    +0.000 A 
ATOM     23  N   UNL     1      48.574   9.755  16.056  0.00  0.00    +0.000 NA
ATOM     24  C   UNL     1      48.537  10.387  17.231  0.00  0.00    +0.000 A 
ATOM     25  N   UNL     1      48.573   9.835  18.437  0.00  0.00    +0.000 NA
ATOM     26  C   UNL     1      48.628   8.492  18.399  0.00  0.00    +0.000 A 
ATOM     27  S   UNL     1      48.701   7.614  19.850  0.00  0.00    +0.000 S 
ATOM     28  C   UNL     1      48.712   6.135  19.012  0.00  0.00    +0.000 A 
ATOM     29  C   UNL     1      48.645   6.267  17.630  0.00  0.00    +0.000 A 
ATOM     30  C   UNL     1      48.642   7.684  17.265  0.00  0.00    +0.000 A 
BRANCH  22  32
ATOM     31  C   UNL     1      50.070   7.570  14.393  0.00  0.00    +0.000 C 
ATOM     32  O   UNL     1      48.733   7.749  14.852  0.00  0.00    +0.000 OA
ENDBRANCH  22  32
ENDBRANCH  18  29
ENDBRANCH   1  20
TORSDOF 8
ENDMDL
MODEL 4
REMARK VINA RESULT:    -7.471      2.129      3.013
REMARK INTER + INTRA:         -12.567
REMARK INTER:                 -11.634
REMARK INTRA:                  -0.933
REMARK UNBOUND:                -1.601
REMARK  Name = 
REMARK  9 active torsions:
REMARK  status: ('A' for Active; 'I' for Inactive)
REMARK    1  A    between atoms: C_1  and  O_2
REMARK    2  A    between atoms: O_2  and  C_3
REMARK    3  A    between atoms: C_10  and  C_11
REMARK    4  A    between atoms: N_13  and  C_14
REMARK    5  A    between atoms: C_14  and  C_15
REMARK    6  A    between atoms: C_18  and  C_19
REMARK    7  A    between atoms: C_19  and  N_20
REMARK    8  A    between atoms: N_20  and  C_21
REMARK    9  A    between atoms: C_21  and  C_22
REMARK                            x       y       z     vdW  Elec       q    Type
REMARK                         _______ _______ _______ _____ _____    ______ ____
ROOT
ATOM      1  C   UNL     1      48.059   6.779  13.804  0.00  0.00    +0.000 C 
ENDROOT
BRANCH   1   2
ATOM      2  C   UNL     1      47.028   6.056  12.968  0.00  0.00    +0.000 A 
ATOM      3  C   UNL     1      46.558   6.616  11.773  0.00  0.00    +0.000 A 
ATOM      4  C   UNL     1      45.547   5.986  11.035  0.00  0.00    +0.000 A 
ATOM      5  C   UNL     1      44.970   4.790  11.483  0.00  0.00    +0.000 A 
ATOM      6  C   UNL     1      45.452   4.221  12.669  0.00  0.00    +0.000 A 
ATOM      7  C   UNL     1      46.470   4.845  13.401  0.00  0.00    +0.000 A 
BRANCH   5   8
ATOM      8  C   UNL     1      43.841   4.134  10.712  0.00  0.00    +0.000 C 
BRANCH   8   9
ATOM      9  N   UNL     1      44.351   3.116   9.801  0.00  0.00    +0.000 NA
ATOM     10  H   UNL     1      43.630   2.413   9.653  0.00  0.00    +0.000 HD
BRANCH   9  11
ATOM     11  C   UNL     1      44.737   3.679   8.508  0.00  0.00    +0.000 C 
BRANCH  11  12
ATOM     12  C   UNL     1      45.840   2.855   7.887  0.00  0.00    +0.000 A 
ATOM     13  C   UNL     1      45.995   1.501   8.199  0.00  0.00    +0.000 A 
ATOM     14  C   UNL     1      47.043   0.800   7.620  0.00  0.00    +0.000 A 
ATOM     15  N   UNL     1      47.932   1.346   6.763  0.00  0.00    +0.000 NA
ATOM     16  C   UNL     1      47.765   2.654   6.471  0.00  0.00    +0.000 A 
ATOM     17  C   UNL     1      46.747   3.436   6.993  0.00  0.00    +0.000 A 
ENDBRANCH  11  12
ENDBRANCH   9  11
ENDBRANCH   8   9
ENDBRANCH   5   8
ENDBRANCH   1   2
BRANCH   1  20
ATOM     18  C   UNL     1      49.071   6.268  16.003  0.00  0.00    +0.000 C 
ATOM     19  O   UNL     1      50.201   6.517  15.584  0.00  0.00    +0.000 OA
ATOM     20  N   UNL     1      47.975   6.376  15.190  0.00  0.00    +0.000 N 
ATOM     21  H   UNL     1      47.050   6.248  15.576  0.00  0.00    +0.000 HD
BRANCH  18  29
ATOM     22  C   UNL     1      48.008   7.852  18.871  0.00  0.00    +0.000 A 
ATOM     23  N   UNL     1      47.528   8.191  20.085  0.00  0.00    +0.000 NA
ATOM     24  C   UNL     1      47.424   7.234  21.010  0.00  0.00    +0.000 A 
ATOM     25  N   UNL     1      47.760   5.957  20.880  0.00  0.00    +0.000 NA
ATOM     26  C   UNL     1      48.225   5.658  19.655  0.00  0.00    +0.000 A 
ATOM     27  S   UNL     1      48.724   4.072  19.312  0.00  0.00    +0.000 S 
ATOM     28  C   UNL     1      49.104   4.486  17.707  0.00  0.00    +0.000 A 
ATOM     29  C   UNL     1      48.850   5.816  17.391  0.00  0.00    +0.000 A 
ATOM     30  C   UNL     1      48.367   6.526  18.576  0.00  0.00    +0.000 A 
BRANCH  22  32
ATOM     31  C   UNL     1      49.063   9.882  18.325  0.00  0.00    +0.000 C 
ATOM     32  O   UNL     1      48.171   8.844  17.927  0.00  0.00    +0.000 OA
ENDBRANCH  22  32
ENDBRANCH  18  29
ENDBRANCH   1  20
TORSDOF 8
ENDMDL
MODEL 5
REMARK VINA RESULT:    -7.408      1.954      3.775
REMARK INTER + INTRA:         -12.473
REMARK INTER:                 -11.058
REMARK INTRA:                  -1.416
REMARK UNBOUND:                -1.601
REMARK  Name = 
REMARK  9 active torsions:
REMARK  status: ('A' for Active; 'I' for Inactive)
REMARK    1  A    between atoms: C_1  and  O_2
REMARK    2  A    between atoms: O_2  and  C_3
REMARK    3  A    between atoms: C_10  and  C_11
REMARK    4  A    between atoms: N_13  and  C_14
REMARK    5  A    between atoms: C_14  and  C_15
REMARK    6  A    between atoms: C_18  and  C_19
REMARK    7  A    between atoms: C_19  and  N_20
REMARK    8  A    between atoms: N_20  and  C_21
REMARK    9  A    between atoms: C_21  and  C_22
REMARK                            x       y       z     vdW  Elec       q    Type
REMARK                         _______ _______ _______ _____ _____    ______ ____
ROOT
ATOM      1  C   UNL     1      47.141   4.313  14.898  0.00  0.00    +0.000 C 
ENDROOT
BRANCH   1   2
ATOM      2  C   UNL     1      46.322   4.397  13.630  0.00  0.00    +0.000 A 
ATOM      3  C   UNL     1      45.895   5.638  13.138  0.00  0.00    +0.000 A 
ATOM      4  C   UNL     1      45.071   5.715  12.007  0.00  0.00    +0.000 A 
ATOM      5  C   UNL     1      44.641   4.553  11.351  0.00  0.00    +0.000 A 
ATOM      6  C   UNL     1      45.082   3.314  11.833  0.00  0.00    +0.000 A 
ATOM      7  C   UNL     1      45.915   3.236  12.957  0.00  0.00    +0.000 A 
BRANCH   5   8
ATOM      8  C   UNL     1      43.709   4.633  10.157  0.00  0.00    +0.000 C 
BRANCH   8   9
ATOM      9  N   UNL     1      44.149   3.743   9.090  0.00  0.00    +0.000 NA
ATOM     10  H   UNL     1      43.388   3.624   8.424  0.00  0.00    +0.000 HD
BRANCH   9  11
ATOM     11  C   UNL     1      45.319   4.264   8.385  0.00  0.00    +0.000 C 
BRANCH  11  12
ATOM     12  C   UNL     1      46.090   3.135   7.746  0.00  0.00    +0.000 A 
ATOM     13  C   UNL     1      46.104   1.856   8.311  0.00  0.00    +0.000 A 
ATOM     14  C   UNL     1      46.853   0.864   7.695  0.00  0.00    +0.000 A 
ATOM     15  N   UNL     1      47.576   1.054   6.571  0.00  0.00    +0.000 NA
ATOM     16  C   UNL     1      47.548   2.294   6.037  0.00  0.00    +0.000 A 
ATOM     17  C   UNL     1      46.826   3.348   6.574  0.00  0.00    +0.000 A 
ENDBRANCH  11  12
ENDBRANCH   9  11
ENDBRANCH   8   9
ENDBRANCH   5   8
ENDBRANCH   1   2
BRANCH   1  20
ATOM     18  C   UNL     1      48.622   5.837  16.166  0.00  0.00    +0.000 C 
ATOM     19  O   UNL     1      49.289   4.894  16.593  0.00  0.00    +0.000 OA
ATOM     20  N   UNL     1      47.557   5.628  15.331  0.00  0.00    +0.000 N 
ATOM     21  H   UNL     1      47.076   6.419  14.927  0.00  0.00    +0.000 HD
BRANCH  18  29
ATOM     22  C   UNL     1      48.862   8.791  14.413  0.00  0.00    +0.000 A 
ATOM     23  N   UNL     1      48.912  10.074  13.998  0.00  0.00    +0.000 NA
ATOM     24  C   UNL     1      49.106  11.024  14.915  0.00  0.00    +0.000 A 
ATOM     25  N   UNL     1      49.276  10.853  16.220  0.00  0.00    +0.000 NA
ATOM     26  C   UNL     1      49.210   9.564  16.594  0.00  0.00    +0.000 A 
ATOM     27  S   UNL     1      49.425   9.153  18.227  0.00  0.00    +0.000 S 
ATOM     28  C   UNL     1      49.184   7.503  17.895  0.00  0.00    +0.000 A 
ATOM     29  C   UNL     1      48.922   7.228  16.557  0.00  0.00    +0.000 A 
ATOM     30  C   UNL     1      48.985   8.462  15.773  0.00  0.00    +0.000 A 
BRANCH  22  32
ATOM     31  C   UNL     1      48.524   8.285  12.141  0.00  0.00    +0.000 C 
ATOM     32  O   UNL     1      48.717   7.798  13.467  0.00  0.00    +0.000 OA
ENDBRANCH  22  32
ENDBRANCH  18  29
ENDBRANCH   1  20
TORSDOF 8
ENDMDL
MODEL 6
REMARK VINA RESULT:    -7.254      2.529      3.517
REMARK INTER + INTRA:         -12.247
REMARK INTER:                 -11.116
REMARK INTRA:                  -1.132
REMARK UNBOUND:                -1.601
REMARK  Name = 
REMARK  9 active torsions:
REMARK  status: ('A' for Active; 'I' for Inactive)
REMARK    1  A    between atoms: C_1  and  O_2
REMARK    2  A    between atoms: O_2  and  C_3
REMARK    3  A    between atoms: C_10  and  C_11
REMARK    4  A    between atoms: N_13  and  C_14
REMARK    5  A    between atoms: C_14  and  C_15
REMARK    6  A    between atoms: C_18  and  C_19
REMARK    7  A    between atoms: C_19  and  N_20
REMARK    8  A    between atoms: N_20  and  C_21
REMARK    9  A    between atoms: C_21  and  C_22
REMARK                            x       y       z     vdW  Elec       q    Type
REMARK                         _______ _______ _______ _____ _____    ______ ____
ROOT
ATOM      1  C   UNL     1      47.419   4.428  14.818  0.00  0.00    +0.000 C 
ENDROOT
BRANCH   1   2
ATOM      2  C   UNL     1      46.410   4.461  13.694  0.00  0.00    +0.000 A 
ATOM      3  C   UNL     1      46.045   3.283  13.029  0.00  0.00    +0.000 A 
ATOM      4  C   UNL     1      45.168   3.320  11.936  0.00  0.00    +0.000 A 
ATOM      5  C   UNL     1      44.648   4.536  11.472  0.00  0.00    +0.000 A 
ATOM      6  C   UNL     1      45.000   5.712  12.148  0.00  0.00    +0.000 A 
ATOM      7  C   UNL     1      45.868   5.675  13.248  0.00  0.00    +0.000 A 
BRANCH   5   8
ATOM      8  C   UNL     1      43.740   4.583  10.259  0.00  0.00    +0.000 C 
BRANCH   8   9
ATOM      9  N   UNL     1      44.158   3.613   9.254  0.00  0.00    +0.000 NA
ATOM     10  H   UNL     1      43.339   3.296   8.739  0.00  0.00    +0.000 HD
BRANCH   9  11
ATOM     11  C   UNL     1      45.122   4.179   8.311  0.00  0.00    +0.000 C 
BRANCH  11  12
ATOM     12  C   UNL     1      46.047   3.102   7.799  0.00  0.00    +0.000 A 
ATOM     13  C   UNL     1      45.925   1.777   8.230  0.00  0.00    +0.000 A 
ATOM     14  C   UNL     1      46.821   0.835   7.747  0.00  0.00    +0.000 A 
ATOM     15  N   UNL     1      47.814   1.116   6.876  0.00  0.00    +0.000 NA
ATOM     16  C   UNL     1      47.914   2.399   6.469  0.00  0.00    +0.000 A 
ATOM     17  C   UNL     1      47.065   3.410   6.889  0.00  0.00    +0.000 A 
ENDBRANCH  11  12
ENDBRANCH   9  11
ENDBRANCH   8   9
ENDBRANCH   5   8
ENDBRANCH   1   2
BRANCH   1  20
ATOM     18  C   UNL     1      48.653   6.096  16.167  0.00  0.00    +0.000 C 
ATOM     19  O   UNL     1      49.578   5.308  16.364  0.00  0.00    +0.000 OA
ATOM     20  N   UNL     1      47.565   5.735  15.419  0.00  0.00    +0.000 N 
ATOM     21  H   UNL     1      46.858   6.423  15.200  0.00  0.00    +0.000 HD
BRANCH  18  29
ATOM     22  C   UNL     1      47.743   7.360  19.238  0.00  0.00    +0.000 A 
ATOM     23  N   UNL     1      47.566   8.086  20.362  0.00  0.00    +0.000 NA
ATOM     24  C   UNL     1      47.903   9.377  20.336  0.00  0.00    +0.000 A 
ATOM     25  N   UNL     1      48.391  10.056  19.305  0.00  0.00    +0.000 NA
ATOM     26  C   UNL     1      48.561   9.296  18.209  0.00  0.00    +0.000 A 
ATOM     27  S   UNL     1      49.158  10.001  16.785  0.00  0.00    +0.000 S 
ATOM     28  C   UNL     1      49.111   8.511  15.969  0.00  0.00    +0.000 A 
ATOM     29  C   UNL     1      48.663   7.451  16.750  0.00  0.00    +0.000 A 
ATOM     30  C   UNL     1      48.290   7.937  18.080  0.00  0.00    +0.000 A 
BRANCH  22  32
ATOM     31  C   UNL     1      48.321   5.142  19.763  0.00  0.00    +0.000 C 
ATOM     32  O   UNL     1      47.347   6.040  19.238  0.00  0.00    +0.000 OA
ENDBRANCH  22  32
ENDBRANCH  18  29
ENDBRANCH   1  20
TORSDOF 8
ENDMDL
MODEL 7
REMARK VINA RESULT:    -6.976      3.256      7.514
REMARK INTER + INTRA:         -11.840
REMARK INTER:                 -10.158
REMARK INTRA:                  -1.681
REMARK UNBOUND:                -1.601
REMARK  Name = 
REMARK  9 active torsions:
REMARK  status: ('A' for Active; 'I' for Inactive)
REMARK    1  A    between atoms: C_1  and  O_2
REMARK    2  A    between atoms: O_2  and  C_3
REMARK    3  A    between atoms: C_10  and  C_11
REMARK    4  A    between atoms: N_13  and  C_14
REMARK    5  A    between atoms: C_14  and  C_15
REMARK    6  A    between atoms: C_18  and  C_19
REMARK    7  A    between atoms: C_19  and  N_20
REMARK    8  A    between atoms: N_20  and  C_21
REMARK    9  A    between atoms: C_21  and  C_22
REMARK                            x       y       z     vdW  Elec       q    Type
REMARK                         _______ _______ _______ _____ _____    ______ ____
ROOT
ATOM      1  C   UNL     1      48.373   8.207  11.952  0.00  0.00    +0.000 C 
ENDROOT
BRANCH   1   2
ATOM      2  C   UNL     1      48.552   8.032  13.443  0.00  0.00    +0.000 A 
ATOM      3  C   UNL     1      49.047   6.830  13.966  0.00  0.00    +0.000 A 
ATOM      4  C   UNL     1      49.141   6.635  15.350  0.00  0.00    +0.000 A 
ATOM      5  C   UNL     1      48.728   7.632  16.245  0.00  0.00    +0.000 A 
ATOM      6  C   UNL     1      48.249   8.840  15.722  0.00  0.00    +0.000 A 
ATOM      7  C   UNL     1      48.165   9.039  14.338  0.00  0.00    +0.000 A 
BRANCH   5   8
ATOM      8  C   UNL     1      48.782   7.404  17.743  0.00  0.00    +0.000 C 
BRANCH   8   9
ATOM      9  N   UNL     1      47.985   6.245  18.126  0.00  0.00    +0.000 NA
ATOM     10  H   UNL     1      47.596   5.819  17.287  0.00  0.00    +0.000 HD
BRANCH   9  11
ATOM     11  C   UNL     1      48.776   5.245  18.842  0.00  0.00    +0.000 C 
BRANCH  11  12
ATOM     12  C   UNL     1      49.017   4.042  17.962  0.00  0.00    +0.000 A 
ATOM     13  C   UNL     1      50.275   3.435  17.893  0.00  0.00    +0.000 A 
ATOM     14  C   UNL     1      50.445   2.349  17.046  0.00  0.00    +0.000 A 
ATOM     15  N   UNL     1      49.463   1.833  16.277  0.00  0.00    +0.000 NA
ATOM     16  C   UNL     1      48.255   2.430  16.359  0.00  0.00    +0.000 A 
ATOM     17  C   UNL     1      47.984   3.514  17.179  0.00  0.00    +0.000 A 
ENDBRANCH  11  12
ENDBRANCH   9  11
ENDBRANCH   8   9
ENDBRANCH   5   8
ENDBRANCH   1   2
BRANCH   1  20
ATOM     18  C   UNL     1      46.305   6.988  11.351  0.00  0.00    +0.000 C 
ATOM     19  O   UNL     1      45.598   7.881  11.817  0.00  0.00    +0.000 OA
ATOM     20  N   UNL     1      47.671   7.079  11.381  0.00  0.00    +0.000 N 
ATOM     21  H   UNL     1      48.230   6.376  10.919  0.00  0.00    +0.000 HD
BRANCH  18  29
ATOM     22  C   UNL     1      44.507   4.362  12.666  0.00  0.00    +0.000 A 
ATOM     23  N   UNL     1      43.714   3.294  12.895  0.00  0.00    +0.000 NA
ATOM     24  C   UNL     1      43.361   2.539  11.851  0.00  0.00    +0.000 A 
ATOM     25  N   UNL     1      43.718   2.708  10.585  0.00  0.00    +0.000 NA
ATOM     26  C   UNL     1      44.498   3.787  10.398  0.00  0.00    +0.000 A 
ATOM     27  S   UNL     1      45.069   4.149   8.841  0.00  0.00    +0.000 S 
ATOM     28  C   UNL     1      45.871   5.538   9.404  0.00  0.00    +0.000 A 
ATOM     29  C   UNL     1      45.715   5.768  10.767  0.00  0.00    +0.000 A 
ATOM     30  C   UNL     1      44.929   4.689  11.367  0.00  0.00    +0.000 A 
BRANCH  22  32
ATOM     31  C   UNL     1      46.207   4.756  14.242  0.00  0.00    +0.000 C 
ATOM     32  O   UNL     1      44.921   5.116  13.744  0.00  0.00    +0.000 OA
ENDBRANCH  22  32
ENDBRANCH  18  29
ENDBRANCH   1  20
TORSDOF 8
ENDMDL
MODEL 8
REMARK VINA RESULT:    -6.897      1.751      2.268
REMARK INTER + INTRA:         -11.724
REMARK INTER:                 -10.647
REMARK INTRA:                  -1.077
REMARK UNBOUND:                -1.601
REMARK  Name = 
REMARK  9 active torsions:
REMARK  status: ('A' for Active; 'I' for Inactive)
REMARK    1  A    between atoms: C_1  and  O_2
REMARK    2  A    between atoms: O_2  and  C_3
REMARK    3  A    between atoms: C_10  and  C_11
REMARK    4  A    between atoms: N_13  and  C_14
REMARK    5  A    between atoms: C_14  and  C_15
REMARK    6  A    between atoms: C_18  and  C_19
REMARK    7  A    between atoms: C_19  and  N_20
REMARK    8  A    between atoms: N_20  and  C_21
REMARK    9  A    between atoms: C_21  and  C_22
REMARK                            x       y       z     vdW  Elec       q    Type
REMARK                         _______ _______ _______ _____ _____    ______ ____
ROOT
ATOM      1  C   UNL     1      47.947   8.177  14.316  0.00  0.00    +0.000 C 
ENDROOT
BRANCH   1   2
ATOM      2  C   UNL     1      47.209   7.338  13.299  0.00  0.00    +0.000 A 
ATOM      3  C   UNL     1      46.482   7.944  12.266  0.00  0.00    +0.000 A 
ATOM      4  C   UNL     1      45.733   7.173  11.368  0.00  0.00    +0.000 A 
ATOM      5  C   UNL     1      45.680   5.777  11.491  0.00  0.00    +0.000 A 
ATOM      6  C   UNL     1      46.421   5.170  12.513  0.00  0.00    +0.000 A 
ATOM      7  C   UNL     1      47.178   5.940  13.405  0.00  0.00    +0.000 A 
BRANCH   5   8
ATOM      8  C   UNL     1      44.830   4.945  10.550  0.00  0.00    +0.000 C 
BRANCH   8   9
ATOM      9  N   UNL     1      45.413   4.905   9.215  0.00  0.00    +0.000 NA
ATOM     10  H   UNL     1      46.405   4.692   9.293  0.00  0.00    +0.000 HD
BRANCH   9  11
ATOM     11  C   UNL     1      44.777   3.897   8.367  0.00  0.00    +0.000 C 
BRANCH  11  12
ATOM     12  C   UNL     1      45.823   3.005   7.742  0.00  0.00    +0.000 A 
ATOM     13  C   UNL     1      46.031   1.701   8.202  0.00  0.00    +0.000 A 
ATOM     14  C   UNL     1      47.025   0.936   7.609  0.00  0.00    +0.000 A 
ATOM     15  N   UNL     1      47.812   1.373   6.603  0.00  0.00    +0.000 NA
ATOM     16  C   UNL     1      47.595   2.634   6.170  0.00  0.00    +0.000 A 
ATOM     17  C   UNL     1      46.624   3.472   6.694  0.00  0.00    +0.000 A 
ENDBRANCH  11  12
ENDBRANCH   9  11
ENDBRANCH   8   9
ENDBRANCH   5   8
ENDBRANCH   1   2
BRANCH   1  20
ATOM     18  C   UNL     1      49.597   7.816  16.125  0.00  0.00    +0.000 C 
ATOM     19  O   UNL     1      49.309   8.889  16.654  0.00  0.00    +0.000 OA
ATOM     20  N   UNL     1      48.972   7.402  14.979  0.00  0.00    +0.000 N 
ATOM     21  H   UNL     1      49.163   6.482  14.609  0.00  0.00    +0.000 HD
BRANCH  18  29
ATOM     22  C   UNL     1      49.691   4.489  17.007  0.00  0.00    +0.000 A 
ATOM     23  N   UNL     1      50.027   3.221  17.325  0.00  0.00    +0.000 NA
ATOM     24  C   UNL     1      51.292   2.975  17.675  0.00  0.00    +0.000 A 
ATOM     25  N   UNL     1      52.282   3.854  17.764  0.00  0.00    +0.000 NA
ATOM     26  C   UNL     1      51.909   5.102  17.430  0.00  0.00    +0.000 A 
ATOM     27  S   UNL     1      53.043   6.364  17.506  0.00  0.00    +0.000 S 
ATOM     28  C   UNL     1      51.897   7.491  16.952  0.00  0.00    +0.000 A 
ATOM     29  C   UNL     1      50.648   6.943  16.683  0.00  0.00    +0.000 A 
ATOM     30  C   UNL     1      50.647   5.518  17.017  0.00  0.00    +0.000 A 
BRANCH  22  32
ATOM     31  C   UNL     1      47.584   3.603  16.454  0.00  0.00    +0.000 C 
ATOM     32  O   UNL     1      48.376   4.763  16.697  0.00  0.00    +0.000 OA
ENDBRANCH  22  32
ENDBRANCH  18  29
ENDBRANCH   1  20
TORSDOF 8
ENDMDL
MODEL 9
REMARK VINA RESULT:    -6.369      3.186      5.396
REMARK INTER + INTRA:         -10.948
REMARK INTER:                  -9.428
REMARK INTRA:                  -1.520
REMARK UNBOUND:                -1.601
REMARK  Name = 
REMARK  9 active torsions:
REMARK  status: ('A' for Active; 'I' for Inactive)
REMARK    1  A    between atoms: C_1  and  O_2
REMARK    2  A    between atoms: O_2  and  C_3
REMARK    3  A    between atoms: C_10  and  C_11
REMARK    4  A    between atoms: N_13  and  C_14
REMARK    5  A    between atoms: C_14  and  C_15
REMARK    6  A    between atoms: C_18  and  C_19
REMARK    7  A    between atoms: C_19  and  N_20
REMARK    8  A    between atoms: N_20  and  C_21
REMARK    9  A    between atoms: C_21  and  C_22
REMARK                            x       y       z     vdW  Elec       q    Type
REMARK                         _______ _______ _______ _____ _____    ______ ____
ROOT
ATOM      1  C   UNL     1      47.870   3.797  17.397  0.00  0.00    +0.000 C 
ENDROOT
BRANCH   1   2
ATOM      2  C   UNL     1      47.712   4.574  16.111  0.00  0.00    +0.000 A 
ATOM      3  C   UNL     1      46.985   4.040  15.039  0.00  0.00    +0.000 A 
ATOM      4  C   UNL     1      46.901   4.723  13.818  0.00  0.00    +0.000 A 
ATOM      5  C   UNL     1      47.555   5.949  13.635  0.00  0.00    +0.000 A 
ATOM      6  C   UNL     1      48.268   6.492  14.713  0.00  0.00    +0.000 A 
ATOM      7  C   UNL     1      48.343   5.814  15.937  0.00  0.00    +0.000 A 
BRANCH   5   8
ATOM      8  C   UNL     1      47.507   6.665  12.299  0.00  0.00    +0.000 C 
BRANCH   8   9
ATOM      9  N   UNL     1      46.133   6.957  11.911  0.00  0.00    +0.000 NA
ATOM     10  H   UNL     1      46.022   7.965  11.818  0.00  0.00    +0.000 HD
BRANCH   9  11
ATOM     11  C   UNL     1      45.772   6.322  10.644  0.00  0.00    +0.000 C 
BRANCH  11  12
ATOM     12  C   UNL     1      44.848   5.154  10.890  0.00  0.00    +0.000 A 
ATOM     13  C   UNL     1      43.838   5.219  11.855  0.00  0.00    +0.000 A 
ATOM     14  C   UNL     1      43.036   4.105  12.057  0.00  0.00    +0.000 A 
ATOM     15  N   UNL     1      43.168   2.948  11.373  0.00  0.00    +0.000 NA
ATOM     16  C   UNL     1      44.145   2.905  10.443  0.00  0.00    +0.000 A 
ATOM     17  C   UNL     1      44.992   3.966  10.164  0.00  0.00    +0.000 A 
ENDBRANCH  11  12
ENDBRANCH   9  11
ENDBRANCH   8   9
ENDBRANCH   5   8
ENDBRANCH   1   2
BRANCH   1  20
ATOM     18  C   UNL     1      49.942   2.486  17.061  0.00  0.00    +0.000 C 
ATOM     19  O   UNL     1      49.386   1.743  16.253  0.00  0.00    +0.000 OA
ATOM     20  N   UNL     1      49.263   3.513  17.661  0.00  0.00    +0.000 N 
ATOM     21  H   UNL     1      49.759   4.161  18.256  0.00  0.00    +0.000 HD
BRANCH  18  29
ATOM     22  C   UNL     1      52.502   4.638  17.883  0.00  0.00    +0.000 A 
ATOM     23  N   UNL     1      53.625   5.235  18.335  0.00  0.00    +0.000 NA
ATOM     24  C   UNL     1      54.650   4.457  18.691  0.00  0.00    +0.000 A 
ATOM     25  N   UNL     1      54.705   3.133  18.638  0.00  0.00    +0.000 NA
ATOM     26  C   UNL     1      53.565   2.576  18.193  0.00  0.00    +0.000 A 
ATOM     27  S   UNL     1      53.460   0.889  18.041  0.00  0.00    +0.000 S 
ATOM     28  C   UNL     1      51.850   0.988  17.503  0.00  0.00    +0.000 A 
ATOM     29  C   UNL     1      51.353   2.286  17.442  0.00  0.00    +0.000 A 
ATOM     30  C   UNL     1      52.401   3.238  17.812  0.00  0.00    +0.000 A 
BRANCH  22  32
ATOM     31  C   UNL     1      51.412   6.711  18.090  0.00  0.00    +0.000 C 
ATOM     32  O   UNL     1      51.458   5.433  17.461  0.00  0.00    +0.000 OA
ENDBRANCH  22  32
ENDBRANCH  18  29
ENDBRANCH   1  20
TORSDOF 8
ENDMDL
