MODEL 1
REMARK VINA RESULT:    -9.268      0.000      0.000
REMARK INTER + INTRA:         -11.638
REMARK INTER:                 -11.978
REMARK INTRA:                   0.340
REMARK UNBOUND:                 0.340
REMARK  Name = 
REMARK  5 active torsions:
REMARK  status: ('A' for Active; 'I' for Inactive)
REMARK    1  A    between atoms: C_2  and  C_4
REMARK    2  A    between atoms: C_7  and  O_8
REMARK    3  A    between atoms: O_8  and  C_9
REMARK    4  A    between atoms: C_9  and  C_10
REMARK    5  A    between atoms: C_14  and  C_15
REMARK                            x       y       z     vdW  Elec       q    Type
REMARK                         _______ _______ _______ _____ _____    ______ ____
ROOT
ATOM      1  C   UNL     1      43.893   4.891  11.244  0.00  0.00    +0.000 C 
ATOM      2  C   UNL     1      43.224   3.707  11.926  0.00  0.00    +0.000 C 
ATOM      3  C   UNL     1      42.639   5.074  12.071  0.00  0.00    +0.000 C 
ENDROOT
BRANCH   1   4
ATOM      4  C   UNL     1      45.234   5.382  11.769  0.00  0.00    +0.000 A 
ATOM      5  C   UNL     1      45.941   6.404  11.120  0.00  0.00    +0.000 A 
ATOM      6  C   UNL     1      47.122   6.918  11.653  0.00  0.00    +0.000 A 
ATOM      7  C   UNL     1      47.618   6.423  12.861  0.00  0.00    +0.000 A 
ATOM      8  C   UNL     1      46.948   5.407  13.561  0.00  0.00    +0.000 A 
ATOM      9  C   UNL     1      45.772   4.895  12.980  0.00  0.00    +0.000 A 
BRANCH   8  10
ATOM     10  C   UNL     1      47.414   4.946  14.880  0.00  0.00    +0.000 A 
ATOM     11  C   UNL     1      47.081   3.705  15.406  0.00  0.00    +0.000 A 
ATOM     12  N   UNL     1      47.505   3.227  16.597  0.00  0.00    +0.000 NA
ATOM     13  C   UNL     1      48.316   4.036  17.289  0.00  0.00    +0.000 A 
ATOM     14  N   UNL     1      48.717   5.257  16.908  0.00  0.00    +0.000 NA
ATOM     15  C   UNL     1      48.252   5.677  15.708  0.00  0.00    +0.000 A 
ENDBRANCH   8  10
ENDBRANCH   1   4
BRANCH   1  16
ATOM     16  O   UNL     1      43.751   4.789   9.807  0.00  0.00    +0.000 OA
BRANCH  16  20
ATOM     17  C   UNL     1      46.379   2.307   7.838  0.00  0.00    +0.000 A 
ATOM     18  C   UNL     1      45.478   1.780   8.767  0.00  0.00    +0.000 A 
ATOM     19  C   UNL     1      44.608   2.645   9.425  0.00  0.00    +0.000 A 
ATOM     20  C   UNL     1      44.666   4.001   9.131  0.00  0.00    +0.000 A 
ATOM     21  N   UNL     1      45.523   4.542   8.240  0.00  0.00    +0.000 NA
ATOM     22  C   UNL     1      46.377   3.681   7.627  0.00  0.00    +0.000 A 
BRANCH  17  24
ATOM     23  N   UNL     1      48.446   2.091   6.574  0.00  0.00    +0.000 N 
ATOM     24  C   UNL     1      47.342   1.469   7.091  0.00  0.00    +0.000 C 
ATOM     25  O   UNL     1      47.181   0.264   6.970  0.00  0.00    +0.000 OA
ATOM     26  H   UNL     1      49.143   1.485   6.157  0.00  0.00    +0.000 HD
ATOM     27  H   UNL     1      48.743   3.012   6.861  0.00  0.00    +0.000 HD
ENDBRANCH  17  24
ENDBRANCH  16  20
ENDBRANCH   1  16
TORSDOF 5
ENDMDL
MODEL 2
REMARK VINA RESULT:    -9.119      2.390      3.392
REMARK INTER + INTRA:         -11.444
REMARK INTER:                 -10.620
REMARK INTRA:                  -0.825
REMARK UNBOUND:                 0.340
REMARK  Name = 
REMARK  5 active torsions:
REMARK  status: ('A' for Active; 'I' for Inactive)
REMARK    1  A    between atoms: C_2  and  C_4
REMARK    2  A    between atoms: C_7  and  O_8
REMARK    3  A    between atoms: O_8  and  C_9
REMARK    4  A    between atoms: C_9  and  C_10
REMARK    5  A    between atoms: C_14  and  C_15
REMARK                            x       y       z     vdW  Elec       q    Type
REMARK                         _______ _______ _______ _____ _____    ______ ____
ROOT
ATOM      1  C   UNL     1      43.809   4.935  11.405  0.00  0.00    +0.000 C 
ATOM      2  C   UNL     1      42.510   5.321  12.098  0.00  0.00    +0.000 C 
ATOM      3  C   UNL     1      43.024   6.154  10.970  0.00  0.00    +0.000 C 
ENDROOT
BRANCH   1   4
ATOM      4  C   UNL     1      45.122   5.100  12.156  0.00  0.00    +0.000 A 
ATOM      5  C   UNL     1      45.593   4.107  13.026  0.00  0.00    +0.000 A 
ATOM      6  C   UNL     1      46.839   4.216  13.641  0.00  0.00    +0.000 A 
ATOM      7  C   UNL     1      47.650   5.325  13.389  0.00  0.00    +0.000 A 
ATOM      8  C   UNL     1      47.235   6.346  12.520  0.00  0.00    +0.000 A 
ATOM      9  C   UNL     1      45.960   6.215  11.936  0.00  0.00    +0.000 A 
BRANCH   8  10
ATOM     10  C   UNL     1      48.121   7.472  12.176  0.00  0.00    +0.000 A 
ATOM     11  C   UNL     1      47.661   8.769  12.003  0.00  0.00    +0.000 A 
ATOM     12  N   UNL     1      48.437   9.837  11.714  0.00  0.00    +0.000 NA
ATOM     13  C   UNL     1      49.748   9.587  11.606  0.00  0.00    +0.000 A 
ATOM     14  N   UNL     1      50.330   8.388  11.744  0.00  0.00    +0.000 NA
ATOM     15  C   UNL     1      49.496   7.361  12.028  0.00  0.00    +0.000 A 
ENDBRANCH   8  10
ENDBRANCH   1   4
BRANCH   1  16
ATOM     16  O   UNL     1      43.634   3.709  10.656  0.00  0.00    +0.000 OA
BRANCH  16  20
ATOM     17  C   UNL     1      46.330   2.719   7.709  0.00  0.00    +0.000 A 
ATOM     18  C   UNL     1      45.757   1.720   8.500  0.00  0.00    +0.000 A 
ATOM     19  C   UNL     1      44.857   2.086   9.496  0.00  0.00    +0.000 A 
ATOM     20  C   UNL     1      44.558   3.431   9.664  0.00  0.00    +0.000 A 
ATOM     21  N   UNL     1      45.091   4.420   8.917  0.00  0.00    +0.000 NA
ATOM     22  C   UNL     1      45.985   4.040   7.967  0.00  0.00    +0.000 A 
BRANCH  17  24
ATOM     23  N   UNL     1      47.124   3.082   5.438  0.00  0.00    +0.000 N 
ATOM     24  C   UNL     1      47.298   2.430   6.628  0.00  0.00    +0.000 C 
ATOM     25  O   UNL     1      48.239   1.668   6.800  0.00  0.00    +0.000 OA
ATOM     26  H   UNL     1      47.854   2.950   4.748  0.00  0.00    +0.000 HD
ATOM     27  H   UNL     1      46.529   3.891   5.336  0.00  0.00    +0.000 HD
ENDBRANCH  17  24
ENDBRANCH  16  20
ENDBRANCH   1  16
TORSDOF 5
ENDMDL
MODEL 3
REMARK VINA RESULT:    -8.473      1.722      2.308
REMARK INTER + INTRA:         -10.609
REMARK INTER:                 -10.990
REMARK INTRA:                   0.381
REMARK UNBOUND:                 0.340
REMARK  Name = 
REMARK  5 active torsions:
REMARK  status: ('A' for Active; 'I' for Inactive)
REMARK    1  A    between atoms: C_2  and  C_4
REMARK    2  A    between atoms: C_7  and  O_8
REMARK    3  A    between atoms: O_8  and  C_9
REMARK    4  A    between atoms: C_9  and  C_10
REMARK    5  A    between atoms: C_14  and  C_15
REMARK                            x       y       z     vdW  Elec       q    Type
REMARK                         _______ _______ _______ _____ _____    ______ ____
ROOT
ATOM      1  C   UNL     1      44.180   4.466  11.486  0.00  0.00    +0.000 C 
ATOM      2  C   UNL     1      44.775   3.267  12.211  0.00  0.00    +0.000 C 
ATOM      3  C   UNL     1      43.467   3.832  12.661  0.00  0.00    +0.000 C 
ENDROOT
BRANCH   1   4
ATOM      4  C   UNL     1      44.848   5.824  11.640  0.00  0.00    +0.000 A 
ATOM      5  C   UNL     1      44.196   7.004  11.256  0.00  0.00    +0.000 A 
ATOM      6  C   UNL     1      44.770   8.254  11.485  0.00  0.00    +0.000 A 
ATOM      7  C   UNL     1      46.012   8.350  12.115  0.00  0.00    +0.000 A 
ATOM      8  C   UNL     1      46.707   7.203  12.530  0.00  0.00    +0.000 A 
ATOM      9  C   UNL     1      46.110   5.957  12.261  0.00  0.00    +0.000 A 
BRANCH   8  10
ATOM     10  C   UNL     1      47.973   7.299  13.277  0.00  0.00    +0.000 A 
ATOM     11  C   UNL     1      48.218   6.584  14.441  0.00  0.00    +0.000 A 
ATOM     12  N   UNL     1      49.371   6.618  15.146  0.00  0.00    +0.000 NA
ATOM     13  C   UNL     1      50.331   7.405  14.645  0.00  0.00    +0.000 A 
ATOM     14  N   UNL     1      50.234   8.152  13.537  0.00  0.00    +0.000 NA
ATOM     15  C   UNL     1      49.052   8.075  12.881  0.00  0.00    +0.000 A 
ENDBRANCH   8  10
ENDBRANCH   1   4
BRANCH   1  16
ATOM     16  O   UNL     1      43.762   4.090  10.153  0.00  0.00    +0.000 OA
BRANCH  16  20
ATOM     17  C   UNL     1      46.626   2.741   7.524  0.00  0.00    +0.000 A 
ATOM     18  C   UNL     1      45.933   1.836   8.331  0.00  0.00    +0.000 A 
ATOM     19  C   UNL     1      44.978   2.323   9.218  0.00  0.00    +0.000 A 
ATOM     20  C   UNL     1      44.745   3.690   9.266  0.00  0.00    +0.000 A 
ATOM     21  N   UNL     1      45.395   4.591   8.499  0.00  0.00    +0.000 NA
ATOM     22  C   UNL     1      46.339   4.095   7.658  0.00  0.00    +0.000 A 
BRANCH  17  24
ATOM     23  N   UNL     1      47.782   3.059   5.407  0.00  0.00    +0.000 N 
ATOM     24  C   UNL     1      47.660   2.321   6.552  0.00  0.00    +0.000 C 
ATOM     25  O   UNL     1      48.402   1.377   6.778  0.00  0.00    +0.000 OA
ATOM     26  H   UNL     1      48.561   2.820   4.805  0.00  0.00    +0.000 HD
ATOM     27  H   UNL     1      47.375   3.976   5.297  0.00  0.00    +0.000 HD
ENDBRANCH  17  24
ENDBRANCH  16  20
ENDBRANCH   1  16
TORSDOF 5
ENDMDL
MODEL 4
REMARK VINA RESULT:    -7.965      2.409      7.330
REMARK INTER + INTRA:          -9.954
REMARK INTER:                  -9.396
REMARK INTRA:                  -0.558
REMARK UNBOUND:                 0.340
REMARK  Name = 
REMARK  5 active torsions:
REMARK  status: ('A' for Active; 'I' for Inactive)
REMARK    1  A    between atoms: C_2  and  C_4
REMARK    2  A    between atoms: C_7  and  O_8
REMARK    3  A    between atoms: O_8  and  C_9
REMARK    4  A    between atoms: C_9  and  C_10
REMARK    5  A    between atoms: C_14  and  C_15
REMARK                            x       y       z     vdW  Elec       q    Type
REMARK                         _______ _______ _______ _____ _____    ______ ____
ROOT
ATOM      1  C   UNL     1      46.267   7.148  12.282  0.00  0.00    +0.000 C 
ATOM      2  C   UNL     1      46.415   8.559  11.732  0.00  0.00    +0.000 C 
ATOM      3  C   UNL     1      45.669   8.335  13.007  0.00  0.00    +0.000 C 
ENDROOT
BRANCH   1   4
ATOM      4  C   UNL     1      45.365   6.164  11.553  0.00  0.00    +0.000 A 
ATOM      5  C   UNL     1      43.975   6.182  11.729  0.00  0.00    +0.000 A 
ATOM      6  C   UNL     1      43.141   5.344  10.990  0.00  0.00    +0.000 A 
ATOM      7  C   UNL     1      43.685   4.472  10.045  0.00  0.00    +0.000 A 
ATOM      8  C   UNL     1      45.069   4.417   9.818  0.00  0.00    +0.000 A 
ATOM      9  C   UNL     1      45.883   5.259  10.600  0.00  0.00    +0.000 A 
BRANCH   8  10
ATOM     10  C   UNL     1      45.643   3.568   8.760  0.00  0.00    +0.000 A 
ATOM     11  C   UNL     1      46.222   4.084   7.610  0.00  0.00    +0.000 A 
ATOM     12  N   UNL     1      46.784   3.348   6.625  0.00  0.00    +0.000 NA
ATOM     13  C   UNL     1      46.772   2.023   6.815  0.00  0.00    +0.000 A 
ATOM     14  N   UNL     1      46.247   1.388   7.871  0.00  0.00    +0.000 NA
ATOM     15  C   UNL     1      45.696   2.183   8.818  0.00  0.00    +0.000 A 
ENDBRANCH   8  10
ENDBRANCH   1   4
BRANCH   1  16
ATOM     16  O   UNL     1      47.548   6.649  12.736  0.00  0.00    +0.000 OA
BRANCH  16  20
ATOM     17  C   UNL     1      47.535   4.318  16.127  0.00  0.00    +0.000 A 
ATOM     18  C   UNL     1      46.755   3.958  15.025  0.00  0.00    +0.000 A 
ATOM     19  C   UNL     1      46.772   4.772  13.896  0.00  0.00    +0.000 A 
ATOM     20  C   UNL     1      47.566   5.910  13.905  0.00  0.00    +0.000 A 
ATOM     21  N   UNL     1      48.332   6.285  14.951  0.00  0.00    +0.000 NA
ATOM     22  C   UNL     1      48.282   5.488  16.050  0.00  0.00    +0.000 A 
BRANCH  17  24
ATOM     23  N   UNL     1      48.624   3.752  18.228  0.00  0.00    +0.000 N 
ATOM     24  C   UNL     1      47.583   3.519  17.371  0.00  0.00    +0.000 C 
ATOM     25  O   UNL     1      46.708   2.711  17.645  0.00  0.00    +0.000 OA
ATOM     26  H   UNL     1      48.583   3.272  19.119  0.00  0.00    +0.000 HD
ATOM     27  H   UNL     1      49.214   4.569  18.167  0.00  0.00    +0.000 HD
ENDBRANCH  17  24
ENDBRANCH  16  20
ENDBRANCH   1  16
TORSDOF 5
ENDMDL
MODEL 5
REMARK VINA RESULT:    -7.284      3.083      7.854
REMARK INTER + INTRA:          -9.074
REMARK INTER:                  -8.369
REMARK INTRA:                  -0.705
REMARK UNBOUND:                 0.340
REMARK  Name = 
REMARK  5 active torsions:
REMARK  status: ('A' for Active; 'I' for Inactive)
REMARK    1  A    between atoms: C_2  and  C_4
REMARK    2  A    between atoms: C_7  and  O_8
REMARK    3  A    between atoms: O_8  and  C_9
REMARK    4  A    between atoms: C_9  and  C_10
REMARK    5  A    between atoms: C_14  and  C_15
REMARK                            x       y       z     vdW  Elec       q    Type
REMARK                         _______ _______ _______ _____ _____    ______ ____
ROOT
ATOM      1  C   UNL     1      48.453   7.775  12.907  0.00  0.00    +0.000 C 
ATOM      2  C   UNL     1      49.364   8.635  12.043  0.00  0.00    +0.000 C 
ATOM      3  C   UNL     1      48.868   9.162  13.350  0.00  0.00    +0.000 C 
ENDROOT
BRANCH   1   4
ATOM      4  C   UNL     1      47.028   7.516  12.443  0.00  0.00    +0.000 A 
ATOM      5  C   UNL     1      46.017   8.469  12.627  0.00  0.00    +0.000 A 
ATOM      6  C   UNL     1      44.734   8.271  12.118  0.00  0.00    +0.000 A 
ATOM      7  C   UNL     1      44.438   7.110  11.401  0.00  0.00    +0.000 A 
ATOM      8  C   UNL     1      45.412   6.125  11.177  0.00  0.00    +0.000 A 
ATOM      9  C   UNL     1      46.689   6.347  11.726  0.00  0.00    +0.000 A 
BRANCH   8  10
ATOM     10  C   UNL     1      45.133   4.942  10.343  0.00  0.00    +0.000 A 
ATOM     11  C   UNL     1      44.353   3.880  10.777  0.00  0.00    +0.000 A 
ATOM     12  N   UNL     1      44.048   2.789  10.040  0.00  0.00    +0.000 NA
ATOM     13  C   UNL     1      44.544   2.773   8.797  0.00  0.00    +0.000 A 
ATOM     14  N   UNL     1      45.312   3.724   8.248  0.00  0.00    +0.000 NA
ATOM     15  C   UNL     1      45.584   4.787   9.040  0.00  0.00    +0.000 A 
ENDBRANCH   8  10
ENDBRANCH   1   4
BRANCH   1  16
ATOM     16  O   UNL     1      49.185   6.644  13.437  0.00  0.00    +0.000 OA
BRANCH  16  20
ATOM     17  C   UNL     1      48.259   5.496  17.279  0.00  0.00    +0.000 A 
ATOM     18  C   UNL     1      49.190   6.513  17.056  0.00  0.00    +0.000 A 
ATOM     19  C   UNL     1      49.490   6.873  15.746  0.00  0.00    +0.000 A 
ATOM     20  C   UNL     1      48.852   6.209  14.707  0.00  0.00    +0.000 A 
ATOM     21  N   UNL     1      47.947   5.223  14.888  0.00  0.00    +0.000 NA
ATOM     22  C   UNL     1      47.687   4.874  16.175  0.00  0.00    +0.000 A 
BRANCH  17  24
ATOM     23  N   UNL     1      46.666   5.460  19.117  0.00  0.00    +0.000 N 
ATOM     24  C   UNL     1      47.875   5.042  18.634  0.00  0.00    +0.000 C 
ATOM     25  O   UNL     1      48.591   4.293  19.283  0.00  0.00    +0.000 OA
ATOM     26  H   UNL     1      46.376   5.057  20.000  0.00  0.00    +0.000 HD
ATOM     27  H   UNL     1      45.947   5.859  18.531  0.00  0.00    +0.000 HD
ENDBRANCH  17  24
ENDBRANCH  16  20
ENDBRANCH   1  16
TORSDOF 5
ENDMDL
MODEL 6
REMARK VINA RESULT:    -7.240      3.049      4.752
REMARK INTER + INTRA:          -9.016
REMARK INTER:                  -8.300
REMARK INTRA:                  -0.716
REMARK UNBOUND:                 0.340
REMARK  Name = 
REMARK  5 active torsions:
REMARK  status: ('A' for Active; 'I' for Inactive)
REMARK    1  A    between atoms: C_2  and  C_4
REMARK    2  A    between atoms: C_7  and  O_8
REMARK    3  A    between atoms: O_8  and  C_9
REMARK    4  A    between atoms: C_9  and  C_10
REMARK    5  A    between atoms: C_14  and  C_15
REMARK                            x       y       z     vdW  Elec       q    Type
REMARK                         _______ _______ _______ _____ _____    ______ ____
ROOT
ATOM      1  C   UNL     1      48.006   8.078  12.623  0.00  0.00    +0.000 C 
ATOM      2  C   UNL     1      48.809   9.030  11.747  0.00  0.00    +0.000 C 
ATOM      3  C   UNL     1      48.993   7.555  11.601  0.00  0.00    +0.000 C 
ENDROOT
BRANCH   1   4
ATOM      4  C   UNL     1      48.328   7.995  14.107  0.00  0.00    +0.000 A 
ATOM      5  C   UNL     1      48.212   9.116  14.941  0.00  0.00    +0.000 A 
ATOM      6  C   UNL     1      48.415   9.018  16.317  0.00  0.00    +0.000 A 
ATOM      7  C   UNL     1      48.731   7.785  16.892  0.00  0.00    +0.000 A 
ATOM      8  C   UNL     1      48.851   6.627  16.108  0.00  0.00    +0.000 A 
ATOM      9  C   UNL     1      48.664   6.768  14.720  0.00  0.00    +0.000 A 
BRANCH   8  10
ATOM     10  C   UNL     1      49.092   5.307  16.717  0.00  0.00    +0.000 A 
ATOM     11  C   UNL     1      48.169   4.272  16.665  0.00  0.00    +0.000 A 
ATOM     12  N   UNL     1      48.354   3.038  17.184  0.00  0.00    +0.000 NA
ATOM     13  C   UNL     1      49.537   2.833  17.776  0.00  0.00    +0.000 A 
ATOM     14  N   UNL     1      50.518   3.737  17.903  0.00  0.00    +0.000 NA
ATOM     15  C   UNL     1      50.266   4.953  17.365  0.00  0.00    +0.000 A 
ENDBRANCH   8  10
ENDBRANCH   1   4
BRANCH   1  16
ATOM     16  O   UNL     1      46.607   8.120  12.257  0.00  0.00    +0.000 OA
BRANCH  16  20
ATOM     17  C   UNL     1      44.734   4.510  11.622  0.00  0.00    +0.000 A 
ATOM     18  C   UNL     1      45.236   5.240  10.542  0.00  0.00    +0.000 A 
ATOM     19  C   UNL     1      45.855   6.463  10.786  0.00  0.00    +0.000 A 
ATOM     20  C   UNL     1      45.954   6.910  12.096  0.00  0.00    +0.000 A 
ATOM     21  N   UNL     1      45.482   6.230  13.162  0.00  0.00    +0.000 NA
ATOM     22  C   UNL     1      44.862   5.051  12.896  0.00  0.00    +0.000 A 
BRANCH  17  24
ATOM     23  N   UNL     1      43.788   2.494  12.601  0.00  0.00    +0.000 N 
ATOM     24  C   UNL     1      44.060   3.203  11.463  0.00  0.00    +0.000 C 
ATOM     25  O   UNL     1      43.723   2.788  10.364  0.00  0.00    +0.000 OA
ATOM     26  H   UNL     1      43.236   1.654  12.480  0.00  0.00    +0.000 HD
ATOM     27  H   UNL     1      43.816   2.903  13.524  0.00  0.00    +0.000 HD
ENDBRANCH  17  24
ENDBRANCH  16  20
ENDBRANCH   1  16
TORSDOF 5
ENDMDL
MODEL 7
REMARK VINA RESULT:    -7.086      1.684      2.561
REMARK INTER + INTRA:          -8.817
REMARK INTER:                  -8.518
REMARK INTRA:                  -0.300
REMARK UNBOUND:                 0.340
REMARK  Name = 
REMARK  5 active torsions:
REMARK  status: ('A' for Active; 'I' for Inactive)
REMARK    1  A    between atoms: C_2  and  C_4
REMARK    2  A    between atoms: C_7  and  O_8
REMARK    3  A    between atoms: O_8  and  C_9
REMARK    4  A    between atoms: C_9  and  C_10
REMARK    5  A    between atoms: C_14  and  C_15
REMARK                            x       y       z     vdW  Elec       q    Type
REMARK                         _______ _______ _______ _____ _____    ______ ____
ROOT
ATOM      1  C   UNL     1      44.842   5.694  11.347  0.00  0.00    +0.000 C 
ATOM      2  C   UNL     1      43.843   6.813  11.606  0.00  0.00    +0.000 C 
ATOM      3  C   UNL     1      45.071   7.086  10.799  0.00  0.00    +0.000 C 
ENDROOT
BRANCH   1   4
ATOM      4  C   UNL     1      45.687   5.179  12.503  0.00  0.00    +0.000 A 
ATOM      5  C   UNL     1      45.775   3.809  12.787  0.00  0.00    +0.000 A 
ATOM      6  C   UNL     1      46.623   3.331  13.786  0.00  0.00    +0.000 A 
ATOM      7  C   UNL     1      47.412   4.220  14.519  0.00  0.00    +0.000 A 
ATOM      8  C   UNL     1      47.372   5.601  14.273  0.00  0.00    +0.000 A 
ATOM      9  C   UNL     1      46.487   6.051  13.274  0.00  0.00    +0.000 A 
BRANCH   8  10
ATOM     10  C   UNL     1      48.268   6.535  14.977  0.00  0.00    +0.000 A 
ATOM     11  C   UNL     1      48.493   7.834  14.546  0.00  0.00    +0.000 A 
ATOM     12  N   UNL     1      49.283   8.735  15.172  0.00  0.00    +0.000 NA
ATOM     13  C   UNL     1      49.868   8.307  16.297  0.00  0.00    +0.000 A 
ATOM     14  N   UNL     1      49.745   7.083  16.828  0.00  0.00    +0.000 NA
ATOM     15  C   UNL     1      48.943   6.229  16.149  0.00  0.00    +0.000 A 
ENDBRANCH   8  10
ENDBRANCH   1   4
BRANCH   1  16
ATOM     16  O   UNL     1      44.266   4.701  10.465  0.00  0.00    +0.000 OA
BRANCH  16  20
ATOM     17  C   UNL     1      46.539   3.167   7.397  0.00  0.00    +0.000 A 
ATOM     18  C   UNL     1      45.910   2.309   8.301  0.00  0.00    +0.000 A 
ATOM     19  C   UNL     1      45.156   2.856   9.335  0.00  0.00    +0.000 A 
ATOM     20  C   UNL     1      45.054   4.237   9.428  0.00  0.00    +0.000 A 
ATOM     21  N   UNL     1      45.648   5.095   8.571  0.00  0.00    +0.000 NA
ATOM     22  C   UNL     1      46.396   4.537   7.584  0.00  0.00    +0.000 A 
BRANCH  17  24
ATOM     23  N   UNL     1      48.456   1.917   6.570  0.00  0.00    +0.000 N 
ATOM     24  C   UNL     1      47.362   2.681   6.267  0.00  0.00    +0.000 C 
ATOM     25  O   UNL     1      47.057   2.918   5.108  0.00  0.00    +0.000 OA
ATOM     26  H   UNL     1      48.945   1.510   5.783  0.00  0.00    +0.000 HD
ATOM     27  H   UNL     1      48.597   1.493   7.475  0.00  0.00    +0.000 HD
ENDBRANCH  17  24
ENDBRANCH  16  20
ENDBRANCH   1  16
TORSDOF 5
ENDMDL
MODEL 8
REMARK VINA RESULT:    -6.940      2.571      7.584
REMARK INTER + INTRA:          -8.629
REMARK INTER:                  -8.020
REMARK INTRA:                  -0.610
REMARK UNBOUND:                 0.340
REMARK  Name = 
REMARK  5 active torsions:
REMARK  status: ('A' for Active; 'I' for Inactive)
REMARK    1  A    between atoms: C_2  and  C_4
REMARK    2  A    between atoms: C_7  and  O_8
REMARK    3  A    between atoms: O_8  and  C_9
REMARK    4  A    between atoms: C_9  and  C_10
REMARK    5  A    between atoms: C_14  and  C_15
REMARK                            x       y       z     vdW  Elec       q    Type
REMARK                         _______ _______ _______ _____ _____    ______ ____
ROOT
ATOM      1  C   UNL     1      45.348   6.601  11.476  0.00  0.00    +0.000 C 
ATOM      2  C   UNL     1      44.498   7.783  11.030  0.00  0.00    +0.000 C 
ATOM      3  C   UNL     1      44.441   7.322  12.450  0.00  0.00    +0.000 C 
ENDROOT
BRANCH   1   4
ATOM      4  C   UNL     1      44.986   5.207  10.984  0.00  0.00    +0.000 A 
ATOM      5  C   UNL     1      43.906   4.500  11.529  0.00  0.00    +0.000 A 
ATOM      6  C   UNL     1      43.517   3.264  11.014  0.00  0.00    +0.000 A 
ATOM      7  C   UNL     1      44.202   2.711   9.929  0.00  0.00    +0.000 A 
ATOM      8  C   UNL     1      45.285   3.378   9.337  0.00  0.00    +0.000 A 
ATOM      9  C   UNL     1      45.665   4.612   9.898  0.00  0.00    +0.000 A 
BRANCH   8  10
ATOM     10  C   UNL     1      45.952   2.846   8.136  0.00  0.00    +0.000 A 
ATOM     11  C   UNL     1      46.245   3.627   7.027  0.00  0.00    +0.000 A 
ATOM     12  N   UNL     1      46.878   3.192   5.915  0.00  0.00    +0.000 NA
ATOM     13  C   UNL     1      47.247   1.906   5.926  0.00  0.00    +0.000 A 
ATOM     14  N   UNL     1      47.029   1.036   6.922  0.00  0.00    +0.000 NA
ATOM     15  C   UNL     1      46.386   1.535   8.004  0.00  0.00    +0.000 A 
ENDBRANCH   8  10
ENDBRANCH   1   4
BRANCH   1  16
ATOM     16  O   UNL     1      46.751   6.957  11.461  0.00  0.00    +0.000 OA
BRANCH  16  20
ATOM     17  C   UNL     1      48.865   6.786  14.987  0.00  0.00    +0.000 A 
ATOM     18  C   UNL     1      49.038   7.864  14.117  0.00  0.00    +0.000 A 
ATOM     19  C   UNL     1      48.317   7.890  12.927  0.00  0.00    +0.000 A 
ATOM     20  C   UNL     1      47.449   6.843  12.649  0.00  0.00    +0.000 A 
ATOM     21  N   UNL     1      47.257   5.787  13.468  0.00  0.00    +0.000 NA
ATOM     22  C   UNL     1      47.988   5.773  14.613  0.00  0.00    +0.000 A 
BRANCH  17  24
ATOM     23  N   UNL     1      50.937   6.882  16.258  0.00  0.00    +0.000 N 
ATOM     24  C   UNL     1      49.586   6.668  16.273  0.00  0.00    +0.000 C 
ATOM     25  O   UNL     1      48.996   6.427  17.316  0.00  0.00    +0.000 OA
ATOM     26  H   UNL     1      51.395   6.899  17.161  0.00  0.00    +0.000 HD
ATOM     27  H   UNL     1      51.415   7.324  15.486  0.00  0.00    +0.000 HD
ENDBRANCH  17  24
ENDBRANCH  16  20
ENDBRANCH   1  16
TORSDOF 5
ENDMDL
MODEL 9
REMARK VINA RESULT:    -6.717      4.508      7.107
REMARK INTER + INTRA:          -8.341
REMARK INTER:                  -7.545
REMARK INTRA:                  -0.796
REMARK UNBOUND:                 0.340
REMARK  Name = 
REMARK  5 active torsions:
REMARK  status: ('A' for Active; 'I' for Inactive)
REMARK    1  A    between atoms: C_2  and  C_4
REMARK    2  A    between atoms: C_7  and  O_8
REMARK    3  A    between atoms: O_8  and  C_9
REMARK    4  A    between atoms: C_9  and  C_10
REMARK    5  A    between atoms: C_14  and  C_15
REMARK                            x       y       z     vdW  Elec       q    Type
REMARK                         _______ _______ _______ _____ _____    ______ ____
ROOT
ATOM      1  C   UNL     1      48.867   7.441  13.446  0.00  0.00    +0.000 C 
ATOM      2  C   UNL     1      49.375   7.435  14.881  0.00  0.00    +0.000 C 
ATOM      3  C   UNL     1      48.080   8.105  14.555  0.00  0.00    +0.000 C 
ENDROOT
BRANCH   1   4
ATOM      4  C   UNL     1      49.593   8.287  12.411  0.00  0.00    +0.000 A 
ATOM      5  C   UNL     1      49.343   9.661  12.289  0.00  0.00    +0.000 A 
ATOM      6  C   UNL     1      50.076  10.454  11.406  0.00  0.00    +0.000 A 
ATOM      7  C   UNL     1      51.087   9.885  10.629  0.00  0.00    +0.000 A 
ATOM      8  C   UNL     1      51.388   8.517  10.715  0.00  0.00    +0.000 A 
ATOM      9  C   UNL     1      50.612   7.743  11.599  0.00  0.00    +0.000 A 
BRANCH   8  10
ATOM     10  C   UNL     1      52.513   7.928   9.969  0.00  0.00    +0.000 A 
ATOM     11  C   UNL     1      53.435   8.691   9.267  0.00  0.00    +0.000 A 
ATOM     12  N   UNL     1      54.497   8.200   8.591  0.00  0.00    +0.000 NA
ATOM     13  C   UNL     1      54.645   6.870   8.635  0.00  0.00    +0.000 A 
ATOM     14  N   UNL     1      53.834   6.012   9.267  0.00  0.00    +0.000 NA
ATOM     15  C   UNL     1      52.787   6.569   9.921  0.00  0.00    +0.000 A 
ENDBRANCH   8  10
ENDBRANCH   1   4
BRANCH   1  16
ATOM     16  O   UNL     1      48.482   6.105  13.045  0.00  0.00    +0.000 OA
BRANCH  16  20
ATOM     17  C   UNL     1      44.565   5.518  11.928  0.00  0.00    +0.000 A 
ATOM     18  C   UNL     1      45.432   6.232  11.098  0.00  0.00    +0.000 A 
ATOM     19  C   UNL     1      46.748   6.423  11.506  0.00  0.00    +0.000 A 
ATOM     20  C   UNL     1      47.153   5.894  12.724  0.00  0.00    +0.000 A 
ATOM     21  N   UNL     1      46.342   5.199  13.549  0.00  0.00    +0.000 NA
ATOM     22  C   UNL     1      45.056   5.044  13.139  0.00  0.00    +0.000 A 
BRANCH  17  24
ATOM     23  N   UNL     1      42.280   6.315  11.679  0.00  0.00    +0.000 N 
ATOM     24  C   UNL     1      43.149   5.263  11.582  0.00  0.00    +0.000 C 
ATOM     25  O   UNL     1      42.775   4.169  11.187  0.00  0.00    +0.000 OA
ATOM     26  H   UNL     1      41.341   6.148  11.340  0.00  0.00    +0.000 HD
ATOM     27  H   UNL     1      42.584   7.275  11.751  0.00  0.00    +0.000 HD
ENDBRANCH  17  24
ENDBRANCH  16  20
ENDBRANCH   1  16
TORSDOF 5
ENDMDL
