MODEL 1
REMARK VINA RESULT:    -7.653      0.000      0.000
REMARK INTER + INTRA:         -11.244
REMARK INTER:                 -10.337
REMARK INTRA:                  -0.907
REMARK UNBOUND:                -0.907
REMARK  Name = 
REMARK  8 active torsions:
REMARK  status: ('A' for Active; 'I' for Inactive)
REMARK    1  A    between atoms: C_1  and  C_2
REMARK    2  A    between atoms: N_6  and  C_7
REMARK    3  A    between atoms: C_7  and  C_8
REMARK    4  A    between atoms: C_8  and  C_11
REMARK    5  A    between atoms: C_15  and  O_16
REMARK    6  A    between atoms: O_16  and  C_17
REMARK    7  A    between atoms: N_19  and  C_20
REMARK    8  A    between atoms: C_24  and  C_25
REMARK                            x       y       z     vdW  Elec       q    Type
REMARK                         _______ _______ _______ _____ _____    ______ ____
ROOT
ATOM      1  C   UNL     1      47.714   6.042  12.854  0.00  0.00    +0.000 C 
ENDROOT
BRANCH   1   7
ATOM      2  C   UNL     1      48.856   4.992  19.142  0.00  0.00    +0.000 C 
ATOM      3  C   UNL     1      48.630   5.466  17.741  0.00  0.00    +0.000 A 
ATOM      4  N   UNL     1      48.978   6.756  17.498  0.00  0.00    +0.000 NA
ATOM      5  C   UNL     1      48.815   7.184  16.224  0.00  0.00    +0.000 A 
ATOM      6  C   UNL     1      48.301   6.396  15.191  0.00  0.00    +0.000 A 
ATOM      7  N   UNL     1      48.254   6.926  13.898  0.00  0.00    +0.000 N 
ATOM      8  N   UNL     1      47.946   5.116  15.432  0.00  0.00    +0.000 NA
ATOM      9  C   UNL     1      48.114   4.664  16.721  0.00  0.00    +0.000 A 
ATOM     10  H   UNL     1      47.832   7.852  13.881  0.00  0.00    +0.000 HD
BRANCH   9  11
ATOM     11  C   UNL     1      47.708   3.235  16.953  0.00  0.00    +0.000 C 
ATOM     12  N   UNL     1      48.651   2.293  16.639  0.00  0.00    +0.000 N 
ATOM     13  O   UNL     1      46.616   2.891  17.391  0.00  0.00    +0.000 OA
ATOM     14  H   UNL     1      49.557   2.580  16.289  0.00  0.00    +0.000 HD
ATOM     15  H   UNL     1      48.440   1.315  16.784  0.00  0.00    +0.000 HD
ENDBRANCH   9  11
ENDBRANCH   1   7
BRANCH   1  16
ATOM     16  C   UNL     1      46.301   6.481  12.378  0.00  0.00    +0.000 C 
ATOM     17  F   UNL     1      45.810   7.347  13.324  0.00  0.00    +0.000 F 
ATOM     18  F   UNL     1      46.453   7.247  11.252  0.00  0.00    +0.000 F 
BRANCH  16  19
ATOM     19  C   UNL     1      45.326   5.348  12.115  0.00  0.00    +0.000 A 
ATOM     20  C   UNL     1      44.357   5.049  13.086  0.00  0.00    +0.000 A 
ATOM     21  C   UNL     1      43.387   4.070  12.850  0.00  0.00    +0.000 A 
ATOM     22  C   UNL     1      43.369   3.368  11.640  0.00  0.00    +0.000 A 
ATOM     23  C   UNL     1      44.337   3.640  10.680  0.00  0.00    +0.000 A 
ATOM     24  C   UNL     1      45.306   4.616  10.921  0.00  0.00    +0.000 A 
BRANCH  23  25
ATOM     25  O   UNL     1      44.422   3.075   9.437  0.00  0.00    +0.000 OA
BRANCH  25  26
ATOM     26  C   UNL     1      45.691   3.014   8.759  0.00  0.00    +0.000 C 
ATOM     27  C   UNL     1      45.740   3.403   7.264  0.00  0.00    +0.000 C 
ATOM     28  N   UNL     1      46.439   2.140   6.946  0.00  0.00    +0.000 NA
ATOM     29  C   UNL     1      47.885   2.345   6.872  0.00  0.00    +0.000 C 
ATOM     30  C   UNL     1      46.067   1.596   8.266  0.00  0.00    +0.000 C 
ENDBRANCH  25  26
ENDBRANCH  23  25
ENDBRANCH  16  19
ENDBRANCH   1  16
TORSDOF 6
ENDMDL
MODEL 2
REMARK VINA RESULT:    -6.815      1.708      2.273
REMARK INTER + INTRA:         -10.112
REMARK INTER:                 -10.019
REMARK INTRA:                  -0.094
REMARK UNBOUND:                -0.907
REMARK  Name = 
REMARK  8 active torsions:
REMARK  status: ('A' for Active; 'I' for Inactive)
REMARK    1  A    between atoms: C_1  and  C_2
REMARK    2  A    between atoms: N_6  and  C_7
REMARK    3  A    between atoms: C_7  and  C_8
REMARK    4  A    between atoms: C_8  and  C_11
REMARK    5  A    between atoms: C_15  and  O_16
REMARK    6  A    between atoms: O_16  and  C_17
REMARK    7  A    between atoms: N_19  and  C_20
REMARK    8  A    between atoms: C_24  and  C_25
REMARK                            x       y       z     vdW  Elec       q    Type
REMARK                         _______ _______ _______ _____ _____    ______ ____
ROOT
ATOM      1  C   UNL     1      47.385   5.578  13.574  0.00  0.00    +0.000 C 
ENDROOT
BRANCH   1   7
ATOM      2  C   UNL     1      49.830   4.686  19.505  0.00  0.00    +0.000 C 
ATOM      3  C   UNL     1      49.087   4.749  18.208  0.00  0.00    +0.000 A 
ATOM      4  N   UNL     1      47.829   4.238  18.230  0.00  0.00    +0.000 NA
ATOM      5  C   UNL     1      47.132   4.325  17.072  0.00  0.00    +0.000 A 
ATOM      6  C   UNL     1      47.639   4.874  15.892  0.00  0.00    +0.000 A 
ATOM      7  N   UNL     1      46.795   4.980  14.781  0.00  0.00    +0.000 N 
ATOM      8  N   UNL     1      48.892   5.376  15.864  0.00  0.00    +0.000 NA
ATOM      9  C   UNL     1      49.609   5.302  17.037  0.00  0.00    +0.000 A 
ATOM     10  H   UNL     1      46.311   4.106  14.587  0.00  0.00    +0.000 HD
BRANCH   9  11
ATOM     11  C   UNL     1      51.000   5.869  16.969  0.00  0.00    +0.000 C 
ATOM     12  N   UNL     1      51.080   7.210  16.707  0.00  0.00    +0.000 N 
ATOM     13  O   UNL     1      52.021   5.210  17.130  0.00  0.00    +0.000 OA
ATOM     14  H   UNL     1      50.235   7.755  16.587  0.00  0.00    +0.000 HD
ATOM     15  H   UNL     1      51.988   7.651  16.662  0.00  0.00    +0.000 HD
ENDBRANCH   9  11
ENDBRANCH   1   7
BRANCH   1  16
ATOM     16  C   UNL     1      46.307   6.123  12.596  0.00  0.00    +0.000 C 
ATOM     17  F   UNL     1      45.519   6.992  13.310  0.00  0.00    +0.000 F 
ATOM     18  F   UNL     1      46.937   6.909  11.667  0.00  0.00    +0.000 F 
BRANCH  16  19
ATOM     19  C   UNL     1      45.466   5.065  11.905  0.00  0.00    +0.000 A 
ATOM     20  C   UNL     1      44.744   4.154  12.692  0.00  0.00    +0.000 A 
ATOM     21  C   UNL     1      43.892   3.216  12.099  0.00  0.00    +0.000 A 
ATOM     22  C   UNL     1      43.748   3.169  10.709  0.00  0.00    +0.000 A 
ATOM     23  C   UNL     1      44.475   4.052   9.919  0.00  0.00    +0.000 A 
ATOM     24  C   UNL     1      45.328   4.984  10.514  0.00  0.00    +0.000 A 
BRANCH  23  25
ATOM     25  O   UNL     1      44.406   4.160   8.557  0.00  0.00    +0.000 OA
BRANCH  25  26
ATOM     26  C   UNL     1      45.096   3.210   7.722  0.00  0.00    +0.000 C 
ATOM     27  C   UNL     1      45.840   2.042   8.408  0.00  0.00    +0.000 C 
ATOM     28  N   UNL     1      47.066   2.360   7.645  0.00  0.00    +0.000 NA
ATOM     29  C   UNL     1      47.179   1.512   6.459  0.00  0.00    +0.000 C 
ATOM     30  C   UNL     1      46.505   3.675   7.281  0.00  0.00    +0.000 C 
ENDBRANCH  25  26
ENDBRANCH  23  25
ENDBRANCH  16  19
ENDBRANCH   1  16
TORSDOF 6
ENDMDL
MODEL 3
REMARK VINA RESULT:    -6.785      1.529      2.003
REMARK INTER + INTRA:         -10.072
REMARK INTER:                  -9.250
REMARK INTRA:                  -0.822
REMARK UNBOUND:                -0.907
REMARK  Name = 
REMARK  8 active torsions:
REMARK  status: ('A' for Active; 'I' for Inactive)
REMARK    1  A    between atoms: C_1  and  C_2
REMARK    2  A    between atoms: N_6  and  C_7
REMARK    3  A    between atoms: C_7  and  C_8
REMARK    4  A    between atoms: C_8  and  C_11
REMARK    5  A    between atoms: C_15  and  O_16
REMARK    6  A    between atoms: O_16  and  C_17
REMARK    7  A    between atoms: N_19  and  C_20
REMARK    8  A    between atoms: C_24  and  C_25
REMARK                            x       y       z     vdW  Elec       q    Type
REMARK                         _______ _______ _______ _____ _____    ______ ____
ROOT
ATOM      1  C   UNL     1      47.059   6.692  12.043  0.00  0.00    +0.000 C 
ENDROOT
BRANCH   1   7
ATOM      2  C   UNL     1      50.039   8.387  17.539  0.00  0.00    +0.000 C 
ATOM      3  C   UNL     1      49.336   8.232  16.227  0.00  0.00    +0.000 A 
ATOM      4  N   UNL     1      49.246   9.359  15.476  0.00  0.00    +0.000 NA
ATOM      5  C   UNL     1      48.647   9.222  14.269  0.00  0.00    +0.000 A 
ATOM      6  C   UNL     1      48.116   8.022  13.790  0.00  0.00    +0.000 A 
ATOM      7  N   UNL     1      47.592   7.988  12.493  0.00  0.00    +0.000 N 
ATOM      8  N   UNL     1      48.197   6.901  14.537  0.00  0.00    +0.000 NA
ATOM      9  C   UNL     1      48.811   7.024  15.763  0.00  0.00    +0.000 A 
ATOM     10  H   UNL     1      46.945   8.755  12.323  0.00  0.00    +0.000 HD
BRANCH   9  11
ATOM     11  C   UNL     1      48.882   5.756  16.569  0.00  0.00    +0.000 C 
ATOM     12  N   UNL     1      47.777   5.475  17.326  0.00  0.00    +0.000 N 
ATOM     13  O   UNL     1      49.844   4.998  16.577  0.00  0.00    +0.000 OA
ATOM     14  H   UNL     1      46.977   6.096  17.308  0.00  0.00    +0.000 HD
ATOM     15  H   UNL     1      47.760   4.630  17.880  0.00  0.00    +0.000 HD
ENDBRANCH   9  11
ENDBRANCH   1   7
BRANCH   1  16
ATOM     16  C   UNL     1      45.506   6.668  12.013  0.00  0.00    +0.000 C 
ATOM     17  F   UNL     1      45.074   7.107  13.241  0.00  0.00    +0.000 F 
ATOM     18  F   UNL     1      45.085   7.630  11.133  0.00  0.00    +0.000 F 
BRANCH  16  19
ATOM     19  C   UNL     1      44.886   5.328  11.664  0.00  0.00    +0.000 A 
ATOM     20  C   UNL     1      44.115   4.664  12.631  0.00  0.00    +0.000 A 
ATOM     21  C   UNL     1      43.458   3.468  12.325  0.00  0.00    +0.000 A 
ATOM     22  C   UNL     1      43.562   2.910  11.048  0.00  0.00    +0.000 A 
ATOM     23  C   UNL     1      44.340   3.546  10.087  0.00  0.00    +0.000 A 
ATOM     24  C   UNL     1      44.998   4.739  10.398  0.00  0.00    +0.000 A 
BRANCH  23  25
ATOM     25  O   UNL     1      44.500   3.152   8.787  0.00  0.00    +0.000 OA
BRANCH  25  26
ATOM     26  C   UNL     1      45.823   3.020   8.232  0.00  0.00    +0.000 C 
ATOM     27  C   UNL     1      45.982   3.100   6.696  0.00  0.00    +0.000 C 
ATOM     28  N   UNL     1      46.748   1.836   6.698  0.00  0.00    +0.000 NA
ATOM     29  C   UNL     1      48.187   2.096   6.690  0.00  0.00    +0.000 C 
ATOM     30  C   UNL     1      46.288   1.552   8.071  0.00  0.00    +0.000 C 
ENDBRANCH  25  26
ENDBRANCH  23  25
ENDBRANCH  16  19
ENDBRANCH   1  16
TORSDOF 6
ENDMDL
MODEL 4
REMARK VINA RESULT:    -6.742      2.625      3.768
REMARK INTER + INTRA:         -10.014
REMARK INTER:                  -9.039
REMARK INTRA:                  -0.975
REMARK UNBOUND:                -0.907
REMARK  Name = 
REMARK  8 active torsions:
REMARK  status: ('A' for Active; 'I' for Inactive)
REMARK    1  A    between atoms: C_1  and  C_2
REMARK    2  A    between atoms: N_6  and  C_7
REMARK    3  A    between atoms: C_7  and  C_8
REMARK    4  A    between atoms: C_8  and  C_11
REMARK    5  A    between atoms: C_15  and  O_16
REMARK    6  A    between atoms: O_16  and  C_17
REMARK    7  A    between atoms: N_19  and  C_20
REMARK    8  A    between atoms: C_24  and  C_25
REMARK                            x       y       z     vdW  Elec       q    Type
REMARK                         _______ _______ _______ _____ _____    ______ ____
ROOT
ATOM      1  C   UNL     1      48.769   6.806  13.435  0.00  0.00    +0.000 C 
ENDROOT
BRANCH   1   7
ATOM      2  C   UNL     1      48.712   4.569  19.513  0.00  0.00    +0.000 C 
ATOM      3  C   UNL     1      48.783   5.297  18.208  0.00  0.00    +0.000 A 
ATOM      4  N   UNL     1      49.331   6.538  18.261  0.00  0.00    +0.000 NA
ATOM      5  C   UNL     1      49.438   7.191  17.079  0.00  0.00    +0.000 A 
ATOM      6  C   UNL     1      49.003   6.674  15.856  0.00  0.00    +0.000 A 
ATOM      7  N   UNL     1      49.240   7.411  14.691  0.00  0.00    +0.000 N 
ATOM      8  N   UNL     1      48.451   5.443  15.801  0.00  0.00    +0.000 NA
ATOM      9  C   UNL     1      48.344   4.764  16.994  0.00  0.00    +0.000 A 
ATOM     10  H   UNL     1      48.950   8.381  14.789  0.00  0.00    +0.000 HD
BRANCH   9  11
ATOM     11  C   UNL     1      47.723   3.399  16.895  0.00  0.00    +0.000 C 
ATOM     12  N   UNL     1      48.571   2.388  16.528  0.00  0.00    +0.000 N 
ATOM     13  O   UNL     1      46.542   3.161  17.120  0.00  0.00    +0.000 OA
ATOM     14  H   UNL     1      49.549   2.585  16.356  0.00  0.00    +0.000 HD
ATOM     15  H   UNL     1      48.214   1.446  16.457  0.00  0.00    +0.000 HD
ENDBRANCH   9  11
ENDBRANCH   1   7
BRANCH   1  16
ATOM     16  C   UNL     1      48.609   7.853  12.298  0.00  0.00    +0.000 C 
ATOM     17  F   UNL     1      49.518   8.853  12.541  0.00  0.00    +0.000 F 
ATOM     18  F   UNL     1      49.032   7.276  11.129  0.00  0.00    +0.000 F 
BRANCH  16  19
ATOM     19  C   UNL     1      47.210   8.416  12.129  0.00  0.00    +0.000 A 
ATOM     20  C   UNL     1      47.031   9.808  12.163  0.00  0.00    +0.000 A 
ATOM     21  C   UNL     1      45.773  10.373  11.930  0.00  0.00    +0.000 A 
ATOM     22  C   UNL     1      44.669   9.558  11.662  0.00  0.00    +0.000 A 
ATOM     23  C   UNL     1      44.829   8.177  11.648  0.00  0.00    +0.000 A 
ATOM     24  C   UNL     1      46.086   7.616  11.885  0.00  0.00    +0.000 A 
BRANCH  23  25
ATOM     25  O   UNL     1      43.862   7.255  11.356  0.00  0.00    +0.000 OA
BRANCH  25  26
ATOM     26  C   UNL     1      44.063   5.868  11.691  0.00  0.00    +0.000 C 
ATOM     27  C   UNL     1      43.776   4.805  10.606  0.00  0.00    +0.000 C 
ATOM     28  N   UNL     1      42.918   4.058  11.550  0.00  0.00    +0.000 NA
ATOM     29  C   UNL     1      43.660   2.967  12.180  0.00  0.00    +0.000 C 
ATOM     30  C   UNL     1      42.873   5.229  12.445  0.00  0.00    +0.000 C 
ENDBRANCH  25  26
ENDBRANCH  23  25
ENDBRANCH  16  19
ENDBRANCH   1  16
TORSDOF 6
ENDMDL
MODEL 5
REMARK VINA RESULT:    -6.501      3.914      8.554
REMARK INTER + INTRA:          -9.688
REMARK INTER:                  -9.059
REMARK INTRA:                  -0.629
REMARK UNBOUND:                -0.907
REMARK  Name = 
REMARK  8 active torsions:
REMARK  status: ('A' for Active; 'I' for Inactive)
REMARK    1  A    between atoms: C_1  and  C_2
REMARK    2  A    between atoms: N_6  and  C_7
REMARK    3  A    between atoms: C_7  and  C_8
REMARK    4  A    between atoms: C_8  and  C_11
REMARK    5  A    between atoms: C_15  and  O_16
REMARK    6  A    between atoms: O_16  and  C_17
REMARK    7  A    between atoms: N_19  and  C_20
REMARK    8  A    between atoms: C_24  and  C_25
REMARK                            x       y       z     vdW  Elec       q    Type
REMARK                         _______ _______ _______ _____ _____    ______ ____
ROOT
ATOM      1  C   UNL     1      46.896   4.064  16.538  0.00  0.00    +0.000 C 
ENDROOT
BRANCH   1   7
ATOM      2  C   UNL     1      45.226   5.761  10.514  0.00  0.00    +0.000 C 
ATOM      3  C   UNL     1      45.823   5.473  11.856  0.00  0.00    +0.000 A 
ATOM      4  N   UNL     1      46.992   6.109  12.124  0.00  0.00    +0.000 NA
ATOM      5  C   UNL     1      47.521   5.887  13.351  0.00  0.00    +0.000 A 
ATOM      6  C   UNL     1      46.952   5.045  14.309  0.00  0.00    +0.000 A 
ATOM      7  N   UNL     1      47.551   4.958  15.570  0.00  0.00    +0.000 N 
ATOM      8  N   UNL     1      45.793   4.405  14.043  0.00  0.00    +0.000 NA
ATOM      9  C   UNL     1      45.240   4.628  12.803  0.00  0.00    +0.000 A 
ATOM     10  H   UNL     1      48.553   4.795  15.505  0.00  0.00    +0.000 HD
BRANCH   9  11
ATOM     11  C   UNL     1      43.951   3.898  12.540  0.00  0.00    +0.000 C 
ATOM     12  N   UNL     1      44.055   2.537  12.430  0.00  0.00    +0.000 N 
ATOM     13  O   UNL     1      42.860   4.444  12.426  0.00  0.00    +0.000 OA
ATOM     14  H   UNL     1      44.956   2.086  12.538  0.00  0.00    +0.000 HD
ATOM     15  H   UNL     1      43.222   1.990  12.265  0.00  0.00    +0.000 HD
ENDBRANCH   9  11
ENDBRANCH   1   7
BRANCH   1  16
ATOM     16  C   UNL     1      47.887   3.047  17.169  0.00  0.00    +0.000 C 
ATOM     17  F   UNL     1      47.146   2.200  17.956  0.00  0.00    +0.000 F 
ATOM     18  F   UNL     1      48.373   2.252  16.165  0.00  0.00    +0.000 F 
BRANCH  16  19
ATOM     19  C   UNL     1      49.032   3.660  17.955  0.00  0.00    +0.000 A 
ATOM     20  C   UNL     1      48.767   4.216  19.216  0.00  0.00    +0.000 A 
ATOM     21  C   UNL     1      49.804   4.717  20.009  0.00  0.00    +0.000 A 
ATOM     22  C   UNL     1      51.126   4.675  19.555  0.00  0.00    +0.000 A 
ATOM     23  C   UNL     1      51.398   4.147  18.298  0.00  0.00    +0.000 A 
ATOM     24  C   UNL     1      50.359   3.651  17.508  0.00  0.00    +0.000 A 
BRANCH  23  25
ATOM     25  O   UNL     1      52.637   3.994  17.738  0.00  0.00    +0.000 OA
BRANCH  25  26
ATOM     26  C   UNL     1      53.532   2.980  18.234  0.00  0.00    +0.000 C 
ATOM     27  C   UNL     1      54.719   2.554  17.341  0.00  0.00    +0.000 C 
ATOM     28  N   UNL     1      54.341   1.133  17.497  0.00  0.00    +0.000 NA
ATOM     29  C   UNL     1      55.127   0.495  18.553  0.00  0.00    +0.000 C 
ATOM     30  C   UNL     1      53.020   1.536  18.016  0.00  0.00    +0.000 C 
ENDBRANCH  25  26
ENDBRANCH  23  25
ENDBRANCH  16  19
ENDBRANCH   1  16
TORSDOF 6
ENDMDL
MODEL 6
REMARK VINA RESULT:    -6.470      3.360      9.044
REMARK INTER + INTRA:          -9.647
REMARK INTER:                  -8.912
REMARK INTRA:                  -0.735
REMARK UNBOUND:                -0.907
REMARK  Name = 
REMARK  8 active torsions:
REMARK  status: ('A' for Active; 'I' for Inactive)
REMARK    1  A    between atoms: C_1  and  C_2
REMARK    2  A    between atoms: N_6  and  C_7
REMARK    3  A    between atoms: C_7  and  C_8
REMARK    4  A    between atoms: C_8  and  C_11
REMARK    5  A    between atoms: C_15  and  O_16
REMARK    6  A    between atoms: O_16  and  C_17
REMARK    7  A    between atoms: N_19  and  C_20
REMARK    8  A    between atoms: C_24  and  C_25
REMARK                            x       y       z     vdW  Elec       q    Type
REMARK                         _______ _______ _______ _____ _____    ______ ____
ROOT
ATOM      1  C   UNL     1      46.893   4.039  16.540  0.00  0.00    +0.000 C 
ENDROOT
BRANCH   1   7
ATOM      2  C   UNL     1      45.319   5.868  10.529  0.00  0.00    +0.000 C 
ATOM      3  C   UNL     1      45.891   5.559  11.877  0.00  0.00    +0.000 A 
ATOM      4  N   UNL     1      47.028   6.229  12.196  0.00  0.00    +0.000 NA
ATOM      5  C   UNL     1      47.532   5.987  13.430  0.00  0.00    +0.000 A 
ATOM      6  C   UNL     1      46.970   5.094  14.345  0.00  0.00    +0.000 A 
ATOM      7  N   UNL     1      47.538   4.988  15.619  0.00  0.00    +0.000 N 
ATOM      8  N   UNL     1      45.844   4.420  14.027  0.00  0.00    +0.000 NA
ATOM      9  C   UNL     1      45.315   4.663  12.780  0.00  0.00    +0.000 A 
ATOM     10  H   UNL     1      48.547   4.864  15.576  0.00  0.00    +0.000 HD
BRANCH   9  11
ATOM     11  C   UNL     1      44.063   3.895  12.459  0.00  0.00    +0.000 C 
ATOM     12  N   UNL     1      44.178   2.531  12.504  0.00  0.00    +0.000 N 
ATOM     13  O   UNL     1      42.991   4.414  12.171  0.00  0.00    +0.000 OA
ATOM     14  H   UNL     1      45.062   2.105  12.754  0.00  0.00    +0.000 HD
ATOM     15  H   UNL     1      43.367   1.960  12.310  0.00  0.00    +0.000 HD
ENDBRANCH   9  11
ENDBRANCH   1   7
BRANCH   1  16
ATOM     16  C   UNL     1      47.876   2.953  17.057  0.00  0.00    +0.000 C 
ATOM     17  F   UNL     1      47.145   2.085  17.830  0.00  0.00    +0.000 F 
ATOM     18  F   UNL     1      48.281   2.204  15.983  0.00  0.00    +0.000 F 
BRANCH  16  19
ATOM     19  C   UNL     1      49.080   3.479  17.816  0.00  0.00    +0.000 A 
ATOM     20  C   UNL     1      50.364   3.077  17.414  0.00  0.00    +0.000 A 
ATOM     21  C   UNL     1      51.504   3.601  18.032  0.00  0.00    +0.000 A 
ATOM     22  C   UNL     1      51.383   4.534  19.065  0.00  0.00    +0.000 A 
ATOM     23  C   UNL     1      50.117   4.924  19.488  0.00  0.00    +0.000 A 
ATOM     24  C   UNL     1      48.981   4.395  18.871  0.00  0.00    +0.000 A 
BRANCH  23  25
ATOM     25  O   UNL     1      49.838   5.857  20.448  0.00  0.00    +0.000 OA
BRANCH  25  26
ATOM     26  C   UNL     1      49.173   7.084  20.088  0.00  0.00    +0.000 C 
ATOM     27  C   UNL     1      49.707   8.406  20.686  0.00  0.00    +0.000 C 
ATOM     28  N   UNL     1      48.346   8.763  21.139  0.00  0.00    +0.000 NA
ATOM     29  C   UNL     1      47.694   9.658  20.183  0.00  0.00    +0.000 C 
ATOM     30  C   UNL     1      47.903   7.373  20.923  0.00  0.00    +0.000 C 
ENDBRANCH  25  26
ENDBRANCH  23  25
ENDBRANCH  16  19
ENDBRANCH   1  16
TORSDOF 6
ENDMDL
MODEL 7
REMARK VINA RESULT:    -6.225      3.060      4.236
REMARK INTER + INTRA:          -9.316
REMARK INTER:                  -8.931
REMARK INTRA:                  -0.385
REMARK UNBOUND:                -0.907
REMARK  Name = 
REMARK  8 active torsions:
REMARK  status: ('A' for Active; 'I' for Inactive)
REMARK    1  A    between atoms: C_1  and  C_2
REMARK    2  A    between atoms: N_6  and  C_7
REMARK    3  A    between atoms: C_7  and  C_8
REMARK    4  A    between atoms: C_8  and  C_11
REMARK    5  A    between atoms: C_15  and  O_16
REMARK    6  A    between atoms: O_16  and  C_17
REMARK    7  A    between atoms: N_19  and  C_20
REMARK    8  A    between atoms: C_24  and  C_25
REMARK                            x       y       z     vdW  Elec       q    Type
REMARK                         _______ _______ _______ _____ _____    ______ ____
ROOT
ATOM      1  C   UNL     1      47.561   5.652  13.294  0.00  0.00    +0.000 C 
ENDROOT
BRANCH   1   7
ATOM      2  C   UNL     1      51.025  11.087  13.938  0.00  0.00    +0.000 C 
ATOM      3  C   UNL     1      50.102   9.910  13.980  0.00  0.00    +0.000 A 
ATOM      4  N   UNL     1      49.034  10.035  14.810  0.00  0.00    +0.000 NA
ATOM      5  C   UNL     1      48.170   8.991  14.827  0.00  0.00    +0.000 A 
ATOM      6  C   UNL     1      48.335   7.826  14.075  0.00  0.00    +0.000 A 
ATOM      7  N   UNL     1      47.333   6.850  14.117  0.00  0.00    +0.000 N 
ATOM      8  N   UNL     1      49.400   7.695  13.255  0.00  0.00    +0.000 NA
ATOM      9  C   UNL     1      50.282   8.751  13.222  0.00  0.00    +0.000 A 
ATOM     10  H   UNL     1      47.064   6.622  15.071  0.00  0.00    +0.000 HD
BRANCH   9  11
ATOM     11  C   UNL     1      51.456   8.571  12.300  0.00  0.00    +0.000 C 
ATOM     12  N   UNL     1      51.213   8.823  10.976  0.00  0.00    +0.000 N 
ATOM     13  O   UNL     1      52.573   8.223  12.666  0.00  0.00    +0.000 OA
ATOM     14  H   UNL     1      50.292   9.122  10.678  0.00  0.00    +0.000 HD
ATOM     15  H   UNL     1      51.966   8.731  10.309  0.00  0.00    +0.000 HD
ENDBRANCH   9  11
ENDBRANCH   1   7
BRANCH   1  16
ATOM     16  C   UNL     1      46.578   4.500  13.641  0.00  0.00    +0.000 C 
ATOM     17  F   UNL     1      47.287   3.327  13.553  0.00  0.00    +0.000 F 
ATOM     18  F   UNL     1      46.250   4.609  14.967  0.00  0.00    +0.000 F 
BRANCH  16  19
ATOM     19  C   UNL     1      45.321   4.442  12.791  0.00  0.00    +0.000 A 
ATOM     20  C   UNL     1      44.385   5.483  12.896  0.00  0.00    +0.000 A 
ATOM     21  C   UNL     1      43.255   5.512  12.073  0.00  0.00    +0.000 A 
ATOM     22  C   UNL     1      43.037   4.501  11.132  0.00  0.00    +0.000 A 
ATOM     23  C   UNL     1      43.946   3.454  11.034  0.00  0.00    +0.000 A 
ATOM     24  C   UNL     1      45.072   3.426  11.861  0.00  0.00    +0.000 A 
BRANCH  23  25
ATOM     25  O   UNL     1      43.897   2.423  10.137  0.00  0.00    +0.000 OA
BRANCH  25  26
ATOM     26  C   UNL     1      44.466   2.583   8.823  0.00  0.00    +0.000 C 
ATOM     27  C   UNL     1      45.861   1.976   8.552  0.00  0.00    +0.000 C 
ATOM     28  N   UNL     1      46.333   3.270   8.016  0.00  0.00    +0.000 NA
ATOM     29  C   UNL     1      46.248   3.295   6.557  0.00  0.00    +0.000 C 
ATOM     30  C   UNL     1      45.164   3.948   8.607  0.00  0.00    +0.000 C 
ENDBRANCH  25  26
ENDBRANCH  23  25
ENDBRANCH  16  19
ENDBRANCH   1  16
TORSDOF 6
ENDMDL
MODEL 8
REMARK VINA RESULT:    -5.905      2.484      7.847
REMARK INTER + INTRA:          -8.884
REMARK INTER:                  -8.383
REMARK INTRA:                  -0.501
REMARK UNBOUND:                -0.907
REMARK  Name = 
REMARK  8 active torsions:
REMARK  status: ('A' for Active; 'I' for Inactive)
REMARK    1  A    between atoms: C_1  and  C_2
REMARK    2  A    between atoms: N_6  and  C_7
REMARK    3  A    between atoms: C_7  and  C_8
REMARK    4  A    between atoms: C_8  and  C_11
REMARK    5  A    between atoms: C_15  and  O_16
REMARK    6  A    between atoms: O_16  and  C_17
REMARK    7  A    between atoms: N_19  and  C_20
REMARK    8  A    between atoms: C_24  and  C_25
REMARK                            x       y       z     vdW  Elec       q    Type
REMARK                         _______ _______ _______ _____ _____    ______ ____
ROOT
ATOM      1  C   UNL     1      47.208   7.326  11.646  0.00  0.00    +0.000 C 
ENDROOT
BRANCH   1   7
ATOM      2  C   UNL     1      43.269   2.185  11.742  0.00  0.00    +0.000 C 
ATOM      3  C   UNL     1      44.093   3.418  11.940  0.00  0.00    +0.000 A 
ATOM      4  N   UNL     1      44.103   3.917  13.203  0.00  0.00    +0.000 NA
ATOM      5  C   UNL     1      44.877   5.010  13.402  0.00  0.00    +0.000 A 
ATOM      6  C   UNL     1      45.619   5.639  12.399  0.00  0.00    +0.000 A 
ATOM      7  N   UNL     1      46.443   6.715  12.745  0.00  0.00    +0.000 N 
ATOM      8  N   UNL     1      45.605   5.150  11.141  0.00  0.00    +0.000 NA
ATOM      9  C   UNL     1      44.829   4.034  10.925  0.00  0.00    +0.000 A 
ATOM     10  H   UNL     1      45.952   7.405  13.309  0.00  0.00    +0.000 HD
BRANCH   9  11
ATOM     11  C   UNL     1      44.835   3.518   9.513  0.00  0.00    +0.000 C 
ATOM     12  N   UNL     1      44.162   4.285   8.600  0.00  0.00    +0.000 N 
ATOM     13  O   UNL     1      45.392   2.485   9.159  0.00  0.00    +0.000 OA
ATOM     14  H   UNL     1      43.714   5.145   8.893  0.00  0.00    +0.000 HD
ATOM     15  H   UNL     1      44.141   3.997   7.632  0.00  0.00    +0.000 HD
ENDBRANCH   9  11
ENDBRANCH   1   7
BRANCH   1  16
ATOM     16  C   UNL     1      48.486   8.054  12.147  0.00  0.00    +0.000 C 
ATOM     17  F   UNL     1      49.550   7.502  11.477  0.00  0.00    +0.000 F 
ATOM     18  F   UNL     1      48.433   9.351  11.708  0.00  0.00    +0.000 F 
BRANCH  16  19
ATOM     19  C   UNL     1      48.707   8.015  13.648  0.00  0.00    +0.000 A 
ATOM     20  C   UNL     1      48.402   9.156  14.408  0.00  0.00    +0.000 A 
ATOM     21  C   UNL     1      48.512   9.137  15.802  0.00  0.00    +0.000 A 
ATOM     22  C   UNL     1      48.931   7.979  16.463  0.00  0.00    +0.000 A 
ATOM     23  C   UNL     1      49.257   6.850  15.720  0.00  0.00    +0.000 A 
ATOM     24  C   UNL     1      49.150   6.874  14.328  0.00  0.00    +0.000 A 
BRANCH  23  25
ATOM     25  O   UNL     1      49.634   5.634  16.222  0.00  0.00    +0.000 OA
BRANCH  25  26
ATOM     26  C   UNL     1      50.382   5.563  17.452  0.00  0.00    +0.000 C 
ATOM     27  C   UNL     1      51.834   5.036  17.394  0.00  0.00    +0.000 C 
ATOM     28  N   UNL     1      51.539   4.074  18.477  0.00  0.00    +0.000 NA
ATOM     29  C   UNL     1      51.962   4.600  19.774  0.00  0.00    +0.000 C 
ATOM     30  C   UNL     1      50.093   4.291  18.285  0.00  0.00    +0.000 C 
ENDBRANCH  25  26
ENDBRANCH  23  25
ENDBRANCH  16  19
ENDBRANCH   1  16
TORSDOF 6
ENDMDL
MODEL 9
REMARK VINA RESULT:    -5.838      3.521      7.252
REMARK INTER + INTRA:          -8.793
REMARK INTER:                  -7.405
REMARK INTRA:                  -1.388
REMARK UNBOUND:                -0.907
REMARK  Name = 
REMARK  8 active torsions:
REMARK  status: ('A' for Active; 'I' for Inactive)
REMARK    1  A    between atoms: C_1  and  C_2
REMARK    2  A    between atoms: N_6  and  C_7
REMARK    3  A    between atoms: C_7  and  C_8
REMARK    4  A    between atoms: C_8  and  C_11
REMARK    5  A    between atoms: C_15  and  O_16
REMARK    6  A    between atoms: O_16  and  C_17
REMARK    7  A    between atoms: N_19  and  C_20
REMARK    8  A    between atoms: C_24  and  C_25
REMARK                            x       y       z     vdW  Elec       q    Type
REMARK                         _______ _______ _______ _____ _____    ______ ____
ROOT
ATOM      1  C   UNL     1      48.879   8.308  12.649  0.00  0.00    +0.000 C 
ENDROOT
BRANCH   1   7
ATOM      2  C   UNL     1      43.785   4.330  13.073  0.00  0.00    +0.000 C 
ATOM      3  C   UNL     1      44.831   5.368  12.813  0.00  0.00    +0.000 A 
ATOM      4  N   UNL     1      44.422   6.438  12.083  0.00  0.00    +0.000 NA
ATOM      5  C   UNL     1      45.350   7.402  11.874  0.00  0.00    +0.000 A 
ATOM      6  C   UNL     1      46.666   7.337  12.338  0.00  0.00    +0.000 A 
ATOM      7  N   UNL     1      47.510   8.433  12.126  0.00  0.00    +0.000 N 
ATOM      8  N   UNL     1      47.078   6.272  13.057  0.00  0.00    +0.000 NA
ATOM      9  C   UNL     1      46.143   5.287  13.284  0.00  0.00    +0.000 A 
ATOM     10  H   UNL     1      47.489   8.748  11.159  0.00  0.00    +0.000 HD
BRANCH   9  11
ATOM     11  C   UNL     1      46.636   4.114  14.086  0.00  0.00    +0.000 C 
ATOM     12  N   UNL     1      46.783   4.337  15.429  0.00  0.00    +0.000 N 
ATOM     13  O   UNL     1      46.900   3.016  13.611  0.00  0.00    +0.000 OA
ATOM     14  H   UNL     1      46.551   5.241  15.822  0.00  0.00    +0.000 HD
ATOM     15  H   UNL     1      47.099   3.583  16.023  0.00  0.00    +0.000 HD
ENDBRANCH   9  11
ENDBRANCH   1   7
BRANCH   1  16
ATOM     16  C   UNL     1      49.203   9.381  13.725  0.00  0.00    +0.000 C 
ATOM     17  F   UNL     1      50.506   9.768  13.526  0.00  0.00    +0.000 F 
ATOM     18  F   UNL     1      48.463  10.499  13.443  0.00  0.00    +0.000 F 
BRANCH  16  19
ATOM     19  C   UNL     1      48.976   8.948  15.161  0.00  0.00    +0.000 A 
ATOM     20  C   UNL     1      48.628   9.917  16.115  0.00  0.00    +0.000 A 
ATOM     21  C   UNL     1      48.328   9.550  17.431  0.00  0.00    +0.000 A 
ATOM     22  C   UNL     1      48.374   8.208  17.820  0.00  0.00    +0.000 A 
ATOM     23  C   UNL     1      48.738   7.241  16.890  0.00  0.00    +0.000 A 
ATOM     24  C   UNL     1      49.041   7.612  15.577  0.00  0.00    +0.000 A 
BRANCH  23  25
ATOM     25  O   UNL     1      48.782   5.891  17.104  0.00  0.00    +0.000 OA
BRANCH  25  26
ATOM     26  C   UNL     1      49.895   5.309  17.811  0.00  0.00    +0.000 C 
ATOM     27  C   UNL     1      51.292   5.374  17.154  0.00  0.00    +0.000 C 
ATOM     28  N   UNL     1      51.465   3.920  17.353  0.00  0.00    +0.000 NA
ATOM     29  C   UNL     1      52.236   3.645  18.565  0.00  0.00    +0.000 C 
ATOM     30  C   UNL     1      50.022   3.778  17.622  0.00  0.00    +0.000 C 
ENDBRANCH  25  26
ENDBRANCH  23  25
ENDBRANCH  16  19
ENDBRANCH   1  16
TORSDOF 6
ENDMDL
