MODEL 1
REMARK VINA RESULT:    -7.679      0.000      0.000
REMARK INTER + INTRA:          -9.361
REMARK INTER:                  -9.250
REMARK INTRA:                  -0.112
REMARK UNBOUND:                -0.112
REMARK  Name = 
REMARK  4 active torsions:
REMARK  status: ('A' for Active; 'I' for Inactive)
REMARK    1  A    between atoms: N_1  and  C_2
REMARK    2  A    between atoms: C_2  and  C_3
REMARK    3  A    between atoms: C_6  and  C_7
REMARK    4  A    between atoms: C_7  and  N_8
REMARK                            x       y       z     vdW  Elec       q    Type
REMARK                         _______ _______ _______ _____ _____    ______ ____
ROOT
ATOM      1  C   UNL     1      46.811   2.223   7.720  0.00  0.00    +0.000 C 
ATOM      2  C   UNL     1      45.617   1.479   8.336  0.00  0.00    +0.000 C 
ATOM      3  C   UNL     1      44.959   2.268   9.460  0.00  0.00    +0.000 C 
ATOM      4  C   UNL     1      44.523   3.674   9.023  0.00  0.00    +0.000 C 
ATOM      5  C   UNL     1      45.691   4.419   8.350  0.00  0.00    +0.000 C 
ATOM      6  C   UNL     1      46.355   3.607   7.228  0.00  0.00    +0.000 C 
ENDROOT
BRANCH   1   7
ATOM      7  C   UNL     1      47.421   1.336   6.617  0.00  0.00    +0.000 C 
BRANCH   7   8
ATOM      8  N   UNL     1      48.575   1.936   5.960  0.00  0.00    +0.000 NA
ATOM      9  H   UNL     1      48.244   2.621   5.278  0.00  0.00    +0.000 HD
ATOM     10  H   UNL     1      49.070   1.226   5.422  0.00  0.00    +0.000 HD
ENDBRANCH   7   8
ENDBRANCH   1   7
BRANCH   4  11
ATOM     11  C   UNL     1      43.964   4.486  10.218  0.00  0.00    +0.000 C 
BRANCH  11  12
ATOM     12  N   UNL     1      44.837   4.489  11.387  0.00  0.00    +0.000 N 
ATOM     13  C   UNL     1      44.994   3.410  12.220  0.00  0.00    +0.000 A 
ATOM     14  C   UNL     1      46.018   3.691  13.094  0.00  0.00    +0.000 A 
ATOM     15  C   UNL     1      46.474   5.006  12.814  0.00  0.00    +0.000 A 
ATOM     16  C   UNL     1      47.500   5.810  13.352  0.00  0.00    +0.000 A 
ATOM     17  C   UNL     1      47.693   7.104  12.861  0.00  0.00    +0.000 A 
ATOM     18  C   UNL     1      46.857   7.613  11.871  0.00  0.00    +0.000 A 
ATOM     19  C   UNL     1      45.833   6.834  11.320  0.00  0.00    +0.000 A 
ATOM     20  C   UNL     1      45.676   5.516  11.784  0.00  0.00    +0.000 A 
ENDBRANCH  11  12
ENDBRANCH   4  11
TORSDOF 4
ENDMDL
MODEL 2
REMARK VINA RESULT:    -6.987      1.243      2.189
REMARK INTER + INTRA:          -8.529
REMARK INTER:                  -8.288
REMARK INTRA:                  -0.241
REMARK UNBOUND:                -0.112
REMARK  Name = 
REMARK  4 active torsions:
REMARK  status: ('A' for Active; 'I' for Inactive)
REMARK    1  A    between atoms: N_1  and  C_2
REMARK    2  A    between atoms: C_2  and  C_3
REMARK    3  A    between atoms: C_6  and  C_7
REMARK    4  A    between atoms: C_7  and  N_8
REMARK                            x       y       z     vdW  Elec       q    Type
REMARK                         _______ _______ _______ _____ _____    ______ ____
ROOT
ATOM      1  C   UNL     1      46.397   2.657   6.583  0.00  0.00    +0.000 C 
ATOM      2  C   UNL     1      46.343   4.071   7.177  0.00  0.00    +0.000 C 
ATOM      3  C   UNL     1      45.290   4.201   8.270  0.00  0.00    +0.000 C 
ATOM      4  C   UNL     1      45.473   3.173   9.396  0.00  0.00    +0.000 C 
ATOM      5  C   UNL     1      45.588   1.750   8.818  0.00  0.00    +0.000 C 
ATOM      6  C   UNL     1      46.642   1.636   7.707  0.00  0.00    +0.000 C 
ENDROOT
BRANCH   1   7
ATOM      7  C   UNL     1      47.468   2.635   5.474  0.00  0.00    +0.000 C 
BRANCH   7   8
ATOM      8  N   UNL     1      48.564   1.713   5.742  0.00  0.00    +0.000 NA
ATOM      9  H   UNL     1      48.791   1.753   6.737  0.00  0.00    +0.000 HD
ATOM     10  H   UNL     1      49.402   2.027   5.254  0.00  0.00    +0.000 HD
ENDBRANCH   7   8
ENDBRANCH   1   7
BRANCH   4  11
ATOM     11  C   UNL     1      44.321   3.259  10.429  0.00  0.00    +0.000 C 
BRANCH  11  12
ATOM     12  N   UNL     1      44.072   4.610  10.921  0.00  0.00    +0.000 N 
ATOM     13  C   UNL     1      42.826   5.183  10.972  0.00  0.00    +0.000 A 
ATOM     14  C   UNL     1      42.930   6.372  11.655  0.00  0.00    +0.000 A 
ATOM     15  C   UNL     1      44.295   6.553  11.996  0.00  0.00    +0.000 A 
ATOM     16  C   UNL     1      44.990   7.552  12.711  0.00  0.00    +0.000 A 
ATOM     17  C   UNL     1      46.376   7.452  12.867  0.00  0.00    +0.000 A 
ATOM     18  C   UNL     1      47.074   6.395  12.291  0.00  0.00    +0.000 A 
ATOM     19  C   UNL     1      46.407   5.391  11.579  0.00  0.00    +0.000 A 
ATOM     20  C   UNL     1      45.008   5.470  11.469  0.00  0.00    +0.000 A 
ENDBRANCH  11  12
ENDBRANCH   4  11
TORSDOF 4
ENDMDL
MODEL 3
REMARK VINA RESULT:    -6.713      2.211      5.720
REMARK INTER + INTRA:          -8.198
REMARK INTER:                  -7.882
REMARK INTRA:                  -0.316
REMARK UNBOUND:                -0.112
REMARK  Name = 
REMARK  4 active torsions:
REMARK  status: ('A' for Active; 'I' for Inactive)
REMARK    1  A    between atoms: N_1  and  C_2
REMARK    2  A    between atoms: C_2  and  C_3
REMARK    3  A    between atoms: C_6  and  C_7
REMARK    4  A    between atoms: C_7  and  N_8
REMARK                            x       y       z     vdW  Elec       q    Type
REMARK                         _______ _______ _______ _____ _____    ______ ____
ROOT
ATOM      1  C   UNL     1      48.211   6.981  12.663  0.00  0.00    +0.000 C 
ATOM      2  C   UNL     1      47.249   8.162  12.470  0.00  0.00    +0.000 C 
ATOM      3  C   UNL     1      45.926   7.736  11.848  0.00  0.00    +0.000 C 
ATOM      4  C   UNL     1      45.227   6.623  12.643  0.00  0.00    +0.000 C 
ATOM      5  C   UNL     1      46.192   5.451  12.898  0.00  0.00    +0.000 C 
ATOM      6  C   UNL     1      47.528   5.895  13.512  0.00  0.00    +0.000 C 
ENDROOT
BRANCH   1   7
ATOM      7  C   UNL     1      49.523   7.516  13.270  0.00  0.00    +0.000 C 
BRANCH   7   8
ATOM      8  N   UNL     1      49.880   6.884  14.534  0.00  0.00    +0.000 NA
ATOM      9  H   UNL     1      50.390   7.559  15.106  0.00  0.00    +0.000 HD
ATOM     10  H   UNL     1      50.531   6.119  14.362  0.00  0.00    +0.000 HD
ENDBRANCH   7   8
ENDBRANCH   1   7
BRANCH   4  11
ATOM     11  C   UNL     1      43.944   6.137  11.921  0.00  0.00    +0.000 C 
BRANCH  11  12
ATOM     12  N   UNL     1      44.000   4.742  11.499  0.00  0.00    +0.000 N 
ATOM     13  C   UNL     1      43.398   3.716  12.185  0.00  0.00    +0.000 A 
ATOM     14  C   UNL     1      43.488   2.579  11.418  0.00  0.00    +0.000 A 
ATOM     15  C   UNL     1      44.208   2.910  10.240  0.00  0.00    +0.000 A 
ATOM     16  C   UNL     1      44.579   2.177   9.093  0.00  0.00    +0.000 A 
ATOM     17  C   UNL     1      45.322   2.799   8.086  0.00  0.00    +0.000 A 
ATOM     18  C   UNL     1      45.725   4.124   8.225  0.00  0.00    +0.000 A 
ATOM     19  C   UNL     1      45.368   4.873   9.353  0.00  0.00    +0.000 A 
ATOM     20  C   UNL     1      44.579   4.256  10.340  0.00  0.00    +0.000 A 
ENDBRANCH  11  12
ENDBRANCH   4  11
TORSDOF 4
ENDMDL
MODEL 4
REMARK VINA RESULT:    -6.392      1.621      5.815
REMARK INTER + INTRA:          -7.811
REMARK INTER:                  -7.609
REMARK INTRA:                  -0.203
REMARK UNBOUND:                -0.112
REMARK  Name = 
REMARK  4 active torsions:
REMARK  status: ('A' for Active; 'I' for Inactive)
REMARK    1  A    between atoms: N_1  and  C_2
REMARK    2  A    between atoms: C_2  and  C_3
REMARK    3  A    between atoms: C_6  and  C_7
REMARK    4  A    between atoms: C_7  and  N_8
REMARK                            x       y       z     vdW  Elec       q    Type
REMARK                         _______ _______ _______ _____ _____    ______ ____
ROOT
ATOM      1  C   UNL     1      46.897   5.267  12.977  0.00  0.00    +0.000 C 
ATOM      2  C   UNL     1      46.592   6.429  12.020  0.00  0.00    +0.000 C 
ATOM      3  C   UNL     1      45.960   5.955  10.718  0.00  0.00    +0.000 C 
ATOM      4  C   UNL     1      44.689   5.122  10.943  0.00  0.00    +0.000 C 
ATOM      5  C   UNL     1      44.958   3.984  11.946  0.00  0.00    +0.000 C 
ATOM      6  C   UNL     1      45.609   4.473  13.249  0.00  0.00    +0.000 C 
ENDROOT
BRANCH   1   7
ATOM      7  C   UNL     1      47.556   5.843  14.247  0.00  0.00    +0.000 C 
BRANCH   7   8
ATOM      8  N   UNL     1      47.542   7.299  14.301  0.00  0.00    +0.000 NA
ATOM      9  H   UNL     1      46.574   7.616  14.367  0.00  0.00    +0.000 HD
ATOM     10  H   UNL     1      47.899   7.677  13.424  0.00  0.00    +0.000 HD
ENDBRANCH   7   8
ENDBRANCH   1   7
BRANCH   4  11
ATOM     11  C   UNL     1      44.140   4.563   9.606  0.00  0.00    +0.000 C 
BRANCH  11  12
ATOM     12  N   UNL     1      44.790   3.332   9.171  0.00  0.00    +0.000 N 
ATOM     13  C   UNL     1      44.404   2.082   9.585  0.00  0.00    +0.000 A 
ATOM     14  C   UNL     1      45.098   1.154   8.845  0.00  0.00    +0.000 A 
ATOM     15  C   UNL     1      45.971   1.861   7.978  0.00  0.00    +0.000 A 
ATOM     16  C   UNL     1      46.889   1.456   6.985  0.00  0.00    +0.000 A 
ATOM     17  C   UNL     1      47.633   2.419   6.298  0.00  0.00    +0.000 A 
ATOM     18  C   UNL     1      47.498   3.768   6.612  0.00  0.00    +0.000 A 
ATOM     19  C   UNL     1      46.594   4.195   7.592  0.00  0.00    +0.000 A 
ATOM     20  C   UNL     1      45.812   3.226   8.244  0.00  0.00    +0.000 A 
ENDBRANCH  11  12
ENDBRANCH   4  11
TORSDOF 4
ENDMDL
MODEL 5
REMARK VINA RESULT:    -6.229      1.261      2.517
REMARK INTER + INTRA:          -7.615
REMARK INTER:                  -7.185
REMARK INTRA:                  -0.430
REMARK UNBOUND:                -0.112
REMARK  Name = 
REMARK  4 active torsions:
REMARK  status: ('A' for Active; 'I' for Inactive)
REMARK    1  A    between atoms: N_1  and  C_2
REMARK    2  A    between atoms: C_2  and  C_3
REMARK    3  A    between atoms: C_6  and  C_7
REMARK    4  A    between atoms: C_7  and  N_8
REMARK                            x       y       z     vdW  Elec       q    Type
REMARK                         _______ _______ _______ _____ _____    ______ ____
ROOT
ATOM      1  C   UNL     1      45.917   3.064   7.417  0.00  0.00    +0.000 C 
ATOM      2  C   UNL     1      46.580   4.368   7.884  0.00  0.00    +0.000 C 
ATOM      3  C   UNL     1      45.730   5.118   8.901  0.00  0.00    +0.000 C 
ATOM      4  C   UNL     1      45.366   4.258  10.120  0.00  0.00    +0.000 C 
ATOM      5  C   UNL     1      44.751   2.918   9.674  0.00  0.00    +0.000 C 
ATOM      6  C   UNL     1      45.610   2.179   8.637  0.00  0.00    +0.000 C 
ENDROOT
BRANCH   1   7
ATOM      7  C   UNL     1      46.836   2.396   6.375  0.00  0.00    +0.000 C 
BRANCH   7   8
ATOM      8  N   UNL     1      48.211   2.878   6.417  0.00  0.00    +0.000 NA
ATOM      9  H   UNL     1      48.735   2.442   5.657  0.00  0.00    +0.000 HD
ATOM     10  H   UNL     1      48.657   2.564   7.278  0.00  0.00    +0.000 HD
ENDBRANCH   7   8
ENDBRANCH   1   7
BRANCH   4  11
ATOM     11  C   UNL     1      44.409   5.014  11.076  0.00  0.00    +0.000 C 
BRANCH  11  12
ATOM     12  N   UNL     1      44.898   6.329  11.477  0.00  0.00    +0.000 N 
ATOM     13  C   UNL     1      44.254   7.503  11.175  0.00  0.00    +0.000 A 
ATOM     14  C   UNL     1      44.878   8.520  11.859  0.00  0.00    +0.000 A 
ATOM     15  C   UNL     1      45.968   7.955  12.571  0.00  0.00    +0.000 A 
ATOM     16  C   UNL     1      46.932   8.490  13.450  0.00  0.00    +0.000 A 
ATOM     17  C   UNL     1      47.915   7.654  13.989  0.00  0.00    +0.000 A 
ATOM     18  C   UNL     1      47.967   6.310  13.634  0.00  0.00    +0.000 A 
ATOM     19  C   UNL     1      47.021   5.755  12.764  0.00  0.00    +0.000 A 
ATOM     20  C   UNL     1      46.005   6.589  12.265  0.00  0.00    +0.000 A 
ENDBRANCH  11  12
ENDBRANCH   4  11
TORSDOF 4
ENDMDL
MODEL 6
REMARK VINA RESULT:    -5.745      2.107      4.016
REMARK INTER + INTRA:          -7.033
REMARK INTER:                  -6.718
REMARK INTRA:                  -0.315
REMARK UNBOUND:                -0.112
REMARK  Name = 
REMARK  4 active torsions:
REMARK  status: ('A' for Active; 'I' for Inactive)
REMARK    1  A    between atoms: N_1  and  C_2
REMARK    2  A    between atoms: C_2  and  C_3
REMARK    3  A    between atoms: C_6  and  C_7
REMARK    4  A    between atoms: C_7  and  N_8
REMARK                            x       y       z     vdW  Elec       q    Type
REMARK                         _______ _______ _______ _____ _____    ______ ____
ROOT
ATOM      1  C   UNL     1      44.459   3.608   9.727  0.00  0.00    +0.000 C 
ATOM      2  C   UNL     1      45.380   4.788   9.382  0.00  0.00    +0.000 C 
ATOM      3  C   UNL     1      45.325   5.891  10.430  0.00  0.00    +0.000 C 
ATOM      4  C   UNL     1      45.644   5.383  11.844  0.00  0.00    +0.000 C 
ATOM      5  C   UNL     1      44.772   4.162  12.191  0.00  0.00    +0.000 C 
ATOM      6  C   UNL     1      44.823   3.063  11.118  0.00  0.00    +0.000 C 
ENDROOT
BRANCH   1   7
ATOM      7  C   UNL     1      44.563   2.563   8.599  0.00  0.00    +0.000 C 
BRANCH   7   8
ATOM      8  N   UNL     1      45.668   1.629   8.771  0.00  0.00    +0.000 NA
ATOM      9  H   UNL     1      46.545   2.123   8.599  0.00  0.00    +0.000 HD
ATOM     10  H   UNL     1      45.616   0.902   8.059  0.00  0.00    +0.000 HD
ENDBRANCH   7   8
ENDBRANCH   1   7
BRANCH   4  11
ATOM     11  C   UNL     1      45.469   6.505  12.898  0.00  0.00    +0.000 C 
BRANCH  11  12
ATOM     12  N   UNL     1      46.011   7.793  12.481  0.00  0.00    +0.000 N 
ATOM     13  C   UNL     1      45.263   8.942  12.397  0.00  0.00    +0.000 A 
ATOM     14  C   UNL     1      46.119   9.992  12.160  0.00  0.00    +0.000 A 
ATOM     15  C   UNL     1      47.431   9.462  12.051  0.00  0.00    +0.000 A 
ATOM     16  C   UNL     1      48.698  10.047  11.845  0.00  0.00    +0.000 A 
ATOM     17  C   UNL     1      49.831   9.232  11.766  0.00  0.00    +0.000 A 
ATOM     18  C   UNL     1      49.710   7.849  11.853  0.00  0.00    +0.000 A 
ATOM     19  C   UNL     1      48.463   7.244  12.059  0.00  0.00    +0.000 A 
ATOM     20  C   UNL     1      47.335   8.072  12.188  0.00  0.00    +0.000 A 
ENDBRANCH  11  12
ENDBRANCH   4  11
TORSDOF 4
ENDMDL
MODEL 7
REMARK VINA RESULT:    -5.745      3.969      7.772
REMARK INTER + INTRA:          -7.032
REMARK INTER:                  -6.767
REMARK INTRA:                  -0.265
REMARK UNBOUND:                -0.112
REMARK  Name = 
REMARK  4 active torsions:
REMARK  status: ('A' for Active; 'I' for Inactive)
REMARK    1  A    between atoms: N_1  and  C_2
REMARK    2  A    between atoms: C_2  and  C_3
REMARK    3  A    between atoms: C_6  and  C_7
REMARK    4  A    between atoms: C_7  and  N_8
REMARK                            x       y       z     vdW  Elec       q    Type
REMARK                         _______ _______ _______ _____ _____    ______ ____
ROOT
ATOM      1  C   UNL     1      48.866   4.402  18.184  0.00  0.00    +0.000 C 
ATOM      2  C   UNL     1      48.497   5.754  17.556  0.00  0.00    +0.000 C 
ATOM      3  C   UNL     1      48.332   5.665  16.045  0.00  0.00    +0.000 C 
ATOM      4  C   UNL     1      47.310   4.600  15.620  0.00  0.00    +0.000 C 
ATOM      5  C   UNL     1      47.627   3.248  16.285  0.00  0.00    +0.000 C 
ATOM      6  C   UNL     1      47.806   3.354  17.807  0.00  0.00    +0.000 C 
ENDROOT
BRANCH   1   7
ATOM      7  C   UNL     1      49.035   4.601  19.704  0.00  0.00    +0.000 C 
BRANCH   7   8
ATOM      8  N   UNL     1      48.364   3.584  20.502  0.00  0.00    +0.000 NA
ATOM      9  H   UNL     1      47.660   4.037  21.087  0.00  0.00    +0.000 HD
ATOM     10  H   UNL     1      49.030   3.161  21.148  0.00  0.00    +0.000 HD
ENDBRANCH   7   8
ENDBRANCH   1   7
BRANCH   4  11
ATOM     11  C   UNL     1      47.253   4.459  14.078  0.00  0.00    +0.000 C 
BRANCH  11  12
ATOM     12  N   UNL     1      46.356   5.412  13.433  0.00  0.00    +0.000 N 
ATOM     13  C   UNL     1      46.659   6.739  13.253  0.00  0.00    +0.000 A 
ATOM     14  C   UNL     1      45.686   7.294  12.455  0.00  0.00    +0.000 A 
ATOM     15  C   UNL     1      44.732   6.282  12.173  0.00  0.00    +0.000 A 
ATOM     16  C   UNL     1      43.554   6.251  11.397  0.00  0.00    +0.000 A 
ATOM     17  C   UNL     1      42.801   5.075  11.330  0.00  0.00    +0.000 A 
ATOM     18  C   UNL     1      43.189   3.950  12.052  0.00  0.00    +0.000 A 
ATOM     19  C   UNL     1      44.354   3.956  12.828  0.00  0.00    +0.000 A 
ATOM     20  C   UNL     1      45.133   5.125  12.851  0.00  0.00    +0.000 A 
ENDBRANCH  11  12
ENDBRANCH   4  11
TORSDOF 4
ENDMDL
MODEL 8
REMARK VINA RESULT:    -5.740      2.003      3.627
REMARK INTER + INTRA:          -7.026
REMARK INTER:                  -6.563
REMARK INTRA:                  -0.462
REMARK UNBOUND:                -0.112
REMARK  Name = 
REMARK  4 active torsions:
REMARK  status: ('A' for Active; 'I' for Inactive)
REMARK    1  A    between atoms: N_1  and  C_2
REMARK    2  A    between atoms: C_2  and  C_3
REMARK    3  A    between atoms: C_6  and  C_7
REMARK    4  A    between atoms: C_7  and  N_8
REMARK                            x       y       z     vdW  Elec       q    Type
REMARK                         _______ _______ _______ _____ _____    ______ ____
ROOT
ATOM      1  C   UNL     1      44.694   4.033   8.979  0.00  0.00    +0.000 C 
ATOM      2  C   UNL     1      45.855   5.024   9.144  0.00  0.00    +0.000 C 
ATOM      3  C   UNL     1      45.718   5.873  10.401  0.00  0.00    +0.000 C 
ATOM      4  C   UNL     1      45.573   5.028  11.675  0.00  0.00    +0.000 C 
ATOM      5  C   UNL     1      44.450   3.986  11.511  0.00  0.00    +0.000 C 
ATOM      6  C   UNL     1      44.591   3.147  10.232  0.00  0.00    +0.000 C 
ENDROOT
BRANCH   1   7
ATOM      7  C   UNL     1      44.909   3.244   7.672  0.00  0.00    +0.000 C 
BRANCH   7   8
ATOM      8  N   UNL     1      46.085   3.668   6.923  0.00  0.00    +0.000 NA
ATOM      9  H   UNL     1      45.894   4.578   6.500  0.00  0.00    +0.000 HD
ATOM     10  H   UNL     1      46.244   3.029   6.145  0.00  0.00    +0.000 HD
ENDBRANCH   7   8
ENDBRANCH   1   7
BRANCH   4  11
ATOM     11  C   UNL     1      45.322   5.921  12.916  0.00  0.00    +0.000 C 
BRANCH  11  12
ATOM     12  N   UNL     1      46.308   6.982  13.086  0.00  0.00    +0.000 N 
ATOM     13  C   UNL     1      47.570   6.774  13.584  0.00  0.00    +0.000 A 
ATOM     14  C   UNL     1      48.287   7.938  13.432  0.00  0.00    +0.000 A 
ATOM     15  C   UNL     1      47.420   8.905  12.860  0.00  0.00    +0.000 A 
ATOM     16  C   UNL     1      47.596  10.245  12.455  0.00  0.00    +0.000 A 
ATOM     17  C   UNL     1      46.513  10.956  11.929  0.00  0.00    +0.000 A 
ATOM     18  C   UNL     1      45.259  10.361  11.837  0.00  0.00    +0.000 A 
ATOM     19  C   UNL     1      45.059   9.032  12.231  0.00  0.00    +0.000 A 
ATOM     20  C   UNL     1      46.163   8.307  12.712  0.00  0.00    +0.000 A 
ENDBRANCH  11  12
ENDBRANCH   4  11
TORSDOF 4
ENDMDL
MODEL 9
REMARK VINA RESULT:    -5.711      3.238      5.391
REMARK INTER + INTRA:          -6.991
REMARK INTER:                  -6.488
REMARK INTRA:                  -0.502
REMARK UNBOUND:                -0.112
REMARK  Name = 
REMARK  4 active torsions:
REMARK  status: ('A' for Active; 'I' for Inactive)
REMARK    1  A    between atoms: N_1  and  C_2
REMARK    2  A    between atoms: C_2  and  C_3
REMARK    3  A    between atoms: C_6  and  C_7
REMARK    4  A    between atoms: C_7  and  N_8
REMARK                            x       y       z     vdW  Elec       q    Type
REMARK                         _______ _______ _______ _____ _____    ______ ____
ROOT
ATOM      1  C   UNL     1      44.439   4.238  11.861  0.00  0.00    +0.000 C 
ATOM      2  C   UNL     1      44.951   5.370  10.959  0.00  0.00    +0.000 C 
ATOM      3  C   UNL     1      45.613   6.489  11.752  0.00  0.00    +0.000 C 
ATOM      4  C   UNL     1      46.754   5.986  12.649  0.00  0.00    +0.000 C 
ATOM      5  C   UNL     1      46.279   4.810  13.523  0.00  0.00    +0.000 C 
ATOM      6  C   UNL     1      45.599   3.696  12.713  0.00  0.00    +0.000 C 
ENDROOT
BRANCH   1   7
ATOM      7  C   UNL     1      43.765   3.173  10.973  0.00  0.00    +0.000 C 
BRANCH   7   8
ATOM      8  N   UNL     1      43.024   2.170  11.726  0.00  0.00    +0.000 NA
ATOM      9  H   UNL     1      43.524   1.281  11.669  0.00  0.00    +0.000 HD
ATOM     10  H   UNL     1      42.120   2.009  11.285  0.00  0.00    +0.000 HD
ENDBRANCH   7   8
ENDBRANCH   1   7
BRANCH   4  11
ATOM     11  C   UNL     1      47.327   7.130  13.523  0.00  0.00    +0.000 C 
BRANCH  11  12
ATOM     12  N   UNL     1      48.316   7.954  12.838  0.00  0.00    +0.000 N 
ATOM     13  C   UNL     1      49.611   7.557  12.611  0.00  0.00    +0.000 A 
ATOM     14  C   UNL     1      50.204   8.484  11.787  0.00  0.00    +0.000 A 
ATOM     15  C   UNL     1      49.252   9.507  11.535  0.00  0.00    +0.000 A 
ATOM     16  C   UNL     1      49.276  10.681  10.753  0.00  0.00    +0.000 A 
ATOM     17  C   UNL     1      48.154  11.515  10.725  0.00  0.00    +0.000 A 
ATOM     18  C   UNL     1      47.032  11.211  11.489  0.00  0.00    +0.000 A 
ATOM     19  C   UNL     1      46.984  10.051  12.273  0.00  0.00    +0.000 A 
ATOM     20  C   UNL     1      48.096   9.191  12.258  0.00  0.00    +0.000 A 
ENDBRANCH  11  12
ENDBRANCH   4  11
TORSDOF 4
ENDMDL
