MODEL 1
REMARK VINA RESULT:    -7.983      0.000      0.000
REMARK INTER + INTRA:          -9.749
REMARK INTER:                  -9.383
REMARK INTRA:                  -0.366
REMARK UNBOUND:                -0.366
REMARK  Name = 
REMARK  3 active torsions:
REMARK  status: ('A' for Active; 'I' for Inactive)
REMARK    1  A    between atoms: C_2  and  C_4
REMARK    2  A    between atoms: N_8  and  C_9
REMARK    3  A    between atoms: C_9  and  C_10
REMARK                            x       y       z     vdW  Elec       q    Type
REMARK                         _______ _______ _______ _____ _____    ______ ____
ROOT
ATOM      1  C   UNL     1      46.377   2.304   7.755  0.00  0.00    +0.000 A 
ATOM      2  C   UNL     1      45.501   1.868   8.719  0.00  0.00    +0.000 A 
ATOM      3  N   UNL     1      44.637   2.683   9.365  0.00  0.00    +0.000 NA
ATOM      4  C   UNL     1      44.659   3.986   9.039  0.00  0.00    +0.000 A 
ATOM      5  N   UNL     1      43.797   4.874   9.661  0.00  0.00    +0.000 N 
ATOM      6  N   UNL     1      45.489   4.509   8.127  0.00  0.00    +0.000 NA
ATOM      7  C   UNL     1      46.336   3.656   7.503  0.00  0.00    +0.000 A 
ATOM      8  H   UNL     1      44.176   5.803   9.515  0.00  0.00    +0.000 HD
ENDROOT
BRANCH   1  10
ATOM      9  N   UNL     1      48.467   2.006   6.553  0.00  0.00    +0.000 N 
ATOM     10  C   UNL     1      47.334   1.434   7.060  0.00  0.00    +0.000 C 
ATOM     11  O   UNL     1      47.133   0.231   6.958  0.00  0.00    +0.000 OA
ATOM     12  H   UNL     1      49.147   1.371   6.152  0.00  0.00    +0.000 HD
ATOM     13  H   UNL     1      48.799   2.924   6.816  0.00  0.00    +0.000 HD
ENDBRANCH   1  10
BRANCH   5  14
ATOM     14  C   UNL     1      43.506   4.538  11.040  0.00  0.00    +0.000 C 
BRANCH  14  15
ATOM     15  C   UNL     1      44.614   5.036  11.934  0.00  0.00    +0.000 A 
ATOM     16  C   UNL     1      45.309   4.151  12.767  0.00  0.00    +0.000 A 
ATOM     17  C   UNL     1      46.349   4.639  13.541  0.00  0.00    +0.000 A 
ATOM     18  N   UNL     1      46.740   5.931  13.542  0.00  0.00    +0.000 NA
ATOM     19  C   UNL     1      46.059   6.771  12.733  0.00  0.00    +0.000 A 
ATOM     20  C   UNL     1      45.005   6.378  11.923  0.00  0.00    +0.000 A 
ENDBRANCH  14  15
ENDBRANCH   5  14
TORSDOF 3
ENDMDL
MODEL 2
REMARK VINA RESULT:    -7.412      2.484      6.087
REMARK INTER + INTRA:          -9.078
REMARK INTER:                  -8.829
REMARK INTRA:                  -0.249
REMARK UNBOUND:                -0.366
REMARK  Name = 
REMARK  3 active torsions:
REMARK  status: ('A' for Active; 'I' for Inactive)
REMARK    1  A    between atoms: C_2  and  C_4
REMARK    2  A    between atoms: N_8  and  C_9
REMARK    3  A    between atoms: C_9  and  C_10
REMARK                            x       y       z     vdW  Elec       q    Type
REMARK                         _______ _______ _______ _____ _____    ______ ____
ROOT
ATOM      1  C   UNL     1      45.994   4.709  12.841  0.00  0.00    +0.000 A 
ATOM      2  C   UNL     1      45.938   5.511  11.727  0.00  0.00    +0.000 A 
ATOM      3  N   UNL     1      45.350   5.138  10.569  0.00  0.00    +0.000 NA
ATOM      4  C   UNL     1      44.806   3.911  10.522  0.00  0.00    +0.000 A 
ATOM      5  N   UNL     1      44.185   3.468   9.366  0.00  0.00    +0.000 N 
ATOM      6  N   UNL     1      44.828   3.050  11.549  0.00  0.00    +0.000 NA
ATOM      7  C   UNL     1      45.426   3.466  12.690  0.00  0.00    +0.000 A 
ATOM      8  H   UNL     1      44.131   2.457   9.430  0.00  0.00    +0.000 HD
ENDROOT
BRANCH   1  10
ATOM      9  N   UNL     1      47.201   6.342  14.176  0.00  0.00    +0.000 N 
ATOM     10  C   UNL     1      46.648   5.095  14.099  0.00  0.00    +0.000 C 
ATOM     11  O   UNL     1      46.676   4.329  15.054  0.00  0.00    +0.000 OA
ATOM     12  H   UNL     1      47.571   6.611  15.081  0.00  0.00    +0.000 HD
ATOM     13  H   UNL     1      46.996   7.089  13.526  0.00  0.00    +0.000 HD
ENDBRANCH   1  10
BRANCH   5  14
ATOM     14  C   UNL     1      44.783   3.977   8.149  0.00  0.00    +0.000 C 
BRANCH  14  15
ATOM     15  C   UNL     1      45.848   3.025   7.663  0.00  0.00    +0.000 A 
ATOM     16  C   UNL     1      46.833   3.457   6.768  0.00  0.00    +0.000 A 
ATOM     17  C   UNL     1      47.819   2.565   6.379  0.00  0.00    +0.000 A 
ATOM     18  N   UNL     1      47.892   1.290   6.816  0.00  0.00    +0.000 NA
ATOM     19  C   UNL     1      46.933   0.891   7.679  0.00  0.00    +0.000 A 
ATOM     20  C   UNL     1      45.906   1.708   8.126  0.00  0.00    +0.000 A 
ENDBRANCH  14  15
ENDBRANCH   5  14
TORSDOF 3
ENDMDL
MODEL 3
REMARK VINA RESULT:    -7.023      1.346      1.898
REMARK INTER + INTRA:          -8.621
REMARK INTER:                  -8.357
REMARK INTRA:                  -0.263
REMARK UNBOUND:                -0.366
REMARK  Name = 
REMARK  3 active torsions:
REMARK  status: ('A' for Active; 'I' for Inactive)
REMARK    1  A    between atoms: C_2  and  C_4
REMARK    2  A    between atoms: N_8  and  C_9
REMARK    3  A    between atoms: C_9  and  C_10
REMARK                            x       y       z     vdW  Elec       q    Type
REMARK                         _______ _______ _______ _____ _____    ______ ____
ROOT
ATOM      1  C   UNL     1      46.415   2.156   7.870  0.00  0.00    +0.000 A 
ATOM      2  C   UNL     1      45.635   2.002   8.990  0.00  0.00    +0.000 A 
ATOM      3  N   UNL     1      45.013   3.028   9.611  0.00  0.00    +0.000 NA
ATOM      4  C   UNL     1      45.187   4.256   9.097  0.00  0.00    +0.000 A 
ATOM      5  N   UNL     1      44.574   5.351   9.685  0.00  0.00    +0.000 N 
ATOM      6  N   UNL     1      45.944   4.510   8.021  0.00  0.00    +0.000 NA
ATOM      7  C   UNL     1      46.547   3.452   7.428  0.00  0.00    +0.000 A 
ATOM      8  H   UNL     1      45.067   6.175   9.356  0.00  0.00    +0.000 HD
ENDROOT
BRANCH   1  10
ATOM      9  N   UNL     1      46.810  -0.224   7.579  0.00  0.00    +0.000 N 
ATOM     10  C   UNL     1      47.112   1.053   7.196  0.00  0.00    +0.000 C 
ATOM     11  O   UNL     1      47.922   1.271   6.304  0.00  0.00    +0.000 OA
ATOM     12  H   UNL     1      47.244  -0.966   7.042  0.00  0.00    +0.000 HD
ATOM     13  H   UNL     1      45.991  -0.470   8.119  0.00  0.00    +0.000 HD
ENDBRANCH   1  10
BRANCH   5  14
ATOM     14  C   UNL     1      44.442   5.245  11.123  0.00  0.00    +0.000 C 
BRANCH  14  15
ATOM     15  C   UNL     1      45.140   6.406  11.789  0.00  0.00    +0.000 A 
ATOM     16  C   UNL     1      44.701   7.717  11.574  0.00  0.00    +0.000 A 
ATOM     17  C   UNL     1      45.339   8.753  12.236  0.00  0.00    +0.000 A 
ATOM     18  N   UNL     1      46.370   8.574  13.090  0.00  0.00    +0.000 NA
ATOM     19  C   UNL     1      46.780   7.302  13.286  0.00  0.00    +0.000 A 
ATOM     20  C   UNL     1      46.207   6.201  12.669  0.00  0.00    +0.000 A 
ENDBRANCH  14  15
ENDBRANCH   5  14
TORSDOF 3
ENDMDL
MODEL 4
REMARK VINA RESULT:    -6.707      2.965      6.178
REMARK INTER + INTRA:          -8.248
REMARK INTER:                  -7.949
REMARK INTRA:                  -0.299
REMARK UNBOUND:                -0.366
REMARK  Name = 
REMARK  3 active torsions:
REMARK  status: ('A' for Active; 'I' for Inactive)
REMARK    1  A    between atoms: C_2  and  C_4
REMARK    2  A    between atoms: N_8  and  C_9
REMARK    3  A    between atoms: C_9  and  C_10
REMARK                            x       y       z     vdW  Elec       q    Type
REMARK                         _______ _______ _______ _____ _____    ______ ____
ROOT
ATOM      1  C   UNL     1      45.094   6.774  12.126  0.00  0.00    +0.000 A 
ATOM      2  C   UNL     1      44.089   6.321  11.307  0.00  0.00    +0.000 A 
ATOM      3  N   UNL     1      43.968   5.032  10.918  0.00  0.00    +0.000 NA
ATOM      4  C   UNL     1      44.895   4.166  11.359  0.00  0.00    +0.000 A 
ATOM      5  N   UNL     1      44.827   2.830  11.000  0.00  0.00    +0.000 N 
ATOM      6  N   UNL     1      45.923   4.516  12.145  0.00  0.00    +0.000 NA
ATOM      7  C   UNL     1      46.004   5.817  12.512  0.00  0.00    +0.000 A 
ATOM      8  H   UNL     1      45.747   2.435  11.163  0.00  0.00    +0.000 HD
ENDROOT
BRANCH   1  10
ATOM      9  N   UNL     1      44.387   9.096  12.014  0.00  0.00    +0.000 N 
ATOM     10  C   UNL     1      45.249   8.175  12.540  0.00  0.00    +0.000 C 
ATOM     11  O   UNL     1      46.109   8.501  13.348  0.00  0.00    +0.000 OA
ATOM     12  H   UNL     1      44.464  10.038  12.379  0.00  0.00    +0.000 HD
ATOM     13  H   UNL     1      43.522   8.855  11.549  0.00  0.00    +0.000 HD
ENDBRANCH   1  10
BRANCH   5  14
ATOM     14  C   UNL     1      44.286   2.608   9.675  0.00  0.00    +0.000 C 
BRANCH  14  15
ATOM     15  C   UNL     1      45.406   2.570   8.664  0.00  0.00    +0.000 A 
ATOM     16  C   UNL     1      46.052   1.365   8.363  0.00  0.00    +0.000 A 
ATOM     17  C   UNL     1      47.046   1.364   7.398  0.00  0.00    +0.000 A 
ATOM     18  N   UNL     1      47.434   2.465   6.719  0.00  0.00    +0.000 NA
ATOM     19  C   UNL     1      46.800   3.617   7.023  0.00  0.00    +0.000 A 
ATOM     20  C   UNL     1      45.795   3.721   7.972  0.00  0.00    +0.000 A 
ENDBRANCH  14  15
ENDBRANCH   5  14
TORSDOF 3
ENDMDL
MODEL 5
REMARK VINA RESULT:    -6.000      3.938      6.251
REMARK INTER + INTRA:          -7.418
REMARK INTER:                  -7.197
REMARK INTRA:                  -0.221
REMARK UNBOUND:                -0.366
REMARK  Name = 
REMARK  3 active torsions:
REMARK  status: ('A' for Active; 'I' for Inactive)
REMARK    1  A    between atoms: C_2  and  C_4
REMARK    2  A    between atoms: N_8  and  C_9
REMARK    3  A    between atoms: C_9  and  C_10
REMARK                            x       y       z     vdW  Elec       q    Type
REMARK                         _______ _______ _______ _____ _____    ______ ____
ROOT
ATOM      1  C   UNL     1      44.643   4.925  11.996  0.00  0.00    +0.000 A 
ATOM      2  C   UNL     1      45.278   5.678  12.953  0.00  0.00    +0.000 A 
ATOM      3  N   UNL     1      46.162   5.167  13.838  0.00  0.00    +0.000 NA
ATOM      4  C   UNL     1      46.412   3.849  13.769  0.00  0.00    +0.000 A 
ATOM      5  N   UNL     1      47.310   3.262  14.645  0.00  0.00    +0.000 N 
ATOM      6  N   UNL     1      45.827   3.029  12.884  0.00  0.00    +0.000 NA
ATOM      7  C   UNL     1      44.950   3.584  12.015  0.00  0.00    +0.000 A 
ATOM      8  H   UNL     1      47.120   2.266  14.637  0.00  0.00    +0.000 HD
ENDROOT
BRANCH   1  10
ATOM      9  N   UNL     1      43.106   6.680  11.317  0.00  0.00    +0.000 N 
ATOM     10  C   UNL     1      43.666   5.463  11.041  0.00  0.00    +0.000 C 
ATOM     11  O   UNL     1      43.380   4.852  10.020  0.00  0.00    +0.000 OA
ATOM     12  H   UNL     1      42.498   7.064  10.602  0.00  0.00    +0.000 HD
ATOM     13  H   UNL     1      43.477   7.328  11.997  0.00  0.00    +0.000 HD
ENDBRANCH   1  10
BRANCH   5  14
ATOM     14  C   UNL     1      47.331   3.875  15.958  0.00  0.00    +0.000 C 
BRANCH  14  15
ATOM     15  C   UNL     1      48.646   3.584  16.638  0.00  0.00    +0.000 A 
ATOM     16  C   UNL     1      49.177   2.289  16.635  0.00  0.00    +0.000 A 
ATOM     17  C   UNL     1      50.407   2.071  17.233  0.00  0.00    +0.000 A 
ATOM     18  N   UNL     1      51.137   3.041  17.825  0.00  0.00    +0.000 NA
ATOM     19  C   UNL     1      50.608   4.284  17.819  0.00  0.00    +0.000 A 
ATOM     20  C   UNL     1      49.386   4.602  17.247  0.00  0.00    +0.000 A 
ENDBRANCH  14  15
ENDBRANCH   5  14
TORSDOF 3
ENDMDL
MODEL 6
REMARK VINA RESULT:    -5.757      4.917      7.976
REMARK INTER + INTRA:          -7.133
REMARK INTER:                  -6.870
REMARK INTRA:                  -0.263
REMARK UNBOUND:                -0.366
REMARK  Name = 
REMARK  3 active torsions:
REMARK  status: ('A' for Active; 'I' for Inactive)
REMARK    1  A    between atoms: C_2  and  C_4
REMARK    2  A    between atoms: N_8  and  C_9
REMARK    3  A    between atoms: C_9  and  C_10
REMARK                            x       y       z     vdW  Elec       q    Type
REMARK                         _______ _______ _______ _____ _____    ______ ____
ROOT
ATOM      1  C   UNL     1      48.654   3.886  17.808  0.00  0.00    +0.000 A 
ATOM      2  C   UNL     1      47.772   4.782  17.255  0.00  0.00    +0.000 A 
ATOM      3  N   UNL     1      47.213   4.621  16.035  0.00  0.00    +0.000 NA
ATOM      4  C   UNL     1      47.558   3.526  15.339  0.00  0.00    +0.000 A 
ATOM      5  N   UNL     1      47.019   3.299  14.084  0.00  0.00    +0.000 N 
ATOM      6  N   UNL     1      48.424   2.605  15.785  0.00  0.00    +0.000 NA
ATOM      7  C   UNL     1      48.959   2.805  17.013  0.00  0.00    +0.000 A 
ATOM      8  H   UNL     1      47.621   2.626  13.622  0.00  0.00    +0.000 HD
ENDROOT
BRANCH   1  10
ATOM      9  N   UNL     1      50.650   4.058  19.184  0.00  0.00    +0.000 N 
ATOM     10  C   UNL     1      49.284   4.058  19.124  0.00  0.00    +0.000 C 
ATOM     11  O   UNL     1      48.606   4.218  20.131  0.00  0.00    +0.000 OA
ATOM     12  H   UNL     1      51.056   4.261  20.090  0.00  0.00    +0.000 HD
ATOM     13  H   UNL     1      51.247   4.177  18.377  0.00  0.00    +0.000 HD
ENDBRANCH   1  10
BRANCH   5  14
ATOM     14  C   UNL     1      46.759   4.510  13.332  0.00  0.00    +0.000 C 
BRANCH  14  15
ATOM     15  C   UNL     1      45.362   4.469  12.761  0.00  0.00    +0.000 A 
ATOM     16  C   UNL     1      44.889   3.317  12.122  0.00  0.00    +0.000 A 
ATOM     17  C   UNL     1      43.587   3.303  11.649  0.00  0.00    +0.000 A 
ATOM     18  N   UNL     1      42.734   4.343  11.770  0.00  0.00    +0.000 NA
ATOM     19  C   UNL     1      43.208   5.445  12.389  0.00  0.00    +0.000 A 
ATOM     20  C   UNL     1      44.494   5.556  12.895  0.00  0.00    +0.000 A 
ENDBRANCH  14  15
ENDBRANCH   5  14
TORSDOF 3
ENDMDL
MODEL 7
REMARK VINA RESULT:    -5.530      4.656      7.129
REMARK INTER + INTRA:          -6.865
REMARK INTER:                  -6.581
REMARK INTRA:                  -0.285
REMARK UNBOUND:                -0.366
REMARK  Name = 
REMARK  3 active torsions:
REMARK  status: ('A' for Active; 'I' for Inactive)
REMARK    1  A    between atoms: C_2  and  C_4
REMARK    2  A    between atoms: N_8  and  C_9
REMARK    3  A    between atoms: C_9  and  C_10
REMARK                            x       y       z     vdW  Elec       q    Type
REMARK                         _______ _______ _______ _____ _____    ______ ____
ROOT
ATOM      1  C   UNL     1      46.432   5.954  12.846  0.00  0.00    +0.000 A 
ATOM      2  C   UNL     1      47.469   6.188  13.716  0.00  0.00    +0.000 A 
ATOM      3  N   UNL     1      47.814   5.338  14.709  0.00  0.00    +0.000 NA
ATOM      4  C   UNL     1      47.086   4.218  14.842  0.00  0.00    +0.000 A 
ATOM      5  N   UNL     1      47.389   3.304  15.838  0.00  0.00    +0.000 N 
ATOM      6  N   UNL     1      46.044   3.912  14.056  0.00  0.00    +0.000 NA
ATOM      7  C   UNL     1      45.735   4.790  13.073  0.00  0.00    +0.000 A 
ATOM      8  H   UNL     1      46.568   2.723  15.963  0.00  0.00    +0.000 HD
ENDROOT
BRANCH   1  10
ATOM      9  N   UNL     1      45.179   6.412  10.815  0.00  0.00    +0.000 N 
ATOM     10  C   UNL     1      46.033   6.878  11.776  0.00  0.00    +0.000 C 
ATOM     11  O   UNL     1      46.436   8.033  11.758  0.00  0.00    +0.000 OA
ATOM     12  H   UNL     1      44.857   7.093  10.136  0.00  0.00    +0.000 HD
ATOM     13  H   UNL     1      44.632   5.568  10.911  0.00  0.00    +0.000 HD
ENDBRANCH   1  10
BRANCH   5  14
ATOM     14  C   UNL     1      47.907   3.908  17.048  0.00  0.00    +0.000 C 
BRANCH  14  15
ATOM     15  C   UNL     1      49.314   3.424  17.302  0.00  0.00    +0.000 A 
ATOM     16  C   UNL     1      49.666   2.095  17.038  0.00  0.00    +0.000 A 
ATOM     17  C   UNL     1      50.978   1.699  17.244  0.00  0.00    +0.000 A 
ATOM     18  N   UNL     1      51.950   2.525  17.686  0.00  0.00    +0.000 NA
ATOM     19  C   UNL     1      51.592   3.802  17.935  0.00  0.00    +0.000 A 
ATOM     20  C   UNL     1      50.307   4.293  17.762  0.00  0.00    +0.000 A 
ENDBRANCH  14  15
ENDBRANCH   5  14
TORSDOF 3
ENDMDL
MODEL 8
REMARK VINA RESULT:    -5.439      3.276      5.351
REMARK INTER + INTRA:          -6.759
REMARK INTER:                  -6.503
REMARK INTRA:                  -0.256
REMARK UNBOUND:                -0.366
REMARK  Name = 
REMARK  3 active torsions:
REMARK  status: ('A' for Active; 'I' for Inactive)
REMARK    1  A    between atoms: C_2  and  C_4
REMARK    2  A    between atoms: N_8  and  C_9
REMARK    3  A    between atoms: C_9  and  C_10
REMARK                            x       y       z     vdW  Elec       q    Type
REMARK                         _______ _______ _______ _____ _____    ______ ____
ROOT
ATOM      1  C   UNL     1      44.552   4.078  11.612  0.00  0.00    +0.000 A 
ATOM      2  C   UNL     1      44.740   5.243  10.908  0.00  0.00    +0.000 A 
ATOM      3  N   UNL     1      45.316   6.346  11.434  0.00  0.00    +0.000 NA
ATOM      4  C   UNL     1      45.710   6.284  12.716  0.00  0.00    +0.000 A 
ATOM      5  N   UNL     1      46.311   7.380  13.314  0.00  0.00    +0.000 N 
ATOM      6  N   UNL     1      45.552   5.201  13.489  0.00  0.00    +0.000 NA
ATOM      7  C   UNL     1      44.972   4.117  12.921  0.00  0.00    +0.000 A 
ATOM      8  H   UNL     1      46.240   7.242  14.317  0.00  0.00    +0.000 HD
ENDROOT
BRANCH   1  10
ATOM      9  N   UNL     1      44.483   2.291   9.966  0.00  0.00    +0.000 N 
ATOM     10  C   UNL     1      43.909   2.878  11.060  0.00  0.00    +0.000 C 
ATOM     11  O   UNL     1      42.905   2.408  11.576  0.00  0.00    +0.000 OA
ATOM     12  H   UNL     1      44.067   1.420   9.657  0.00  0.00    +0.000 HD
ATOM     13  H   UNL     1      45.426   2.483   9.656  0.00  0.00    +0.000 HD
ENDBRANCH   1  10
BRANCH   5  14
ATOM     14  C   UNL     1      45.818   8.653  12.831  0.00  0.00    +0.000 C 
BRANCH  14  15
ATOM     15  C   UNL     1      46.938   9.419  12.169  0.00  0.00    +0.000 A 
ATOM     16  C   UNL     1      46.729  10.721  11.702  0.00  0.00    +0.000 A 
ATOM     17  C   UNL     1      47.793  11.407  11.139  0.00  0.00    +0.000 A 
ATOM     18  N   UNL     1      49.035  10.892  11.013  0.00  0.00    +0.000 NA
ATOM     19  C   UNL     1      49.217   9.634  11.469  0.00  0.00    +0.000 A 
ATOM     20  C   UNL     1      48.216   8.868  12.047  0.00  0.00    +0.000 A 
ENDBRANCH  14  15
ENDBRANCH   5  14
TORSDOF 3
ENDMDL
MODEL 9
REMARK VINA RESULT:    -5.219      3.746      6.217
REMARK INTER + INTRA:          -6.500
REMARK INTER:                  -6.172
REMARK INTRA:                  -0.328
REMARK UNBOUND:                -0.366
REMARK  Name = 
REMARK  3 active torsions:
REMARK  status: ('A' for Active; 'I' for Inactive)
REMARK    1  A    between atoms: C_2  and  C_4
REMARK    2  A    between atoms: N_8  and  C_9
REMARK    3  A    between atoms: C_9  and  C_10
REMARK                            x       y       z     vdW  Elec       q    Type
REMARK                         _______ _______ _______ _____ _____    ______ ____
ROOT
ATOM      1  C   UNL     1      48.954   7.900  12.331  0.00  0.00    +0.000 A 
ATOM      2  C   UNL     1      47.677   8.398  12.240  0.00  0.00    +0.000 A 
ATOM      3  N   UNL     1      46.582   7.723  12.655  0.00  0.00    +0.000 NA
ATOM      4  C   UNL     1      46.773   6.499  13.173  0.00  0.00    +0.000 A 
ATOM      5  N   UNL     1      45.694   5.755  13.620  0.00  0.00    +0.000 N 
ATOM      6  N   UNL     1      47.977   5.920  13.285  0.00  0.00    +0.000 NA
ATOM      7  C   UNL     1      49.046   6.633  12.858  0.00  0.00    +0.000 A 
ATOM      8  H   UNL     1      46.002   4.791  13.670  0.00  0.00    +0.000 HD
ENDROOT
BRANCH   1  10
ATOM      9  N   UNL     1      51.266   7.877  11.582  0.00  0.00    +0.000 N 
ATOM     10  C   UNL     1      50.150   8.615  11.866  0.00  0.00    +0.000 C 
ATOM     11  O   UNL     1      50.140   9.829  11.716  0.00  0.00    +0.000 OA
ATOM     12  H   UNL     1      52.048   8.385  11.185  0.00  0.00    +0.000 HD
ATOM     13  H   UNL     1      51.258   6.874  11.450  0.00  0.00    +0.000 HD
ENDBRANCH   1  10
BRANCH   5  14
ATOM     14  C   UNL     1      44.478   5.975  12.863  0.00  0.00    +0.000 C 
BRANCH  14  15
ATOM     15  C   UNL     1      44.203   4.785  11.978  0.00  0.00    +0.000 A 
ATOM     16  C   UNL     1      44.608   4.787  10.638  0.00  0.00    +0.000 A 
ATOM     17  C   UNL     1      44.375   3.658   9.869  0.00  0.00    +0.000 A 
ATOM     18  N   UNL     1      43.777   2.542  10.337  0.00  0.00    +0.000 NA
ATOM     19  C   UNL     1      43.393   2.558  11.631  0.00  0.00    +0.000 A 
ATOM     20  C   UNL     1      43.581   3.638  12.480  0.00  0.00    +0.000 A 
ENDBRANCH  14  15
ENDBRANCH   5  14
TORSDOF 3
ENDMDL
