MODEL 1
REMARK VINA RESULT:    -8.452      0.000      0.000
REMARK INTER + INTRA:         -11.128
REMARK INTER:                 -10.922
REMARK INTRA:                  -0.205
REMARK UNBOUND:                -0.205
REMARK  Name = 
REMARK  5 active torsions:
REMARK  status: ('A' for Active; 'I' for Inactive)
REMARK    1  A    between atoms: C_2  and  C_3
REMARK    2  A    between atoms: C_6  and  N_7
REMARK    3  A    between atoms: N_7  and  C_8
REMARK    4  A    between atoms: C_8  and  C_9
REMARK    5  A    between atoms: C_13  and  C_14
REMARK                            x       y       z     vdW  Elec       q    Type
REMARK                         _______ _______ _______ _____ _____    ______ ____
ROOT
ATOM      1  C   UNL     1      44.056   4.876  11.563  0.00  0.00    +0.000 C 
ATOM      2  C   UNL     1      43.376   3.743  12.318  0.00  0.00    +0.000 C 
ATOM      3  C   UNL     1      42.840   5.133  12.422  0.00  0.00    +0.000 C 
ENDROOT
BRANCH   1   4
ATOM      4  C   UNL     1      45.431   5.341  12.006  0.00  0.00    +0.000 A 
ATOM      5  C   UNL     1      46.096   6.381  11.339  0.00  0.00    +0.000 A 
ATOM      6  C   UNL     1      47.198   7.012  11.911  0.00  0.00    +0.000 A 
ATOM      7  C   UNL     1      47.678   6.589  13.151  0.00  0.00    +0.000 A 
ATOM      8  C   UNL     1      47.098   5.501  13.824  0.00  0.00    +0.000 A 
ATOM      9  C   UNL     1      45.982   4.891  13.220  0.00  0.00    +0.000 A 
BRANCH   8  10
ATOM     10  C   UNL     1      47.595   5.038  15.140  0.00  0.00    +0.000 A 
ATOM     11  C   UNL     1      47.198   3.804  15.685  0.00  0.00    +0.000 A 
ATOM     12  C   UNL     1      47.671   3.372  16.929  0.00  0.00    +0.000 A 
ATOM     13  C   UNL     1      48.566   4.157  17.648  0.00  0.00    +0.000 A 
ATOM     14  C   UNL     1      48.987   5.375  17.126  0.00  0.00    +0.000 A 
ATOM     15  C   UNL     1      48.501   5.812  15.889  0.00  0.00    +0.000 A 
ENDBRANCH   8  10
ENDBRANCH   1   4
BRANCH   1  16
ATOM     16  N   UNL     1      43.989   4.745  10.114  0.00  0.00    +0.000 N 
ATOM     17  H   UNL     1      43.168   5.082   9.623  0.00  0.00    +0.000 HD
BRANCH  16  21
ATOM     18  C   UNL     1      46.469   2.588   7.679  0.00  0.00    +0.000 A 
ATOM     19  C   UNL     1      46.333   3.963   7.598  0.00  0.00    +0.000 A 
ATOM     20  N   UNL     1      45.471   4.658   8.378  0.00  0.00    +0.000 NA
ATOM     21  C   UNL     1      44.740   3.951   9.270  0.00  0.00    +0.000 A 
ATOM     22  C   UNL     1      44.857   2.566   9.322  0.00  0.00    +0.000 A 
ATOM     23  N   UNL     1      45.719   1.853   8.535  0.00  0.00    +0.000 NA
BRANCH  18  25
ATOM     24  N   UNL     1      48.265   1.422   6.224  0.00  0.00    +0.000 NA
ATOM     25  C   UNL     1      47.445   1.908   6.882  0.00  0.00    +0.000 C 
ENDBRANCH  18  25
ENDBRANCH  16  21
ENDBRANCH   1  16
TORSDOF 5
ENDMDL
MODEL 2
REMARK VINA RESULT:    -8.369      1.790      3.634
REMARK INTER + INTRA:         -11.020
REMARK INTER:                 -10.027
REMARK INTRA:                  -0.993
REMARK UNBOUND:                -0.205
REMARK  Name = 
REMARK  5 active torsions:
REMARK  status: ('A' for Active; 'I' for Inactive)
REMARK    1  A    between atoms: C_2  and  C_3
REMARK    2  A    between atoms: C_6  and  N_7
REMARK    3  A    between atoms: N_7  and  C_8
REMARK    4  A    between atoms: C_8  and  C_9
REMARK    5  A    between atoms: C_13  and  C_14
REMARK                            x       y       z     vdW  Elec       q    Type
REMARK                         _______ _______ _______ _____ _____    ______ ____
ROOT
ATOM      1  C   UNL     1      43.857   4.993  11.364  0.00  0.00    +0.000 C 
ATOM      2  C   UNL     1      42.484   5.125  12.006  0.00  0.00    +0.000 C 
ATOM      3  C   UNL     1      42.934   6.133  11.000  0.00  0.00    +0.000 C 
ENDROOT
BRANCH   1   4
ATOM      4  C   UNL     1      45.095   5.236  12.207  0.00  0.00    +0.000 A 
ATOM      5  C   UNL     1      45.569   4.263  13.100  0.00  0.00    +0.000 A 
ATOM      6  C   UNL     1      46.849   4.348  13.642  0.00  0.00    +0.000 A 
ATOM      7  C   UNL     1      47.671   5.430  13.324  0.00  0.00    +0.000 A 
ATOM      8  C   UNL     1      47.217   6.471  12.497  0.00  0.00    +0.000 A 
ATOM      9  C   UNL     1      45.920   6.349  11.963  0.00  0.00    +0.000 A 
BRANCH   8  10
ATOM     10  C   UNL     1      48.075   7.626  12.150  0.00  0.00    +0.000 A 
ATOM     11  C   UNL     1      49.432   7.464  11.821  0.00  0.00    +0.000 A 
ATOM     12  C   UNL     1      50.238   8.560  11.494  0.00  0.00    +0.000 A 
ATOM     13  C   UNL     1      49.699   9.843  11.472  0.00  0.00    +0.000 A 
ATOM     14  C   UNL     1      48.356  10.031  11.779  0.00  0.00    +0.000 A 
ATOM     15  C   UNL     1      47.557   8.935  12.121  0.00  0.00    +0.000 A 
ENDBRANCH   8  10
ENDBRANCH   1   4
BRANCH   1  16
ATOM     16  N   UNL     1      44.012   3.804  10.537  0.00  0.00    +0.000 N 
ATOM     17  H   UNL     1      43.542   2.947  10.808  0.00  0.00    +0.000 HD
BRANCH  16  21
ATOM     18  C   UNL     1      46.600   2.749   7.551  0.00  0.00    +0.000 A 
ATOM     19  C   UNL     1      46.061   1.840   8.444  0.00  0.00    +0.000 A 
ATOM     20  N   UNL     1      45.244   2.212   9.458  0.00  0.00    +0.000 NA
ATOM     21  C   UNL     1      44.954   3.528   9.565  0.00  0.00    +0.000 A 
ATOM     22  C   UNL     1      45.526   4.441   8.684  0.00  0.00    +0.000 A 
ATOM     23  N   UNL     1      46.357   4.078   7.661  0.00  0.00    +0.000 NA
BRANCH  18  25
ATOM     24  N   UNL     1      48.104   1.922   5.612  0.00  0.00    +0.000 NA
ATOM     25  C   UNL     1      47.402   2.299   6.453  0.00  0.00    +0.000 C 
ENDBRANCH  18  25
ENDBRANCH  16  21
ENDBRANCH   1  16
TORSDOF 5
ENDMDL
MODEL 3
REMARK VINA RESULT:    -7.950      3.088      7.369
REMARK INTER + INTRA:         -10.479
REMARK INTER:                  -9.744
REMARK INTRA:                  -0.734
REMARK UNBOUND:                -0.205
REMARK  Name = 
REMARK  5 active torsions:
REMARK  status: ('A' for Active; 'I' for Inactive)
REMARK    1  A    between atoms: C_2  and  C_3
REMARK    2  A    between atoms: C_6  and  N_7
REMARK    3  A    between atoms: N_7  and  C_8
REMARK    4  A    between atoms: C_8  and  C_9
REMARK    5  A    between atoms: C_13  and  C_14
REMARK                            x       y       z     vdW  Elec       q    Type
REMARK                         _______ _______ _______ _____ _____    ______ ____
ROOT
ATOM      1  C   UNL     1      46.068   7.123  12.401  0.00  0.00    +0.000 C 
ATOM      2  C   UNL     1      46.232   8.458  11.688  0.00  0.00    +0.000 C 
ATOM      3  C   UNL     1      45.427   8.378  12.944  0.00  0.00    +0.000 C 
ENDROOT
BRANCH   1   4
ATOM      4  C   UNL     1      45.225   6.038  11.756  0.00  0.00    +0.000 A 
ATOM      5  C   UNL     1      43.837   5.982  11.956  0.00  0.00    +0.000 A 
ATOM      6  C   UNL     1      43.025   5.195  11.143  0.00  0.00    +0.000 A 
ATOM      7  C   UNL     1      43.594   4.420  10.131  0.00  0.00    +0.000 A 
ATOM      8  C   UNL     1      44.985   4.379   9.940  0.00  0.00    +0.000 A 
ATOM      9  C   UNL     1      45.774   5.192  10.776  0.00  0.00    +0.000 A 
BRANCH   8  10
ATOM     10  C   UNL     1      45.605   3.562   8.872  0.00  0.00    +0.000 A 
ATOM     11  C   UNL     1      46.182   4.152   7.734  0.00  0.00    +0.000 A 
ATOM     12  C   UNL     1      46.766   3.375   6.728  0.00  0.00    +0.000 A 
ATOM     13  C   UNL     1      46.803   1.989   6.847  0.00  0.00    +0.000 A 
ATOM     14  C   UNL     1      46.253   1.379   7.970  0.00  0.00    +0.000 A 
ATOM     15  C   UNL     1      45.656   2.158   8.966  0.00  0.00    +0.000 A 
ENDBRANCH   8  10
ENDBRANCH   1   4
BRANCH   1  16
ATOM     16  N   UNL     1      47.312   6.577  12.926  0.00  0.00    +0.000 N 
ATOM     17  H   UNL     1      48.131   6.544  12.329  0.00  0.00    +0.000 HD
BRANCH  16  21
ATOM     18  C   UNL     1      47.913   4.526  16.414  0.00  0.00    +0.000 A 
ATOM     19  C   UNL     1      48.638   5.650  16.060  0.00  0.00    +0.000 A 
ATOM     20  N   UNL     1      48.462   6.289  14.879  0.00  0.00    +0.000 NA
ATOM     21  C   UNL     1      47.522   5.791  14.043  0.00  0.00    +0.000 A 
ATOM     22  C   UNL     1      46.820   4.642  14.391  0.00  0.00    +0.000 A 
ATOM     23  N   UNL     1      46.995   3.984  15.576  0.00  0.00    +0.000 NA
BRANCH  18  25
ATOM     24  N   UNL     1      48.276   3.493  18.760  0.00  0.00    +0.000 NA
ATOM     25  C   UNL     1      48.086   3.927  17.703  0.00  0.00    +0.000 C 
ENDBRANCH  18  25
ENDBRANCH  16  21
ENDBRANCH   1  16
TORSDOF 5
ENDMDL
MODEL 4
REMARK VINA RESULT:    -7.691      2.209      2.974
REMARK INTER + INTRA:         -10.144
REMARK INTER:                  -9.973
REMARK INTRA:                  -0.171
REMARK UNBOUND:                -0.205
REMARK  Name = 
REMARK  5 active torsions:
REMARK  status: ('A' for Active; 'I' for Inactive)
REMARK    1  A    between atoms: C_2  and  C_3
REMARK    2  A    between atoms: C_6  and  N_7
REMARK    3  A    between atoms: N_7  and  C_8
REMARK    4  A    between atoms: C_8  and  C_9
REMARK    5  A    between atoms: C_13  and  C_14
REMARK                            x       y       z     vdW  Elec       q    Type
REMARK                         _______ _______ _______ _____ _____    ______ ____
ROOT
ATOM      1  C   UNL     1      44.444   4.562  11.563  0.00  0.00    +0.000 C 
ATOM      2  C   UNL     1      45.148   3.522  12.422  0.00  0.00    +0.000 C 
ATOM      3  C   UNL     1      43.810   4.046  12.833  0.00  0.00    +0.000 C 
ENDROOT
BRANCH   1   4
ATOM      4  C   UNL     1      45.006   5.970  11.494  0.00  0.00    +0.000 A 
ATOM      5  C   UNL     1      44.165   7.081  11.329  0.00  0.00    +0.000 A 
ATOM      6  C   UNL     1      44.627   8.373  11.568  0.00  0.00    +0.000 A 
ATOM      7  C   UNL     1      45.955   8.581  11.945  0.00  0.00    +0.000 A 
ATOM      8  C   UNL     1      46.859   7.510  12.046  0.00  0.00    +0.000 A 
ATOM      9  C   UNL     1      46.356   6.218  11.804  0.00  0.00    +0.000 A 
BRANCH   8  10
ATOM     10  C   UNL     1      48.271   7.712  12.443  0.00  0.00    +0.000 A 
ATOM     11  C   UNL     1      48.698   7.520  13.769  0.00  0.00    +0.000 A 
ATOM     12  C   UNL     1      50.034   7.713  14.139  0.00  0.00    +0.000 A 
ATOM     13  C   UNL     1      50.976   8.085  13.185  0.00  0.00    +0.000 A 
ATOM     14  C   UNL     1      50.585   8.267  11.864  0.00  0.00    +0.000 A 
ATOM     15  C   UNL     1      49.246   8.089  11.500  0.00  0.00    +0.000 A 
ENDBRANCH   8  10
ENDBRANCH   1   4
BRANCH   1  16
ATOM     16  N   UNL     1      44.071   4.082  10.240  0.00  0.00    +0.000 N 
ATOM     17  H   UNL     1      43.091   3.936  10.022  0.00  0.00    +0.000 HD
BRANCH  16  21
ATOM     18  C   UNL     1      46.622   2.525   7.447  0.00  0.00    +0.000 A 
ATOM     19  C   UNL     1      46.318   3.873   7.530  0.00  0.00    +0.000 A 
ATOM     20  N   UNL     1      45.433   4.366   8.428  0.00  0.00    +0.000 NA
ATOM     21  C   UNL     1      44.853   3.482   9.271  0.00  0.00    +0.000 A 
ATOM     22  C   UNL     1      45.138   2.125   9.161  0.00  0.00    +0.000 A 
ATOM     23  N   UNL     1      46.024   1.614   8.253  0.00  0.00    +0.000 NA
BRANCH  18  25
ATOM     24  N   UNL     1      48.449   1.647   5.836  0.00  0.00    +0.000 NA
ATOM     25  C   UNL     1      47.616   2.061   6.527  0.00  0.00    +0.000 C 
ENDBRANCH  18  25
ENDBRANCH  16  21
ENDBRANCH   1  16
TORSDOF 5
ENDMDL
MODEL 5
REMARK VINA RESULT:    -6.967      3.859      7.982
REMARK INTER + INTRA:          -9.209
REMARK INTER:                  -8.339
REMARK INTRA:                  -0.870
REMARK UNBOUND:                -0.205
REMARK  Name = 
REMARK  5 active torsions:
REMARK  status: ('A' for Active; 'I' for Inactive)
REMARK    1  A    between atoms: C_2  and  C_3
REMARK    2  A    between atoms: C_6  and  N_7
REMARK    3  A    between atoms: N_7  and  C_8
REMARK    4  A    between atoms: C_8  and  C_9
REMARK    5  A    between atoms: C_13  and  C_14
REMARK                            x       y       z     vdW  Elec       q    Type
REMARK                         _______ _______ _______ _____ _____    ______ ____
ROOT
ATOM      1  C   UNL     1      49.011   7.856  12.723  0.00  0.00    +0.000 C 
ATOM      2  C   UNL     1      49.932   7.939  11.515  0.00  0.00    +0.000 C 
ATOM      3  C   UNL     1      49.658   9.163  12.327  0.00  0.00    +0.000 C 
ENDROOT
BRANCH   1   4
ATOM      4  C   UNL     1      47.526   7.630  12.507  0.00  0.00    +0.000 A 
ATOM      5  C   UNL     1      46.588   8.635  12.793  0.00  0.00    +0.000 A 
ATOM      6  C   UNL     1      45.281   8.553  12.321  0.00  0.00    +0.000 A 
ATOM      7  C   UNL     1      44.876   7.443  11.578  0.00  0.00    +0.000 A 
ATOM      8  C   UNL     1      45.751   6.373  11.331  0.00  0.00    +0.000 A 
ATOM      9  C   UNL     1      47.067   6.493  11.818  0.00  0.00    +0.000 A 
BRANCH   8  10
ATOM     10  C   UNL     1      45.338   5.188  10.546  0.00  0.00    +0.000 A 
ATOM     11  C   UNL     1      45.662   5.056   9.184  0.00  0.00    +0.000 A 
ATOM     12  C   UNL     1      45.268   3.934   8.448  0.00  0.00    +0.000 A 
ATOM     13  C   UNL     1      44.556   2.908   9.062  0.00  0.00    +0.000 A 
ATOM     14  C   UNL     1      44.235   3.005  10.412  0.00  0.00    +0.000 A 
ATOM     15  C   UNL     1      44.617   4.135  11.142  0.00  0.00    +0.000 A 
ENDBRANCH   8  10
ENDBRANCH   1   4
BRANCH   1  16
ATOM     16  N   UNL     1      49.518   7.014  13.797  0.00  0.00    +0.000 N 
ATOM     17  H   UNL     1      50.140   6.245  13.573  0.00  0.00    +0.000 HD
BRANCH  16  21
ATOM     18  C   UNL     1      48.370   6.352  17.667  0.00  0.00    +0.000 A 
ATOM     19  C   UNL     1      48.362   5.368  16.694  0.00  0.00    +0.000 A 
ATOM     20  N   UNL     1      48.697   5.614  15.405  0.00  0.00    +0.000 NA
ATOM     21  C   UNL     1      49.063   6.879  15.095  0.00  0.00    +0.000 A 
ATOM     22  C   UNL     1      49.037   7.870  16.070  0.00  0.00    +0.000 A 
ATOM     23  N   UNL     1      48.693   7.635  17.372  0.00  0.00    +0.000 NA
BRANCH  18  25
ATOM     24  N   UNL     1      47.766   5.759  20.113  0.00  0.00    +0.000 NA
ATOM     25  C   UNL     1      48.074   6.026  19.029  0.00  0.00    +0.000 C 
ENDBRANCH  18  25
ENDBRANCH  16  21
ENDBRANCH   1  16
TORSDOF 5
ENDMDL
MODEL 6
REMARK VINA RESULT:    -6.942      3.235      7.004
REMARK INTER + INTRA:          -9.177
REMARK INTER:                  -8.814
REMARK INTRA:                  -0.362
REMARK UNBOUND:                -0.205
REMARK  Name = 
REMARK  5 active torsions:
REMARK  status: ('A' for Active; 'I' for Inactive)
REMARK    1  A    between atoms: C_2  and  C_3
REMARK    2  A    between atoms: C_6  and  N_7
REMARK    3  A    between atoms: N_7  and  C_8
REMARK    4  A    between atoms: C_8  and  C_9
REMARK    5  A    between atoms: C_13  and  C_14
REMARK                            x       y       z     vdW  Elec       q    Type
REMARK                         _______ _______ _______ _____ _____    ______ ____
ROOT
ATOM      1  C   UNL     1      43.798   5.835  12.000  0.00  0.00    +0.000 C 
ATOM      2  C   UNL     1      43.642   6.936  10.961  0.00  0.00    +0.000 C 
ATOM      3  C   UNL     1      42.458   6.490  11.755  0.00  0.00    +0.000 C 
ENDROOT
BRANCH   1   4
ATOM      4  C   UNL     1      44.061   4.414  11.539  0.00  0.00    +0.000 A 
ATOM      5  C   UNL     1      43.359   3.329  12.088  0.00  0.00    +0.000 A 
ATOM      6  C   UNL     1      43.369   2.081  11.472  0.00  0.00    +0.000 A 
ATOM      7  C   UNL     1      44.113   1.884  10.307  0.00  0.00    +0.000 A 
ATOM      8  C   UNL     1      44.896   2.914   9.760  0.00  0.00    +0.000 A 
ATOM      9  C   UNL     1      44.857   4.164  10.406  0.00  0.00    +0.000 A 
BRANCH   8  10
ATOM     10  C   UNL     1      45.691   2.722   8.526  0.00  0.00    +0.000 A 
ATOM     11  C   UNL     1      45.919   3.777   7.625  0.00  0.00    +0.000 A 
ATOM     12  C   UNL     1      46.671   3.590   6.460  0.00  0.00    +0.000 A 
ATOM     13  C   UNL     1      47.229   2.346   6.180  0.00  0.00    +0.000 A 
ATOM     14  C   UNL     1      47.032   1.289   7.061  0.00  0.00    +0.000 A 
ATOM     15  C   UNL     1      46.267   1.475   8.217  0.00  0.00    +0.000 A 
ENDBRANCH   8  10
ENDBRANCH   1   4
BRANCH   1  16
ATOM     16  N   UNL     1      44.662   6.192  13.116  0.00  0.00    +0.000 N 
ATOM     17  H   UNL     1      44.245   6.484  13.993  0.00  0.00    +0.000 HD
BRANCH  16  21
ATOM     18  C   UNL     1      48.582   7.337  13.352  0.00  0.00    +0.000 A 
ATOM     19  C   UNL     1      47.540   8.229  13.166  0.00  0.00    +0.000 A 
ATOM     20  N   UNL     1      46.253   7.830  13.040  0.00  0.00    +0.000 NA
ATOM     21  C   UNL     1      46.008   6.502  13.118  0.00  0.00    +0.000 A 
ATOM     22  C   UNL     1      47.063   5.609  13.272  0.00  0.00    +0.000 A 
ATOM     23  N   UNL     1      48.368   5.999  13.393  0.00  0.00    +0.000 NA
BRANCH  18  25
ATOM     24  N   UNL     1      50.975   8.231  13.770  0.00  0.00    +0.000 NA
ATOM     25  C   UNL     1      49.918   7.813  13.550  0.00  0.00    +0.000 C 
ENDBRANCH  18  25
ENDBRANCH  16  21
ENDBRANCH   1  16
TORSDOF 5
ENDMDL
MODEL 7
REMARK VINA RESULT:    -6.636      3.031      7.098
REMARK INTER + INTRA:          -8.781
REMARK INTER:                  -7.930
REMARK INTRA:                  -0.851
REMARK UNBOUND:                -0.205
REMARK  Name = 
REMARK  5 active torsions:
REMARK  status: ('A' for Active; 'I' for Inactive)
REMARK    1  A    between atoms: C_2  and  C_3
REMARK    2  A    between atoms: C_6  and  N_7
REMARK    3  A    between atoms: N_7  and  C_8
REMARK    4  A    between atoms: C_8  and  C_9
REMARK    5  A    between atoms: C_13  and  C_14
REMARK                            x       y       z     vdW  Elec       q    Type
REMARK                         _______ _______ _______ _____ _____    ______ ____
ROOT
ATOM      1  C   UNL     1      46.121   5.111  13.401  0.00  0.00    +0.000 C 
ATOM      2  C   UNL     1      46.025   4.393  14.739  0.00  0.00    +0.000 C 
ATOM      3  C   UNL     1      47.231   4.203  13.878  0.00  0.00    +0.000 C 
ENDROOT
BRANCH   1   4
ATOM      4  C   UNL     1      45.207   4.688  12.266  0.00  0.00    +0.000 A 
ATOM      5  C   UNL     1      43.884   5.151  12.187  0.00  0.00    +0.000 A 
ATOM      6  C   UNL     1      43.146   5.020  11.014  0.00  0.00    +0.000 A 
ATOM      7  C   UNL     1      43.709   4.392   9.902  0.00  0.00    +0.000 A 
ATOM      8  C   UNL     1      45.001   3.841   9.953  0.00  0.00    +0.000 A 
ATOM      9  C   UNL     1      45.720   3.997  11.153  0.00  0.00    +0.000 A 
BRANCH   8  10
ATOM     10  C   UNL     1      45.612   3.170   8.784  0.00  0.00    +0.000 A 
ATOM     11  C   UNL     1      46.038   3.896   7.657  0.00  0.00    +0.000 A 
ATOM     12  C   UNL     1      46.616   3.256   6.555  0.00  0.00    +0.000 A 
ATOM     13  C   UNL     1      46.797   1.877   6.563  0.00  0.00    +0.000 A 
ATOM     14  C   UNL     1      46.399   1.136   7.670  0.00  0.00    +0.000 A 
ATOM     15  C   UNL     1      45.808   1.776   8.764  0.00  0.00    +0.000 A 
ENDBRANCH   8  10
ENDBRANCH   1   4
BRANCH   1  16
ATOM     16  N   UNL     1      46.182   6.562  13.511  0.00  0.00    +0.000 N 
ATOM     17  H   UNL     1      45.330   7.082  13.693  0.00  0.00    +0.000 HD
BRANCH  16  21
ATOM     18  C   UNL     1      49.000   9.126  12.021  0.00  0.00    +0.000 A 
ATOM     19  C   UNL     1      48.696   7.908  11.437  0.00  0.00    +0.000 A 
ATOM     20  N   UNL     1      47.797   7.048  11.970  0.00  0.00    +0.000 NA
ATOM     21  C   UNL     1      47.178   7.431  13.110  0.00  0.00    +0.000 A 
ATOM     22  C   UNL     1      47.512   8.641  13.710  0.00  0.00    +0.000 A 
ATOM     23  N   UNL     1      48.424   9.514  13.185  0.00  0.00    +0.000 NA
BRANCH  18  25
ATOM     24  N   UNL     1      50.658  10.709  10.820  0.00  0.00    +0.000 NA
ATOM     25  C   UNL     1      49.907  10.031  11.382  0.00  0.00    +0.000 C 
ENDBRANCH  18  25
ENDBRANCH  16  21
ENDBRANCH   1  16
TORSDOF 5
ENDMDL
MODEL 8
REMARK VINA RESULT:    -6.537      3.060      4.787
REMARK INTER + INTRA:          -8.652
REMARK INTER:                  -7.954
REMARK INTRA:                  -0.698
REMARK UNBOUND:                -0.205
REMARK  Name = 
REMARK  5 active torsions:
REMARK  status: ('A' for Active; 'I' for Inactive)
REMARK    1  A    between atoms: C_2  and  C_3
REMARK    2  A    between atoms: C_6  and  N_7
REMARK    3  A    between atoms: N_7  and  C_8
REMARK    4  A    between atoms: C_8  and  C_9
REMARK    5  A    between atoms: C_13  and  C_14
REMARK                            x       y       z     vdW  Elec       q    Type
REMARK                         _______ _______ _______ _____ _____    ______ ____
ROOT
ATOM      1  C   UNL     1      47.559   8.225  13.203  0.00  0.00    +0.000 C 
ATOM      2  C   UNL     1      47.834   9.469  12.370  0.00  0.00    +0.000 C 
ATOM      3  C   UNL     1      48.397   8.151  11.948  0.00  0.00    +0.000 C 
ENDROOT
BRANCH   1   4
ATOM      4  C   UNL     1      48.201   8.094  14.572  0.00  0.00    +0.000 A 
ATOM      5  C   UNL     1      48.172   9.154  15.492  0.00  0.00    +0.000 A 
ATOM      6  C   UNL     1      48.479   8.948  16.835  0.00  0.00    +0.000 A 
ATOM      7  C   UNL     1      48.855   7.679  17.278  0.00  0.00    +0.000 A 
ATOM      8  C   UNL     1      48.975   6.602  16.384  0.00  0.00    +0.000 A 
ATOM      9  C   UNL     1      48.651   6.845  15.035  0.00  0.00    +0.000 A 
BRANCH   8  10
ATOM     10  C   UNL     1      49.373   5.250  16.836  0.00  0.00    +0.000 A 
ATOM     11  C   UNL     1      48.484   4.162  16.777  0.00  0.00    +0.000 A 
ATOM     12  C   UNL     1      48.866   2.886  17.206  0.00  0.00    +0.000 A 
ATOM     13  C   UNL     1      50.153   2.666  17.688  0.00  0.00    +0.000 A 
ATOM     14  C   UNL     1      51.057   3.720  17.744  0.00  0.00    +0.000 A 
ATOM     15  C   UNL     1      50.668   4.998  17.329  0.00  0.00    +0.000 A 
ENDBRANCH   8  10
ENDBRANCH   1   4
BRANCH   1  16
ATOM     16  N   UNL     1      46.156   7.837  13.243  0.00  0.00    +0.000 N 
ATOM     17  H   UNL     1      45.531   8.301  13.893  0.00  0.00    +0.000 HD
BRANCH  16  21
ATOM     18  C   UNL     1      44.249   4.414  12.069  0.00  0.00    +0.000 A 
ATOM     19  C   UNL     1      45.160   4.457  13.110  0.00  0.00    +0.000 A 
ATOM     20  N   UNL     1      45.821   5.588  13.454  0.00  0.00    +0.000 NA
ATOM     21  C   UNL     1      45.545   6.704  12.743  0.00  0.00    +0.000 A 
ATOM     22  C   UNL     1      44.653   6.647  11.677  0.00  0.00    +0.000 A 
ATOM     23  N   UNL     1      43.986   5.510  11.315  0.00  0.00    +0.000 NA
BRANCH  18  25
ATOM     24  N   UNL     1      42.971   2.237  11.498  0.00  0.00    +0.000 NA
ATOM     25  C   UNL     1      43.525   3.212  11.789  0.00  0.00    +0.000 C 
ENDBRANCH  18  25
ENDBRANCH  16  21
ENDBRANCH   1  16
TORSDOF 5
ENDMDL
MODEL 9
REMARK VINA RESULT:    -6.359      4.865      8.061
REMARK INTER + INTRA:          -8.423
REMARK INTER:                  -7.951
REMARK INTRA:                  -0.472
REMARK UNBOUND:                -0.205
REMARK  Name = 
REMARK  5 active torsions:
REMARK  status: ('A' for Active; 'I' for Inactive)
REMARK    1  A    between atoms: C_2  and  C_3
REMARK    2  A    between atoms: C_6  and  N_7
REMARK    3  A    between atoms: N_7  and  C_8
REMARK    4  A    between atoms: C_8  and  C_9
REMARK    5  A    between atoms: C_13  and  C_14
REMARK                            x       y       z     vdW  Elec       q    Type
REMARK                         _______ _______ _______ _____ _____    ______ ____
ROOT
ATOM      1  C   UNL     1      48.138   4.735  16.858  0.00  0.00    +0.000 C 
ATOM      2  C   UNL     1      47.155   4.897  18.009  0.00  0.00    +0.000 C 
ATOM      3  C   UNL     1      47.235   3.598  17.276  0.00  0.00    +0.000 C 
ENDROOT
BRANCH   1   4
ATOM      4  C   UNL     1      47.891   5.484  15.562  0.00  0.00    +0.000 A 
ATOM      5  C   UNL     1      48.724   6.541  15.164  0.00  0.00    +0.000 A 
ATOM      6  C   UNL     1      48.696   7.026  13.859  0.00  0.00    +0.000 A 
ATOM      7  C   UNL     1      47.806   6.482  12.932  0.00  0.00    +0.000 A 
ATOM      8  C   UNL     1      46.896   5.477  13.300  0.00  0.00    +0.000 A 
ATOM      9  C   UNL     1      46.957   5.007  14.626  0.00  0.00    +0.000 A 
BRANCH   8  10
ATOM     10  C   UNL     1      45.944   4.890  12.330  0.00  0.00    +0.000 A 
ATOM     11  C   UNL     1      45.644   5.527  11.113  0.00  0.00    +0.000 A 
ATOM     12  C   UNL     1      44.744   4.968  10.200  0.00  0.00    +0.000 A 
ATOM     13  C   UNL     1      44.135   3.747  10.477  0.00  0.00    +0.000 A 
ATOM     14  C   UNL     1      44.425   3.087  11.666  0.00  0.00    +0.000 A 
ATOM     15  C   UNL     1      45.313   3.656  12.583  0.00  0.00    +0.000 A 
ENDBRANCH   8  10
ENDBRANCH   1   4
BRANCH   1  16
ATOM     16  N   UNL     1      49.535   4.824  17.257  0.00  0.00    +0.000 N 
ATOM     17  H   UNL     1      50.036   5.695  17.120  0.00  0.00    +0.000 HD
BRANCH  16  21
ATOM     18  C   UNL     1      52.212   1.770  17.753  0.00  0.00    +0.000 A 
ATOM     19  C   UNL     1      51.043   1.645  17.022  0.00  0.00    +0.000 A 
ATOM     20  N   UNL     1      50.143   2.649  16.909  0.00  0.00    +0.000 NA
ATOM     21  C   UNL     1      50.435   3.813  17.534  0.00  0.00    +0.000 A 
ATOM     22  C   UNL     1      51.595   3.922  18.294  0.00  0.00    +0.000 A 
ATOM     23  N   UNL     1      52.508   2.912  18.422  0.00  0.00    +0.000 NA
BRANCH  18  25
ATOM     24  N   UNL     1      53.948  -0.150  17.742  0.00  0.00    +0.000 NA
ATOM     25  C   UNL     1      53.165   0.703  17.786  0.00  0.00    +0.000 C 
ENDBRANCH  18  25
ENDBRANCH  16  21
ENDBRANCH   1  16
TORSDOF 5
ENDMDL
