MODEL 1
REMARK VINA RESULT:    -7.955      0.000      0.000
REMARK INTER + INTRA:         -11.580
REMARK INTER:                 -10.746
REMARK INTRA:                  -0.834
REMARK UNBOUND:                -0.834
REMARK  Name = 
REMARK  6 active torsions:
REMARK  status: ('A' for Active; 'I' for Inactive)
REMARK    1  A    between atoms: C_2  and  C_25
REMARK    2  A    between atoms: N_3  and  C_4
REMARK    3  A    between atoms: C_4  and  C_5
REMARK    4  A    between atoms: C_8  and  C_9
REMARK    5  A    between atoms: C_9  and  N_10
REMARK    6  A    between atoms: C_11  and  C_13
REMARK                            x       y       z     vdW  Elec       q    Type
REMARK                         _______ _______ _______ _____ _____    ______ ____
ROOT
ATOM      1  C   UNL     1      44.630   5.201  11.307  0.00  0.00    +0.000 A 
ATOM      2  C   UNL     1      45.659   4.731  12.132  0.00  0.00    +0.000 A 
ATOM      3  C   UNL     1      46.471   5.624  12.838  0.00  0.00    +0.000 A 
ATOM      4  C   UNL     1      46.256   7.005  12.747  0.00  0.00    +0.000 A 
ATOM      5  C   UNL     1      45.224   7.475  11.924  0.00  0.00    +0.000 A 
ATOM      6  C   UNL     1      44.414   6.582  11.219  0.00  0.00    +0.000 A 
ENDROOT
BRANCH   1   7
ATOM      7  C   UNL     1      43.797   4.243  10.501  0.00  0.00    +0.000 C 
BRANCH   7  10
ATOM      8  O   UNL     1      45.331   4.679   8.227  0.00  0.00    +0.000 OA
ATOM      9  C   UNL     1      45.305   3.547   8.706  0.00  0.00    +0.000 C 
ATOM     10  N   UNL     1      44.574   3.235   9.831  0.00  0.00    +0.000 N 
ATOM     11  H   UNL     1      44.668   2.296  10.207  0.00  0.00    +0.000 HD
BRANCH   9  12
ATOM     12  C   UNL     1      46.053   2.444   8.140  0.00  0.00    +0.000 A 
ATOM     13  N   UNL     1      45.898   1.167   8.444  0.00  0.00    +0.000 NA
ATOM     14  C   UNL     1      46.793   0.492   7.650  0.00  0.00    +0.000 A 
ATOM     15  C   UNL     1      47.517   1.365   6.872  0.00  0.00    +0.000 A 
ATOM     16  N   UNL     1      47.030   2.602   7.188  0.00  0.00    +0.000 N 
ATOM     17  H   UNL     1      47.318   3.494   6.807  0.00  0.00    +0.000 HD
ENDBRANCH   9  12
ENDBRANCH   7  10
ENDBRANCH   1   7
BRANCH   4  18
ATOM     18  C   UNL     1      47.130   7.977  13.492  0.00  0.00    +0.000 C 
BRANCH  18  19
ATOM     19  N   UNL     1      47.643   7.408  14.712  0.00  0.00    +0.000 N 
ATOM     20  C   UNL     1      48.940   6.980  14.842  0.00  0.00    +0.000 C 
ATOM     21  O   UNL     1      49.748   7.047  13.921  0.00  0.00    +0.000 OA
ATOM     22  H   UNL     1      46.961   7.154  15.419  0.00  0.00    +0.000 HD
BRANCH  20  23
ATOM     23  C   UNL     1      49.340   6.506  16.175  0.00  0.00    +0.000 A 
ATOM     24  C   UNL     1      50.321   7.193  16.876  0.00  0.00    +0.000 A 
ATOM     25  S   UNL     1      50.644   6.543  18.420  0.00  0.00    +0.000 S 
ATOM     26  C   UNL     1      49.518   5.290  18.186  0.00  0.00    +0.000 A 
ATOM     27  N   UNL     1      49.323   4.342  19.142  0.00  0.00    +0.000 NA
ATOM     28  C   UNL     1      48.463   3.432  18.822  0.00  0.00    +0.000 A 
ATOM     29  N   UNL     1      47.773   3.391  17.641  0.00  0.00    +0.000 N 
ATOM     30  C   UNL     1      47.891   4.360  16.672  0.00  0.00    +0.000 A 
ATOM     31  O   UNL     1      47.177   4.355  15.674  0.00  0.00    +0.000 OA
ATOM     32  C   UNL     1      48.879   5.385  16.962  0.00  0.00    +0.000 A 
ATOM     33  H   UNL     1      47.092   2.666  17.467  0.00  0.00    +0.000 HD
ENDBRANCH  20  23
ENDBRANCH  18  19
ENDBRANCH   4  18
TORSDOF 6
ENDMDL
MODEL 2
REMARK VINA RESULT:    -7.715      4.576      9.364
REMARK INTER + INTRA:         -11.255
REMARK INTER:                 -10.470
REMARK INTRA:                  -0.785
REMARK UNBOUND:                -0.834
REMARK  Name = 
REMARK  6 active torsions:
REMARK  status: ('A' for Active; 'I' for Inactive)
REMARK    1  A    between atoms: C_2  and  C_25
REMARK    2  A    between atoms: N_3  and  C_4
REMARK    3  A    between atoms: C_4  and  C_5
REMARK    4  A    between atoms: C_8  and  C_9
REMARK    5  A    between atoms: C_9  and  N_10
REMARK    6  A    between atoms: C_11  and  C_13
REMARK                            x       y       z     vdW  Elec       q    Type
REMARK                         _______ _______ _______ _____ _____    ______ ____
ROOT
ATOM      1  C   UNL     1      51.372   3.065  17.752  0.00  0.00    +0.000 A 
ATOM      2  C   UNL     1      50.640   1.997  17.217  0.00  0.00    +0.000 A 
ATOM      3  C   UNL     1      49.275   2.132  16.948  0.00  0.00    +0.000 A 
ATOM      4  C   UNL     1      48.619   3.345  17.192  0.00  0.00    +0.000 A 
ATOM      5  C   UNL     1      49.351   4.414  17.724  0.00  0.00    +0.000 A 
ATOM      6  C   UNL     1      50.715   4.279  17.993  0.00  0.00    +0.000 A 
ENDROOT
BRANCH   1   7
ATOM      7  C   UNL     1      52.826   2.899  18.097  0.00  0.00    +0.000 C 
BRANCH   7  10
ATOM      8  O   UNL     1      54.592   1.160  16.846  0.00  0.00    +0.000 OA
ATOM      9  C   UNL     1      54.044   0.791  17.882  0.00  0.00    +0.000 C 
ATOM     10  N   UNL     1      53.154   1.582  18.573  0.00  0.00    +0.000 N 
ATOM     11  H   UNL     1      52.804   1.233  19.460  0.00  0.00    +0.000 HD
BRANCH   9  12
ATOM     12  C   UNL     1      54.296  -0.505  18.477  0.00  0.00    +0.000 A 
ATOM     13  N   UNL     1      54.623  -0.727  19.739  0.00  0.00    +0.000 NA
ATOM     14  C   UNL     1      54.736  -2.092  19.851  0.00  0.00    +0.000 A 
ATOM     15  C   UNL     1      54.500  -2.706  18.644  0.00  0.00    +0.000 A 
ATOM     16  N   UNL     1      54.215  -1.687  17.781  0.00  0.00    +0.000 N 
ATOM     17  H   UNL     1      53.981  -1.756  16.799  0.00  0.00    +0.000 HD
ENDBRANCH   9  12
ENDBRANCH   7  10
ENDBRANCH   1   7
BRANCH   4  18
ATOM     18  C   UNL     1      47.147   3.500  16.918  0.00  0.00    +0.000 C 
BRANCH  18  19
ATOM     19  N   UNL     1      46.895   4.467  15.880  0.00  0.00    +0.000 N 
ATOM     20  C   UNL     1      46.975   4.159  14.546  0.00  0.00    +0.000 C 
ATOM     21  O   UNL     1      47.276   3.038  14.148  0.00  0.00    +0.000 OA
ATOM     22  H   UNL     1      46.843   5.439  16.165  0.00  0.00    +0.000 HD
BRANCH  20  23
ATOM     23  C   UNL     1      46.603   5.227  13.607  0.00  0.00    +0.000 A 
ATOM     24  C   UNL     1      47.525   6.221  13.308  0.00  0.00    +0.000 A 
ATOM     25  S   UNL     1      46.958   7.363  12.174  0.00  0.00    +0.000 S 
ATOM     26  C   UNL     1      45.442   6.597  12.079  0.00  0.00    +0.000 A 
ATOM     27  N   UNL     1      44.457   7.098  11.287  0.00  0.00    +0.000 NA
ATOM     28  C   UNL     1      43.348   6.436  11.334  0.00  0.00    +0.000 A 
ATOM     29  N   UNL     1      43.140   5.315  12.089  0.00  0.00    +0.000 N 
ATOM     30  C   UNL     1      44.124   4.737  12.857  0.00  0.00    +0.000 A 
ATOM     31  O   UNL     1      43.939   3.669  13.433  0.00  0.00    +0.000 OA
ATOM     32  C   UNL     1      45.380   5.466  12.875  0.00  0.00    +0.000 A 
ATOM     33  H   UNL     1      42.255   4.828  12.057  0.00  0.00    +0.000 HD
ENDBRANCH  20  23
ENDBRANCH  18  19
ENDBRANCH   4  18
TORSDOF 6
ENDMDL
MODEL 3
REMARK VINA RESULT:    -7.370      1.939      2.290
REMARK INTER + INTRA:         -10.789
REMARK INTER:                  -9.806
REMARK INTRA:                  -0.983
REMARK UNBOUND:                -0.834
REMARK  Name = 
REMARK  6 active torsions:
REMARK  status: ('A' for Active; 'I' for Inactive)
REMARK    1  A    between atoms: C_2  and  C_25
REMARK    2  A    between atoms: N_3  and  C_4
REMARK    3  A    between atoms: C_4  and  C_5
REMARK    4  A    between atoms: C_8  and  C_9
REMARK    5  A    between atoms: C_9  and  N_10
REMARK    6  A    between atoms: C_11  and  C_13
REMARK                            x       y       z     vdW  Elec       q    Type
REMARK                         _______ _______ _______ _____ _____    ______ ____
ROOT
ATOM      1  C   UNL     1      45.144   5.173  11.605  0.00  0.00    +0.000 A 
ATOM      2  C   UNL     1      45.964   4.626  12.600  0.00  0.00    +0.000 A 
ATOM      3  C   UNL     1      46.837   5.439  13.330  0.00  0.00    +0.000 A 
ATOM      4  C   UNL     1      46.892   6.818  13.091  0.00  0.00    +0.000 A 
ATOM      5  C   UNL     1      46.070   7.365  12.098  0.00  0.00    +0.000 A 
ATOM      6  C   UNL     1      45.198   6.553  11.369  0.00  0.00    +0.000 A 
ENDROOT
BRANCH   1   7
ATOM      7  C   UNL     1      44.250   4.289  10.779  0.00  0.00    +0.000 C 
BRANCH   7  10
ATOM      8  O   UNL     1      45.023   4.394   8.114  0.00  0.00    +0.000 OA
ATOM      9  C   UNL     1      45.301   3.388   8.763  0.00  0.00    +0.000 C 
ATOM     10  N   UNL     1      44.959   3.245  10.090  0.00  0.00    +0.000 N 
ATOM     11  H   UNL     1      45.292   2.417  10.574  0.00  0.00    +0.000 HD
BRANCH   9  12
ATOM     12  C   UNL     1      46.024   2.270   8.196  0.00  0.00    +0.000 A 
ATOM     13  N   UNL     1      45.789   0.992   8.440  0.00  0.00    +0.000 NA
ATOM     14  C   UNL     1      46.694   0.301   7.671  0.00  0.00    +0.000 A 
ATOM     15  C   UNL     1      47.504   1.163   6.971  0.00  0.00    +0.000 A 
ATOM     16  N   UNL     1      47.063   2.411   7.308  0.00  0.00    +0.000 N 
ATOM     17  H   UNL     1      47.416   3.301   6.980  0.00  0.00    +0.000 HD
ENDBRANCH   9  12
ENDBRANCH   7  10
ENDBRANCH   1   7
BRANCH   4  18
ATOM     18  C   UNL     1      47.836   7.702  13.862  0.00  0.00    +0.000 C 
BRANCH  18  19
ATOM     19  N   UNL     1      47.945   7.294  15.240  0.00  0.00    +0.000 N 
ATOM     20  C   UNL     1      49.127   6.877  15.797  0.00  0.00    +0.000 C 
ATOM     21  O   UNL     1      50.170   6.816  15.154  0.00  0.00    +0.000 OA
ATOM     22  H   UNL     1      47.076   7.140  15.740  0.00  0.00    +0.000 HD
BRANCH  20  23
ATOM     23  C   UNL     1      49.100   6.578  17.236  0.00  0.00    +0.000 A 
ATOM     24  C   UNL     1      49.637   5.382  17.693  0.00  0.00    +0.000 A 
ATOM     25  S   UNL     1      49.566   5.201  19.388  0.00  0.00    +0.000 S 
ATOM     26  C   UNL     1      48.770   6.695  19.567  0.00  0.00    +0.000 A 
ATOM     27  N   UNL     1      48.388   7.137  20.795  0.00  0.00    +0.000 NA
ATOM     28  C   UNL     1      47.767   8.270  20.784  0.00  0.00    +0.000 A 
ATOM     29  N   UNL     1      47.505   9.004  19.660  0.00  0.00    +0.000 N 
ATOM     30  C   UNL     1      47.926   8.628  18.405  0.00  0.00    +0.000 A 
ATOM     31  O   UNL     1      47.774   9.363  17.433  0.00  0.00    +0.000 OA
ATOM     32  C   UNL     1      48.592   7.338  18.355  0.00  0.00    +0.000 A 
ATOM     33  H   UNL     1      47.040   9.898  19.724  0.00  0.00    +0.000 HD
ENDBRANCH  20  23
ENDBRANCH  18  19
ENDBRANCH   4  18
TORSDOF 6
ENDMDL
MODEL 4
REMARK VINA RESULT:    -7.222      4.032      5.849
REMARK INTER + INTRA:         -10.590
REMARK INTER:                  -9.839
REMARK INTRA:                  -0.750
REMARK UNBOUND:                -0.834
REMARK  Name = 
REMARK  6 active torsions:
REMARK  status: ('A' for Active; 'I' for Inactive)
REMARK    1  A    between atoms: C_2  and  C_25
REMARK    2  A    between atoms: N_3  and  C_4
REMARK    3  A    between atoms: C_4  and  C_5
REMARK    4  A    between atoms: C_8  and  C_9
REMARK    5  A    between atoms: C_9  and  N_10
REMARK    6  A    between atoms: C_11  and  C_13
REMARK                            x       y       z     vdW  Elec       q    Type
REMARK                         _______ _______ _______ _____ _____    ______ ____
ROOT
ATOM      1  C   UNL     1      45.361   7.694  12.134  0.00  0.00    +0.000 A 
ATOM      2  C   UNL     1      44.479   6.607  12.190  0.00  0.00    +0.000 A 
ATOM      3  C   UNL     1      44.830   5.438  12.871  0.00  0.00    +0.000 A 
ATOM      4  C   UNL     1      46.064   5.339  13.526  0.00  0.00    +0.000 A 
ATOM      5  C   UNL     1      46.945   6.427  13.474  0.00  0.00    +0.000 A 
ATOM      6  C   UNL     1      46.594   7.595  12.793  0.00  0.00    +0.000 A 
ENDROOT
BRANCH   1   7
ATOM      7  C   UNL     1      45.008   8.927  11.350  0.00  0.00    +0.000 C 
BRANCH   7  10
ATOM      8  O   UNL     1      43.747  10.655   9.580  0.00  0.00    +0.000 OA
ATOM      9  C   UNL     1      43.066  10.101  10.441  0.00  0.00    +0.000 C 
ATOM     10  N   UNL     1      43.602   9.228  11.362  0.00  0.00    +0.000 N 
ATOM     11  H   UNL     1      42.961   8.754  11.989  0.00  0.00    +0.000 HD
BRANCH   9  12
ATOM     12  C   UNL     1      41.637  10.304  10.554  0.00  0.00    +0.000 A 
ATOM     13  N   UNL     1      40.921  11.174   9.862  0.00  0.00    +0.000 NA
ATOM     14  C   UNL     1      39.625  10.996  10.283  0.00  0.00    +0.000 A 
ATOM     15  C   UNL     1      39.552  10.028  11.256  0.00  0.00    +0.000 A 
ATOM     16  N   UNL     1      40.837   9.591  11.413  0.00  0.00    +0.000 N 
ATOM     17  H   UNL     1      41.171   8.872  12.042  0.00  0.00    +0.000 HD
ENDBRANCH   9  12
ENDBRANCH   7  10
ENDBRANCH   1   7
BRANCH   4  18
ATOM     18  C   UNL     1      46.458   4.082  14.253  0.00  0.00    +0.000 C 
BRANCH  18  19
ATOM     19  N   UNL     1      47.563   4.307  15.150  0.00  0.00    +0.000 N 
ATOM     20  C   UNL     1      47.470   4.107  16.504  0.00  0.00    +0.000 C 
ATOM     21  O   UNL     1      46.434   3.731  17.043  0.00  0.00    +0.000 OA
ATOM     22  H   UNL     1      48.363   4.804  14.773  0.00  0.00    +0.000 HD
BRANCH  20  23
ATOM     23  C   UNL     1      48.707   4.293  17.277  0.00  0.00    +0.000 A 
ATOM     24  C   UNL     1      48.869   5.444  18.036  0.00  0.00    +0.000 A 
ATOM     25  S   UNL     1      50.337   5.492  18.904  0.00  0.00    +0.000 S 
ATOM     26  C   UNL     1      50.830   3.998  18.257  0.00  0.00    +0.000 A 
ATOM     27  N   UNL     1      52.040   3.465  18.580  0.00  0.00    +0.000 NA
ATOM     28  C   UNL     1      52.300   2.343  17.994  0.00  0.00    +0.000 A 
ATOM     29  N   UNL     1      51.458   1.701  17.127  0.00  0.00    +0.000 N 
ATOM     30  C   UNL     1      50.202   2.170  16.820  0.00  0.00    +0.000 A 
ATOM     31  O   UNL     1      49.427   1.515  16.128  0.00  0.00    +0.000 OA
ATOM     32  C   UNL     1      49.874   3.453  17.417  0.00  0.00    +0.000 A 
ATOM     33  H   UNL     1      51.712   0.810  16.726  0.00  0.00    +0.000 HD
ENDBRANCH  20  23
ENDBRANCH  18  19
ENDBRANCH   4  18
TORSDOF 6
ENDMDL
MODEL 5
REMARK VINA RESULT:    -7.148      2.151      3.877
REMARK INTER + INTRA:         -10.489
REMARK INTER:                  -9.471
REMARK INTRA:                  -1.018
REMARK UNBOUND:                -0.834
REMARK  Name = 
REMARK  6 active torsions:
REMARK  status: ('A' for Active; 'I' for Inactive)
REMARK    1  A    between atoms: C_2  and  C_25
REMARK    2  A    between atoms: N_3  and  C_4
REMARK    3  A    between atoms: C_4  and  C_5
REMARK    4  A    between atoms: C_8  and  C_9
REMARK    5  A    between atoms: C_9  and  N_10
REMARK    6  A    between atoms: C_11  and  C_13
REMARK                            x       y       z     vdW  Elec       q    Type
REMARK                         _______ _______ _______ _____ _____    ______ ____
ROOT
ATOM      1  C   UNL     1      44.972   4.312  11.319  0.00  0.00    +0.000 A 
ATOM      2  C   UNL     1      45.281   5.613  11.734  0.00  0.00    +0.000 A 
ATOM      3  C   UNL     1      45.970   5.836  12.930  0.00  0.00    +0.000 A 
ATOM      4  C   UNL     1      46.380   4.758  13.726  0.00  0.00    +0.000 A 
ATOM      5  C   UNL     1      46.074   3.457  13.310  0.00  0.00    +0.000 A 
ATOM      6  C   UNL     1      45.385   3.235  12.114  0.00  0.00    +0.000 A 
ENDROOT
BRANCH   1   7
ATOM      7  C   UNL     1      44.177   4.077  10.064  0.00  0.00    +0.000 C 
BRANCH   7  10
ATOM      8  O   UNL     1      46.076   5.201   8.379  0.00  0.00    +0.000 OA
ATOM      9  C   UNL     1      45.830   4.002   8.265  0.00  0.00    +0.000 C 
ATOM     10  N   UNL     1      44.905   3.356   9.055  0.00  0.00    +0.000 N 
ATOM     11  H   UNL     1      44.817   2.350   8.949  0.00  0.00    +0.000 HD
BRANCH   9  12
ATOM     12  C   UNL     1      46.501   3.158   7.299  0.00  0.00    +0.000 A 
ATOM     13  N   UNL     1      46.825   1.887   7.473  0.00  0.00    +0.000 NA
ATOM     14  C   UNL     1      47.415   1.496   6.296  0.00  0.00    +0.000 A 
ATOM     15  C   UNL     1      47.474   2.541   5.404  0.00  0.00    +0.000 A 
ATOM     16  N   UNL     1      46.883   3.589   6.052  0.00  0.00    +0.000 N 
ATOM     17  H   UNL     1      46.737   4.528   5.703  0.00  0.00    +0.000 HD
ENDBRANCH   9  12
ENDBRANCH   7  10
ENDBRANCH   1   7
BRANCH   4  18
ATOM     18  C   UNL     1      47.112   4.985  15.021  0.00  0.00    +0.000 C 
BRANCH  18  19
ATOM     19  N   UNL     1      47.851   6.222  15.008  0.00  0.00    +0.000 N 
ATOM     20  C   UNL     1      49.039   6.382  15.676  0.00  0.00    +0.000 C 
ATOM     21  O   UNL     1      49.546   5.482  16.339  0.00  0.00    +0.000 OA
ATOM     22  H   UNL     1      47.370   7.037  14.643  0.00  0.00    +0.000 HD
BRANCH  20  23
ATOM     23  C   UNL     1      49.720   7.672  15.495  0.00  0.00    +0.000 A 
ATOM     24  C   UNL     1      50.101   8.403  16.612  0.00  0.00    +0.000 A 
ATOM     25  S   UNL     1      50.914   9.855  16.237  0.00  0.00    +0.000 S 
ATOM     26  C   UNL     1      50.742   9.582  14.566  0.00  0.00    +0.000 A 
ATOM     27  N   UNL     1      51.208  10.485  13.662  0.00  0.00    +0.000 NA
ATOM     28  C   UNL     1      50.984  10.168  12.429  0.00  0.00    +0.000 A 
ATOM     29  N   UNL     1      50.349   9.027  12.020  0.00  0.00    +0.000 N 
ATOM     30  C   UNL     1      49.916   8.057  12.894  0.00  0.00    +0.000 A 
ATOM     31  O   UNL     1      49.452   6.995  12.491  0.00  0.00    +0.000 OA
ATOM     32  C   UNL     1      50.104   8.384  14.297  0.00  0.00    +0.000 A 
ATOM     33  H   UNL     1      50.232   8.826  11.038  0.00  0.00    +0.000 HD
ENDBRANCH  20  23
ENDBRANCH  18  19
ENDBRANCH   4  18
TORSDOF 6
ENDMDL
MODEL 6
REMARK VINA RESULT:    -7.128      1.656      2.366
REMARK INTER + INTRA:         -10.462
REMARK INTER:                  -9.741
REMARK INTRA:                  -0.721
REMARK UNBOUND:                -0.834
REMARK  Name = 
REMARK  6 active torsions:
REMARK  status: ('A' for Active; 'I' for Inactive)
REMARK    1  A    between atoms: C_2  and  C_25
REMARK    2  A    between atoms: N_3  and  C_4
REMARK    3  A    between atoms: C_4  and  C_5
REMARK    4  A    between atoms: C_8  and  C_9
REMARK    5  A    between atoms: C_9  and  N_10
REMARK    6  A    between atoms: C_11  and  C_13
REMARK                            x       y       z     vdW  Elec       q    Type
REMARK                         _______ _______ _______ _____ _____    ______ ____
ROOT
ATOM      1  C   UNL     1      44.921   5.193  11.264  0.00  0.00    +0.000 A 
ATOM      2  C   UNL     1      45.424   4.564  12.409  0.00  0.00    +0.000 A 
ATOM      3  C   UNL     1      46.269   5.249  13.287  0.00  0.00    +0.000 A 
ATOM      4  C   UNL     1      46.612   6.586  13.045  0.00  0.00    +0.000 A 
ATOM      5  C   UNL     1      46.106   7.217  11.902  0.00  0.00    +0.000 A 
ATOM      6  C   UNL     1      45.262   6.531  11.025  0.00  0.00    +0.000 A 
ENDROOT
BRANCH   1   7
ATOM      7  C   UNL     1      44.062   4.436  10.289  0.00  0.00    +0.000 C 
BRANCH   7  10
ATOM      8  O   UNL     1      45.654   4.810   8.044  0.00  0.00    +0.000 OA
ATOM      9  C   UNL     1      45.534   3.672   8.493  0.00  0.00    +0.000 C 
ATOM     10  N   UNL     1      44.767   3.389   9.601  0.00  0.00    +0.000 N 
ATOM     11  H   UNL     1      44.782   2.436   9.953  0.00  0.00    +0.000 HD
BRANCH   9  12
ATOM     12  C   UNL     1      46.201   2.529   7.905  0.00  0.00    +0.000 A 
ATOM     13  N   UNL     1      47.074   2.567   6.913  0.00  0.00    +0.000 NA
ATOM     14  C   UNL     1      47.454   1.262   6.711  0.00  0.00    +0.000 A 
ATOM     15  C   UNL     1      46.792   0.418   7.571  0.00  0.00    +0.000 A 
ATOM     16  N   UNL     1      46.004   1.237   8.329  0.00  0.00    +0.000 N 
ATOM     17  H   UNL     1      45.377   0.970   9.077  0.00  0.00    +0.000 HD
ENDBRANCH   9  12
ENDBRANCH   7  10
ENDBRANCH   1   7
BRANCH   4  18
ATOM     18  C   UNL     1      47.530   7.332  13.977  0.00  0.00    +0.000 C 
BRANCH  18  19
ATOM     19  N   UNL     1      48.149   6.452  14.935  0.00  0.00    +0.000 N 
ATOM     20  C   UNL     1      48.927   6.911  15.967  0.00  0.00    +0.000 C 
ATOM     21  O   UNL     1      49.154   8.105  16.137  0.00  0.00    +0.000 OA
ATOM     22  H   UNL     1      48.150   5.463  14.712  0.00  0.00    +0.000 HD
BRANCH  20  23
ATOM     23  C   UNL     1      49.415   5.900  16.915  0.00  0.00    +0.000 A 
ATOM     24  C   UNL     1      48.500   5.163  17.656  0.00  0.00    +0.000 A 
ATOM     25  S   UNL     1      49.221   4.004  18.679  0.00  0.00    +0.000 S 
ATOM     26  C   UNL     1      50.784   4.479  18.205  0.00  0.00    +0.000 A 
ATOM     27  N   UNL     1      51.885   3.888  18.744  0.00  0.00    +0.000 NA
ATOM     28  C   UNL     1      53.007   4.366  18.318  0.00  0.00    +0.000 A 
ATOM     29  N   UNL     1      53.129   5.370  17.397  0.00  0.00    +0.000 N 
ATOM     30  C   UNL     1      52.047   5.954  16.780  0.00  0.00    +0.000 A 
ATOM     31  O   UNL     1      52.192   6.772  15.876  0.00  0.00    +0.000 OA
ATOM     32  C   UNL     1      50.757   5.484  17.254  0.00  0.00    +0.000 A 
ATOM     33  H   UNL     1      54.039   5.677  17.085  0.00  0.00    +0.000 HD
ENDBRANCH  20  23
ENDBRANCH  18  19
ENDBRANCH   4  18
TORSDOF 6
ENDMDL
MODEL 7
REMARK VINA RESULT:    -7.110      4.836      8.994
REMARK INTER + INTRA:         -10.438
REMARK INTER:                  -9.385
REMARK INTRA:                  -1.054
REMARK UNBOUND:                -0.834
REMARK  Name = 
REMARK  6 active torsions:
REMARK  status: ('A' for Active; 'I' for Inactive)
REMARK    1  A    between atoms: C_2  and  C_25
REMARK    2  A    between atoms: N_3  and  C_4
REMARK    3  A    between atoms: C_4  and  C_5
REMARK    4  A    between atoms: C_8  and  C_9
REMARK    5  A    between atoms: C_9  and  N_10
REMARK    6  A    between atoms: C_11  and  C_13
REMARK                            x       y       z     vdW  Elec       q    Type
REMARK                         _______ _______ _______ _____ _____    ______ ____
ROOT
ATOM      1  C   UNL     1      51.419   2.775  17.670  0.00  0.00    +0.000 A 
ATOM      2  C   UNL     1      50.595   1.816  17.067  0.00  0.00    +0.000 A 
ATOM      3  C   UNL     1      49.253   2.099  16.794  0.00  0.00    +0.000 A 
ATOM      4  C   UNL     1      48.714   3.355  17.102  0.00  0.00    +0.000 A 
ATOM      5  C   UNL     1      49.538   4.315  17.702  0.00  0.00    +0.000 A 
ATOM      6  C   UNL     1      50.879   4.032  17.975  0.00  0.00    +0.000 A 
ENDROOT
BRANCH   1   7
ATOM      7  C   UNL     1      52.844   2.449  18.019  0.00  0.00    +0.000 C 
BRANCH   7  10
ATOM      8  O   UNL     1      54.462   0.582  19.288  0.00  0.00    +0.000 OA
ATOM      9  C   UNL     1      54.115   0.364  18.129  0.00  0.00    +0.000 C 
ATOM     10  N   UNL     1      53.315   1.230  17.419  0.00  0.00    +0.000 N 
ATOM     11  H   UNL     1      53.011   0.940  16.494  0.00  0.00    +0.000 HD
BRANCH   9  12
ATOM     12  C   UNL     1      54.506  -0.832  17.411  0.00  0.00    +0.000 A 
ATOM     13  N   UNL     1      54.965  -1.946  17.955  0.00  0.00    +0.000 NA
ATOM     14  C   UNL     1      55.177  -2.805  16.904  0.00  0.00    +0.000 A 
ATOM     15  C   UNL     1      54.869  -2.202  15.707  0.00  0.00    +0.000 A 
ATOM     16  N   UNL     1      54.436  -0.951  16.045  0.00  0.00    +0.000 N 
ATOM     17  H   UNL     1      54.116  -0.220  15.423  0.00  0.00    +0.000 HD
ENDBRANCH   9  12
ENDBRANCH   7  10
ENDBRANCH   1   7
BRANCH   4  18
ATOM     18  C   UNL     1      47.268   3.667  16.823  0.00  0.00    +0.000 C 
BRANCH  18  19
ATOM     19  N   UNL     1      47.126   4.670  15.798  0.00  0.00    +0.000 N 
ATOM     20  C   UNL     1      47.089   4.362  14.462  0.00  0.00    +0.000 C 
ATOM     21  O   UNL     1      47.184   3.210  14.050  0.00  0.00    +0.000 OA
ATOM     22  H   UNL     1      47.247   5.636  16.084  0.00  0.00    +0.000 HD
BRANCH  20  23
ATOM     23  C   UNL     1      46.850   5.483  13.541  0.00  0.00    +0.000 A 
ATOM     24  C   UNL     1      45.722   5.470  12.731  0.00  0.00    +0.000 A 
ATOM     25  S   UNL     1      45.566   6.857  11.750  0.00  0.00    +0.000 S 
ATOM     26  C   UNL     1      47.025   7.503  12.338  0.00  0.00    +0.000 A 
ATOM     27  N   UNL     1      47.498   8.691  11.874  0.00  0.00    +0.000 NA
ATOM     28  C   UNL     1      48.631   9.048  12.382  0.00  0.00    +0.000 A 
ATOM     29  N   UNL     1      49.326   8.334  13.319  0.00  0.00    +0.000 N 
ATOM     30  C   UNL     1      48.858   7.160  13.863  0.00  0.00    +0.000 A 
ATOM     31  O   UNL     1      49.450   6.602  14.783  0.00  0.00    +0.000 OA
ATOM     32  C   UNL     1      47.607   6.689  13.294  0.00  0.00    +0.000 A 
ATOM     33  H   UNL     1      50.194   8.686  13.697  0.00  0.00    +0.000 HD
ENDBRANCH  20  23
ENDBRANCH  18  19
ENDBRANCH   4  18
TORSDOF 6
ENDMDL
MODEL 8
REMARK VINA RESULT:    -7.016      1.569      2.077
REMARK INTER + INTRA:         -10.311
REMARK INTER:                  -9.350
REMARK INTRA:                  -0.961
REMARK UNBOUND:                -0.834
REMARK  Name = 
REMARK  6 active torsions:
REMARK  status: ('A' for Active; 'I' for Inactive)
REMARK    1  A    between atoms: C_2  and  C_25
REMARK    2  A    between atoms: N_3  and  C_4
REMARK    3  A    between atoms: C_4  and  C_5
REMARK    4  A    between atoms: C_8  and  C_9
REMARK    5  A    between atoms: C_9  and  N_10
REMARK    6  A    between atoms: C_11  and  C_13
REMARK                            x       y       z     vdW  Elec       q    Type
REMARK                         _______ _______ _______ _____ _____    ______ ____
ROOT
ATOM      1  C   UNL     1      45.511   6.718  11.707  0.00  0.00    +0.000 A 
ATOM      2  C   UNL     1      45.254   8.018  12.161  0.00  0.00    +0.000 A 
ATOM      3  C   UNL     1      46.086   8.619  13.111  0.00  0.00    +0.000 A 
ATOM      4  C   UNL     1      47.204   7.938  13.610  0.00  0.00    +0.000 A 
ATOM      5  C   UNL     1      47.463   6.639  13.154  0.00  0.00    +0.000 A 
ATOM      6  C   UNL     1      46.631   6.039  12.205  0.00  0.00    +0.000 A 
ENDROOT
BRANCH   1   7
ATOM      7  C   UNL     1      44.581   6.050  10.732  0.00  0.00    +0.000 C 
BRANCH   7  10
ATOM      8  O   UNL     1      43.956   3.451   9.981  0.00  0.00    +0.000 OA
ATOM      9  C   UNL     1      44.881   4.019   9.405  0.00  0.00    +0.000 C 
ATOM     10  N   UNL     1      45.265   5.306   9.709  0.00  0.00    +0.000 N 
ATOM     11  H   UNL     1      45.988   5.730   9.135  0.00  0.00    +0.000 HD
BRANCH   9  12
ATOM     12  C   UNL     1      45.643   3.390   8.346  0.00  0.00    +0.000 A 
ATOM     13  N   UNL     1      46.074   3.983   7.246  0.00  0.00    +0.000 NA
ATOM     14  C   UNL     1      46.762   3.014   6.555  0.00  0.00    +0.000 A 
ATOM     15  C   UNL     1      46.731   1.816   7.228  0.00  0.00    +0.000 A 
ATOM     16  N   UNL     1      46.023   2.071   8.368  0.00  0.00    +0.000 N 
ATOM     17  H   UNL     1      45.801   1.424   9.114  0.00  0.00    +0.000 HD
ENDBRANCH   9  12
ENDBRANCH   7  10
ENDBRANCH   1   7
BRANCH   4  18
ATOM     18  C   UNL     1      48.101   8.569  14.641  0.00  0.00    +0.000 C 
BRANCH  18  19
ATOM     19  N   UNL     1      48.956   7.597  15.273  0.00  0.00    +0.000 N 
ATOM     20  C   UNL     1      49.066   7.482  16.635  0.00  0.00    +0.000 C 
ATOM     21  O   UNL     1      48.448   8.207  17.407  0.00  0.00    +0.000 OA
ATOM     22  H   UNL     1      49.626   7.123  14.676  0.00  0.00    +0.000 HD
BRANCH  20  23
ATOM     23  C   UNL     1      49.909   6.384  17.130  0.00  0.00    +0.000 A 
ATOM     24  C   UNL     1      51.138   6.677  17.707  0.00  0.00    +0.000 A 
ATOM     25  S   UNL     1      51.978   5.302  18.267  0.00  0.00    +0.000 S 
ATOM     26  C   UNL     1      50.751   4.261  17.715  0.00  0.00    +0.000 A 
ATOM     27  N   UNL     1      50.864   2.913  17.860  0.00  0.00    +0.000 NA
ATOM     28  C   UNL     1      49.876   2.241  17.369  0.00  0.00    +0.000 A 
ATOM     29  N   UNL     1      48.783   2.793  16.759  0.00  0.00    +0.000 N 
ATOM     30  C   UNL     1      48.596   4.151  16.645  0.00  0.00    +0.000 A 
ATOM     31  O   UNL     1      47.553   4.617  16.194  0.00  0.00    +0.000 OA
ATOM     32  C   UNL     1      49.699   4.955  17.142  0.00  0.00    +0.000 A 
ATOM     33  H   UNL     1      48.030   2.209  16.422  0.00  0.00    +0.000 HD
ENDBRANCH  20  23
ENDBRANCH  18  19
ENDBRANCH   4  18
TORSDOF 6
ENDMDL
MODEL 9
REMARK VINA RESULT:    -6.975      3.627      8.310
REMARK INTER + INTRA:         -10.255
REMARK INTER:                  -9.312
REMARK INTRA:                  -0.944
REMARK UNBOUND:                -0.834
REMARK  Name = 
REMARK  6 active torsions:
REMARK  status: ('A' for Active; 'I' for Inactive)
REMARK    1  A    between atoms: C_2  and  C_25
REMARK    2  A    between atoms: N_3  and  C_4
REMARK    3  A    between atoms: C_4  and  C_5
REMARK    4  A    between atoms: C_8  and  C_9
REMARK    5  A    between atoms: C_9  and  N_10
REMARK    6  A    between atoms: C_11  and  C_13
REMARK                            x       y       z     vdW  Elec       q    Type
REMARK                         _______ _______ _______ _____ _____    ______ ____
ROOT
ATOM      1  C   UNL     1      49.660   4.722  17.542  0.00  0.00    +0.000 A 
ATOM      2  C   UNL     1      48.436   4.505  16.896  0.00  0.00    +0.000 A 
ATOM      3  C   UNL     1      47.994   5.374  15.894  0.00  0.00    +0.000 A 
ATOM      4  C   UNL     1      48.779   6.467  15.505  0.00  0.00    +0.000 A 
ATOM      5  C   UNL     1      50.004   6.683  16.148  0.00  0.00    +0.000 A 
ATOM      6  C   UNL     1      50.444   5.815  17.150  0.00  0.00    +0.000 A 
ENDROOT
BRANCH   1   7
ATOM      7  C   UNL     1      50.105   3.823  18.662  0.00  0.00    +0.000 C 
BRANCH   7  10
ATOM      8  O   UNL     1      50.444   1.553  17.100  0.00  0.00    +0.000 OA
ATOM      9  C   UNL     1      51.437   2.057  17.621  0.00  0.00    +0.000 C 
ATOM     10  N   UNL     1      51.368   3.182  18.412  0.00  0.00    +0.000 N 
ATOM     11  H   UNL     1      52.242   3.580  18.742  0.00  0.00    +0.000 HD
BRANCH   9  12
ATOM     12  C   UNL     1      52.770   1.521  17.439  0.00  0.00    +0.000 A 
ATOM     13  N   UNL     1      53.895   2.214  17.480  0.00  0.00    +0.000 NA
ATOM     14  C   UNL     1      54.897   1.295  17.281  0.00  0.00    +0.000 A 
ATOM     15  C   UNL     1      54.378   0.035  17.095  0.00  0.00    +0.000 A 
ATOM     16  N   UNL     1      53.026   0.192  17.205  0.00  0.00    +0.000 N 
ATOM     17  H   UNL     1      52.313  -0.523  17.132  0.00  0.00    +0.000 HD
ENDBRANCH   9  12
ENDBRANCH   7  10
ENDBRANCH   1   7
BRANCH   4  18
ATOM     18  C   UNL     1      48.309   7.416  14.435  0.00  0.00    +0.000 C 
BRANCH  18  19
ATOM     19  N   UNL     1      47.059   6.994  13.856  0.00  0.00    +0.000 N 
ATOM     20  C   UNL     1      46.902   6.773  12.512  0.00  0.00    +0.000 C 
ATOM     21  O   UNL     1      47.817   6.931  11.709  0.00  0.00    +0.000 OA
ATOM     22  H   UNL     1      46.240   7.048  14.452  0.00  0.00    +0.000 HD
BRANCH  20  23
ATOM     23  C   UNL     1      45.593   6.259  12.084  0.00  0.00    +0.000 A 
ATOM     24  C   UNL     1      44.668   7.132  11.527  0.00  0.00    +0.000 A 
ATOM     25  S   UNL     1      43.216   6.377  11.045  0.00  0.00    +0.000 S 
ATOM     26  C   UNL     1      43.753   4.865  11.609  0.00  0.00    +0.000 A 
ATOM     27  N   UNL     1      42.955   3.766  11.523  0.00  0.00    +0.000 NA
ATOM     28  C   UNL     1      43.474   2.691  12.017  0.00  0.00    +0.000 A 
ATOM     29  N   UNL     1      44.721   2.612  12.576  0.00  0.00    +0.000 N 
ATOM     30  C   UNL     1      45.586   3.680  12.629  0.00  0.00    +0.000 A 
ATOM     31  O   UNL     1      46.738   3.550  13.033  0.00  0.00    +0.000 OA
ATOM     32  C   UNL     1      45.035   4.927  12.126  0.00  0.00    +0.000 A 
ATOM     33  H   UNL     1      45.078   1.731  12.917  0.00  0.00    +0.000 HD
ENDBRANCH  20  23
ENDBRANCH  18  19
ENDBRANCH   4  18
TORSDOF 6
ENDMDL
