MODEL 1
REMARK VINA RESULT:    -7.646      0.000      0.000
REMARK INTER + INTRA:         -12.395
REMARK INTER:                 -10.998
REMARK INTRA:                  -1.397
REMARK UNBOUND:                -1.397
REMARK  Name = 
REMARK  8 active torsions:
REMARK  status: ('A' for Active; 'I' for Inactive)
REMARK    1  A    between atoms: N_1  and  C_2
REMARK    2  A    between atoms: C_2  and  C_3
REMARK    3  A    between atoms: C_3  and  N_4
REMARK    4  A    between atoms: C_3  and  C_17
REMARK    5  A    between atoms: C_5  and  C_7
REMARK    6  A    between atoms: C_20  and  C_21
REMARK    7  A    between atoms: C_21  and  N_22
REMARK    8  A    between atoms: C_23  and  C_25
REMARK                            x       y       z     vdW  Elec       q    Type
REMARK                         _______ _______ _______ _____ _____    ______ ____
ROOT
ATOM      1  C   UNL     1      47.945   7.305  13.960  0.00  0.00    +0.000 C 
ENDROOT
BRANCH   1   2
ATOM      2  C   UNL     1      46.991   6.391  13.183  0.00  0.00    +0.000 A 
ATOM      3  C   UNL     1      46.766   5.073  13.610  0.00  0.00    +0.000 A 
ATOM      4  C   UNL     1      45.889   4.229  12.912  0.00  0.00    +0.000 A 
ATOM      5  C   UNL     1      45.220   4.679  11.766  0.00  0.00    +0.000 A 
ATOM      6  C   UNL     1      45.422   6.002  11.353  0.00  0.00    +0.000 A 
ATOM      7  C   UNL     1      46.297   6.845  12.050  0.00  0.00    +0.000 A 
BRANCH   5   8
ATOM      8  C   UNL     1      44.313   3.760  10.986  0.00  0.00    +0.000 C 
BRANCH   8   9
ATOM      9  N   UNL     1      45.032   2.896  10.084  0.00  0.00    +0.000 N 
ATOM     10  C   UNL     1      45.323   3.294   8.795  0.00  0.00    +0.000 C 
ATOM     11  O   UNL     1      44.972   4.386   8.354  0.00  0.00    +0.000 OA
ATOM     12  H   UNL     1      45.412   2.015  10.410  0.00  0.00    +0.000 HD
BRANCH  10  13
ATOM     13  C   UNL     1      46.067   2.322   8.016  0.00  0.00    +0.000 A 
ATOM     14  C   UNL     1      46.826   2.464   6.868  0.00  0.00    +0.000 A 
ATOM     15  C   UNL     1      47.308   1.177   6.534  0.00  0.00    +0.000 A 
ATOM     16  C   UNL     1      46.817   0.324   7.493  0.00  0.00    +0.000 A 
ATOM     17  O   UNL     1      46.068   1.005   8.400  0.00  0.00    +0.000 OA
ENDBRANCH  10  13
ENDBRANCH   8   9
ENDBRANCH   5   8
ENDBRANCH   1   2
BRANCH   1  18
ATOM     18  N   UNL     1      47.965   6.876  15.354  0.00  0.00    +0.000 N 
ATOM     19  C   UNL     1      49.110   6.487  16.004  0.00  0.00    +0.000 C 
ATOM     20  O   UNL     1      50.229   6.598  15.512  0.00  0.00    +0.000 OA
ATOM     21  H   UNL     1      47.082   6.527  15.711  0.00  0.00    +0.000 HD
BRANCH  19  22
ATOM     22  C   UNL     1      48.934   5.969  17.363  0.00  0.00    +0.000 A 
ATOM     23  C   UNL     1      49.202   4.638  17.647  0.00  0.00    +0.000 A 
ATOM     24  S   UNL     1      48.911   4.218  19.275  0.00  0.00    +0.000 S 
ATOM     25  C   UNL     1      48.371   5.790  19.642  0.00  0.00    +0.000 A 
ATOM     26  N   UNL     1      47.910   6.106  20.882  0.00  0.00    +0.000 NA
ATOM     27  C   UNL     1      47.496   7.323  21.002  0.00  0.00    +0.000 A 
ATOM     28  N   UNL     1      47.518   8.260  20.002  0.00  0.00    +0.000 N 
ATOM     29  C   UNL     1      48.025   8.003  18.753  0.00  0.00    +0.000 A 
ATOM     30  O   UNL     1      48.128   8.889  17.911  0.00  0.00    +0.000 OA
ATOM     31  C   UNL     1      48.456   6.634  18.550  0.00  0.00    +0.000 A 
ATOM     32  H   UNL     1      47.208   9.207  20.169  0.00  0.00    +0.000 HD
ENDBRANCH  19  22
ENDBRANCH   1  18
BRANCH   1  33
ATOM     33  C   UNL     1      47.574   8.813  13.816  0.00  0.00    +0.000 C 
BRANCH  33  34
ATOM     34  N   UNL     1      47.901   9.645  14.983  0.00  0.00    +0.000 NA
ATOM     35  H   UNL     1      48.011   9.038  15.793  0.00  0.00    +0.000 HD
ATOM     36  H   UNL     1      47.116  10.262  15.189  0.00  0.00    +0.000 HD
ENDBRANCH  33  34
ENDBRANCH   1  33
TORSDOF 8
ENDMDL
MODEL 2
REMARK VINA RESULT:    -7.551      1.832      2.529
REMARK INTER + INTRA:         -12.260
REMARK INTER:                 -11.011
REMARK INTRA:                  -1.249
REMARK UNBOUND:                -1.397
REMARK  Name = 
REMARK  8 active torsions:
REMARK  status: ('A' for Active; 'I' for Inactive)
REMARK    1  A    between atoms: N_1  and  C_2
REMARK    2  A    between atoms: C_2  and  C_3
REMARK    3  A    between atoms: C_3  and  N_4
REMARK    4  A    between atoms: C_3  and  C_17
REMARK    5  A    between atoms: C_5  and  C_7
REMARK    6  A    between atoms: C_20  and  C_21
REMARK    7  A    between atoms: C_21  and  N_22
REMARK    8  A    between atoms: C_23  and  C_25
REMARK                            x       y       z     vdW  Elec       q    Type
REMARK                         _______ _______ _______ _____ _____    ______ ____
ROOT
ATOM      1  C   UNL     1      46.809   8.655  12.726  0.00  0.00    +0.000 C 
ENDROOT
BRANCH   1   2
ATOM      2  C   UNL     1      46.093   7.358  12.333  0.00  0.00    +0.000 A 
ATOM      3  C   UNL     1      46.688   6.113  12.589  0.00  0.00    +0.000 A 
ATOM      4  C   UNL     1      46.040   4.919  12.241  0.00  0.00    +0.000 A 
ATOM      5  C   UNL     1      44.783   4.938  11.623  0.00  0.00    +0.000 A 
ATOM      6  C   UNL     1      44.173   6.178  11.391  0.00  0.00    +0.000 A 
ATOM      7  C   UNL     1      44.821   7.371  11.738  0.00  0.00    +0.000 A 
BRANCH   5   8
ATOM      8  C   UNL     1      44.103   3.658  11.204  0.00  0.00    +0.000 C 
BRANCH   8   9
ATOM      9  N   UNL     1      44.912   2.857  10.321  0.00  0.00    +0.000 N 
ATOM     10  C   UNL     1      45.047   3.181   8.986  0.00  0.00    +0.000 C 
ATOM     11  O   UNL     1      44.476   4.149   8.489  0.00  0.00    +0.000 OA
ATOM     12  H   UNL     1      45.466   2.091  10.685  0.00  0.00    +0.000 HD
BRANCH  10  13
ATOM     13  C   UNL     1      45.908   2.290   8.232  0.00  0.00    +0.000 A 
ATOM     14  C   UNL     1      46.771   2.534   7.179  0.00  0.00    +0.000 A 
ATOM     15  C   UNL     1      47.342   1.289   6.820  0.00  0.00    +0.000 A 
ATOM     16  C   UNL     1      46.794   0.359   7.671  0.00  0.00    +0.000 A 
ATOM     17  O   UNL     1      45.929   0.952   8.535  0.00  0.00    +0.000 OA
ENDBRANCH  10  13
ENDBRANCH   8   9
ENDBRANCH   5   8
ENDBRANCH   1   2
BRANCH   1  18
ATOM     18  N   UNL     1      47.057   8.629  14.164  0.00  0.00    +0.000 N 
ATOM     19  C   UNL     1      48.204   9.121  14.736  0.00  0.00    +0.000 C 
ATOM     20  O   UNL     1      49.051   9.745  14.106  0.00  0.00    +0.000 OA
ATOM     21  H   UNL     1      46.541   7.923  14.679  0.00  0.00    +0.000 HD
BRANCH  19  22
ATOM     22  C   UNL     1      48.346   8.905  16.178  0.00  0.00    +0.000 A 
ATOM     23  C   UNL     1      48.172   9.957  17.066  0.00  0.00    +0.000 A 
ATOM     24  S   UNL     1      48.405   9.514  18.698  0.00  0.00    +0.000 S 
ATOM     25  C   UNL     1      48.794   7.914  18.266  0.00  0.00    +0.000 A 
ATOM     26  N   UNL     1      49.158   6.999  19.204  0.00  0.00    +0.000 NA
ATOM     27  C   UNL     1      49.465   5.840  18.726  0.00  0.00    +0.000 A 
ATOM     28  N   UNL     1      49.423   5.503  17.399  0.00  0.00    +0.000 N 
ATOM     29  C   UNL     1      49.008   6.376  16.424  0.00  0.00    +0.000 A 
ATOM     30  O   UNL     1      48.881   6.017  15.258  0.00  0.00    +0.000 OA
ATOM     31  C   UNL     1      48.702   7.710  16.902  0.00  0.00    +0.000 A 
ATOM     32  H   UNL     1      49.646   4.567  17.092  0.00  0.00    +0.000 HD
ENDBRANCH  19  22
ENDBRANCH   1  18
BRANCH   1  33
ATOM     33  C   UNL     1      46.017   9.927  12.291  0.00  0.00    +0.000 C 
BRANCH  33  34
ATOM     34  N   UNL     1      46.749  11.192  12.442  0.00  0.00    +0.000 NA
ATOM     35  H   UNL     1      47.691  11.068  12.076  0.00  0.00    +0.000 HD
ATOM     36  H   UNL     1      46.850  11.408  13.434  0.00  0.00    +0.000 HD
ENDBRANCH  33  34
ENDBRANCH   1  33
TORSDOF 8
ENDMDL
MODEL 3
REMARK VINA RESULT:    -7.269      2.782      4.501
REMARK INTER + INTRA:         -11.853
REMARK INTER:                 -10.591
REMARK INTRA:                  -1.262
REMARK UNBOUND:                -1.397
REMARK  Name = 
REMARK  8 active torsions:
REMARK  status: ('A' for Active; 'I' for Inactive)
REMARK    1  A    between atoms: N_1  and  C_2
REMARK    2  A    between atoms: C_2  and  C_3
REMARK    3  A    between atoms: C_3  and  N_4
REMARK    4  A    between atoms: C_3  and  C_17
REMARK    5  A    between atoms: C_5  and  C_7
REMARK    6  A    between atoms: C_20  and  C_21
REMARK    7  A    between atoms: C_21  and  N_22
REMARK    8  A    between atoms: C_23  and  C_25
REMARK                            x       y       z     vdW  Elec       q    Type
REMARK                         _______ _______ _______ _____ _____    ______ ____
ROOT
ATOM      1  C   UNL     1      47.150   5.085  15.108  0.00  0.00    +0.000 C 
ENDROOT
BRANCH   1   2
ATOM      2  C   UNL     1      46.312   4.814  13.854  0.00  0.00    +0.000 A 
ATOM      3  C   UNL     1      46.254   3.523  13.305  0.00  0.00    +0.000 A 
ATOM      4  C   UNL     1      45.484   3.260  12.161  0.00  0.00    +0.000 A 
ATOM      5  C   UNL     1      44.758   4.281  11.535  0.00  0.00    +0.000 A 
ATOM      6  C   UNL     1      44.791   5.564  12.096  0.00  0.00    +0.000 A 
ATOM      7  C   UNL     1      45.560   5.827  13.238  0.00  0.00    +0.000 A 
BRANCH   5   8
ATOM      8  C   UNL     1      43.967   4.012  10.279  0.00  0.00    +0.000 C 
BRANCH   8   9
ATOM      9  N   UNL     1      44.719   3.286   9.287  0.00  0.00    +0.000 N 
ATOM     10  C   UNL     1      45.600   3.932   8.445  0.00  0.00    +0.000 C 
ATOM     11  O   UNL     1      45.771   5.149   8.489  0.00  0.00    +0.000 OA
ATOM     12  H   UNL     1      44.677   2.274   9.250  0.00  0.00    +0.000 HD
BRANCH  10  13
ATOM     13  C   UNL     1      46.295   3.064   7.515  0.00  0.00    +0.000 A 
ATOM     14  C   UNL     1      46.707   3.270   6.210  0.00  0.00    +0.000 A 
ATOM     15  C   UNL     1      47.322   2.070   5.780  0.00  0.00    +0.000 A 
ATOM     16  C   UNL     1      47.250   1.201   6.843  0.00  0.00    +0.000 A 
ATOM     17  O   UNL     1      46.635   1.792   7.902  0.00  0.00    +0.000 OA
ENDBRANCH  10  13
ENDBRANCH   8   9
ENDBRANCH   5   8
ENDBRANCH   1   2
BRANCH   1  18
ATOM     18  N   UNL     1      48.379   5.762  14.705  0.00  0.00    +0.000 N 
ATOM     19  C   UNL     1      48.970   6.751  15.451  0.00  0.00    +0.000 C 
ATOM     20  O   UNL     1      48.594   7.053  16.579  0.00  0.00    +0.000 OA
ATOM     21  H   UNL     1      48.576   5.743  13.710  0.00  0.00    +0.000 HD
BRANCH  19  22
ATOM     22  C   UNL     1      50.129   7.409  14.843  0.00  0.00    +0.000 A 
ATOM     23  C   UNL     1      51.340   7.463  15.518  0.00  0.00    +0.000 A 
ATOM     24  S   UNL     1      52.560   8.293  14.660  0.00  0.00    +0.000 S 
ATOM     25  C   UNL     1      51.495   8.649  13.380  0.00  0.00    +0.000 A 
ATOM     26  N   UNL     1      51.895   9.399  12.319  0.00  0.00    +0.000 NA
ATOM     27  C   UNL     1      50.969   9.623  11.446  0.00  0.00    +0.000 A 
ATOM     28  N   UNL     1      49.686   9.148  11.526  0.00  0.00    +0.000 N 
ATOM     29  C   UNL     1      49.255   8.341  12.549  0.00  0.00    +0.000 A 
ATOM     30  O   UNL     1      48.132   7.846  12.542  0.00  0.00    +0.000 OA
ATOM     31  C   UNL     1      50.242   8.102  13.584  0.00  0.00    +0.000 A 
ATOM     32  H   UNL     1      49.017   9.332  10.793  0.00  0.00    +0.000 HD
ENDBRANCH  19  22
ENDBRANCH   1  18
BRANCH   1  33
ATOM     33  C   UNL     1      47.437   3.788  15.925  0.00  0.00    +0.000 C 
BRANCH  33  34
ATOM     34  N   UNL     1      46.672   3.661  17.173  0.00  0.00    +0.000 NA
ATOM     35  H   UNL     1      47.312   3.769  17.958  0.00  0.00    +0.000 HD
ATOM     36  H   UNL     1      46.288   2.719  17.241  0.00  0.00    +0.000 HD
ENDBRANCH  33  34
ENDBRANCH   1  33
TORSDOF 8
ENDMDL
MODEL 4
REMARK VINA RESULT:    -7.026      2.736      3.977
REMARK INTER + INTRA:         -11.504
REMARK INTER:                 -10.544
REMARK INTRA:                  -0.960
REMARK UNBOUND:                -1.397
REMARK  Name = 
REMARK  8 active torsions:
REMARK  status: ('A' for Active; 'I' for Inactive)
REMARK    1  A    between atoms: N_1  and  C_2
REMARK    2  A    between atoms: C_2  and  C_3
REMARK    3  A    between atoms: C_3  and  N_4
REMARK    4  A    between atoms: C_3  and  C_17
REMARK    5  A    between atoms: C_5  and  C_7
REMARK    6  A    between atoms: C_20  and  C_21
REMARK    7  A    between atoms: C_21  and  N_22
REMARK    8  A    between atoms: C_23  and  C_25
REMARK                            x       y       z     vdW  Elec       q    Type
REMARK                         _______ _______ _______ _____ _____    ______ ____
ROOT
ATOM      1  C   UNL     1      46.892   4.929  15.192  0.00  0.00    +0.000 C 
ENDROOT
BRANCH   1   2
ATOM      2  C   UNL     1      46.131   4.789  13.869  0.00  0.00    +0.000 A 
ATOM      3  C   UNL     1      46.003   3.534  13.253  0.00  0.00    +0.000 A 
ATOM      4  C   UNL     1      45.303   3.392  12.045  0.00  0.00    +0.000 A 
ATOM      5  C   UNL     1      44.717   4.500  11.421  0.00  0.00    +0.000 A 
ATOM      6  C   UNL     1      44.818   5.749  12.047  0.00  0.00    +0.000 A 
ATOM      7  C   UNL     1      45.518   5.892  13.253  0.00  0.00    +0.000 A 
BRANCH   5   8
ATOM      8  C   UNL     1      44.002   4.360  10.099  0.00  0.00    +0.000 C 
BRANCH   8   9
ATOM      9  N   UNL     1      44.720   3.536   9.160  0.00  0.00    +0.000 N 
ATOM     10  C   UNL     1      45.717   4.064   8.365  0.00  0.00    +0.000 C 
ATOM     11  O   UNL     1      46.026   5.252   8.409  0.00  0.00    +0.000 OA
ATOM     12  H   UNL     1      44.563   2.536   9.128  0.00  0.00    +0.000 HD
BRANCH  10  13
ATOM     13  C   UNL     1      46.358   3.107   7.484  0.00  0.00    +0.000 A 
ATOM     14  C   UNL     1      46.787   3.220   6.173  0.00  0.00    +0.000 A 
ATOM     15  C   UNL     1      47.325   1.963   5.808  0.00  0.00    +0.000 A 
ATOM     16  C   UNL     1      47.194   1.156   6.913  0.00  0.00    +0.000 A 
ATOM     17  O   UNL     1      46.615   1.837   7.936  0.00  0.00    +0.000 OA
ENDBRANCH  10  13
ENDBRANCH   8   9
ENDBRANCH   5   8
ENDBRANCH   1   2
BRANCH   1  18
ATOM     18  N   UNL     1      48.048   5.792  14.971  0.00  0.00    +0.000 N 
ATOM     19  C   UNL     1      48.683   6.469  15.982  0.00  0.00    +0.000 C 
ATOM     20  O   UNL     1      48.420   6.301  17.168  0.00  0.00    +0.000 OA
ATOM     21  H   UNL     1      48.139   6.160  14.030  0.00  0.00    +0.000 HD
BRANCH  19  22
ATOM     22  C   UNL     1      49.749   7.387  15.571  0.00  0.00    +0.000 A 
ATOM     23  C   UNL     1      49.448   8.530  14.845  0.00  0.00    +0.000 A 
ATOM     24  S   UNL     1      50.823   9.457  14.436  0.00  0.00    +0.000 S 
ATOM     25  C   UNL     1      51.868   8.333  15.174  0.00  0.00    +0.000 A 
ATOM     26  N   UNL     1      53.217   8.496  15.138  0.00  0.00    +0.000 NA
ATOM     27  C   UNL     1      53.884   7.545  15.702  0.00  0.00    +0.000 A 
ATOM     28  N   UNL     1      53.326   6.456  16.318  0.00  0.00    +0.000 N 
ATOM     29  C   UNL     1      51.969   6.278  16.427  0.00  0.00    +0.000 A 
ATOM     30  O   UNL     1      51.497   5.348  17.073  0.00  0.00    +0.000 OA
ATOM     31  C   UNL     1      51.174   7.292  15.764  0.00  0.00    +0.000 A 
ATOM     32  H   UNL     1      53.903   5.761  16.769  0.00  0.00    +0.000 HD
ENDBRANCH  19  22
ENDBRANCH   1  18
BRANCH   1  33
ATOM     33  C   UNL     1      47.298   3.548  15.794  0.00  0.00    +0.000 C 
BRANCH  33  34
ATOM     34  N   UNL     1      46.821   3.306  17.162  0.00  0.00    +0.000 NA
ATOM     35  H   UNL     1      46.035   2.658  17.122  0.00  0.00    +0.000 HD
ATOM     36  H   UNL     1      46.458   4.175  17.553  0.00  0.00    +0.000 HD
ENDBRANCH  33  34
ENDBRANCH   1  33
TORSDOF 8
ENDMDL
MODEL 5
REMARK VINA RESULT:    -7.017      2.207      2.798
REMARK INTER + INTRA:         -11.491
REMARK INTER:                 -10.114
REMARK INTRA:                  -1.377
REMARK UNBOUND:                -1.397
REMARK  Name = 
REMARK  8 active torsions:
REMARK  status: ('A' for Active; 'I' for Inactive)
REMARK    1  A    between atoms: N_1  and  C_2
REMARK    2  A    between atoms: C_2  and  C_3
REMARK    3  A    between atoms: C_3  and  N_4
REMARK    4  A    between atoms: C_3  and  C_17
REMARK    5  A    between atoms: C_5  and  C_7
REMARK    6  A    between atoms: C_20  and  C_21
REMARK    7  A    between atoms: C_21  and  N_22
REMARK    8  A    between atoms: C_23  and  C_25
REMARK                            x       y       z     vdW  Elec       q    Type
REMARK                         _______ _______ _______ _____ _____    ______ ____
ROOT
ATOM      1  C   UNL     1      48.843   8.607  14.409  0.00  0.00    +0.000 C 
ENDROOT
BRANCH   1   2
ATOM      2  C   UNL     1      47.817   8.039  13.422  0.00  0.00    +0.000 A 
ATOM      3  C   UNL     1      46.521   8.574  13.358  0.00  0.00    +0.000 A 
ATOM      4  C   UNL     1      45.576   8.067  12.453  0.00  0.00    +0.000 A 
ATOM      5  C   UNL     1      45.899   7.009  11.594  0.00  0.00    +0.000 A 
ATOM      6  C   UNL     1      47.200   6.491  11.636  0.00  0.00    +0.000 A 
ATOM      7  C   UNL     1      48.145   6.996  12.539  0.00  0.00    +0.000 A 
BRANCH   5   8
ATOM      8  C   UNL     1      44.872   6.430  10.653  0.00  0.00    +0.000 C 
BRANCH   8   9
ATOM      9  N   UNL     1      45.449   5.561   9.660  0.00  0.00    +0.000 N 
ATOM     10  C   UNL     1      44.930   4.304   9.425  0.00  0.00    +0.000 C 
ATOM     11  O   UNL     1      43.972   3.864  10.057  0.00  0.00    +0.000 OA
ATOM     12  H   UNL     1      46.192   5.891   9.056  0.00  0.00    +0.000 HD
BRANCH  10  13
ATOM     13  C   UNL     1      45.607   3.555   8.383  0.00  0.00    +0.000 A 
ATOM     14  C   UNL     1      45.919   2.211   8.283  0.00  0.00    +0.000 A 
ATOM     15  C   UNL     1      46.601   2.039   7.055  0.00  0.00    +0.000 A 
ATOM     16  C   UNL     1      46.666   3.284   6.477  0.00  0.00    +0.000 A 
ATOM     17  O   UNL     1      46.064   4.211   7.267  0.00  0.00    +0.000 OA
ENDBRANCH  10  13
ENDBRANCH   8   9
ENDBRANCH   5   8
ENDBRANCH   1   2
BRANCH   1  18
ATOM     18  N   UNL     1      48.886   7.739  15.581  0.00  0.00    +0.000 N 
ATOM     19  C   UNL     1      49.992   7.003  15.929  0.00  0.00    +0.000 C 
ATOM     20  O   UNL     1      51.075   7.116  15.365  0.00  0.00    +0.000 OA
ATOM     21  H   UNL     1      47.984   7.417  15.914  0.00  0.00    +0.000 HD
BRANCH  19  22
ATOM     22  C   UNL     1      49.825   6.091  17.064  0.00  0.00    +0.000 A 
ATOM     23  C   UNL     1      50.621   6.224  18.193  0.00  0.00    +0.000 A 
ATOM     24  S   UNL     1      50.296   5.055  19.394  0.00  0.00    +0.000 S 
ATOM     25  C   UNL     1      49.116   4.304  18.423  0.00  0.00    +0.000 A 
ATOM     26  N   UNL     1      48.470   3.182  18.839  0.00  0.00    +0.000 NA
ATOM     27  C   UNL     1      47.633   2.701  17.982  0.00  0.00    +0.000 A 
ATOM     28  N   UNL     1      47.365   3.250  16.755  0.00  0.00    +0.000 N 
ATOM     29  C   UNL     1      47.950   4.411  16.317  0.00  0.00    +0.000 A 
ATOM     30  O   UNL     1      47.616   4.935  15.259  0.00  0.00    +0.000 OA
ATOM     31  C   UNL     1      48.939   4.964  17.221  0.00  0.00    +0.000 A 
ATOM     32  H   UNL     1      46.674   2.841  16.142  0.00  0.00    +0.000 HD
ENDBRANCH  19  22
ENDBRANCH   1  18
BRANCH   1  33
ATOM     33  C   UNL     1      48.545  10.090  14.788  0.00  0.00    +0.000 C 
BRANCH  33  34
ATOM     34  N   UNL     1      48.258  10.319  16.211  0.00  0.00    +0.000 NA
ATOM     35  H   UNL     1      47.248  10.315  16.343  0.00  0.00    +0.000 HD
ATOM     36  H   UNL     1      48.580  11.250  16.476  0.00  0.00    +0.000 HD
ENDBRANCH  33  34
ENDBRANCH   1  33
TORSDOF 8
ENDMDL
MODEL 6
REMARK VINA RESULT:    -6.864      3.919      8.625
REMARK INTER + INTRA:         -11.271
REMARK INTER:                 -10.259
REMARK INTRA:                  -1.012
REMARK UNBOUND:                -1.397
REMARK  Name = 
REMARK  8 active torsions:
REMARK  status: ('A' for Active; 'I' for Inactive)
REMARK    1  A    between atoms: N_1  and  C_2
REMARK    2  A    between atoms: C_2  and  C_3
REMARK    3  A    between atoms: C_3  and  N_4
REMARK    4  A    between atoms: C_3  and  C_17
REMARK    5  A    between atoms: C_5  and  C_7
REMARK    6  A    between atoms: C_20  and  C_21
REMARK    7  A    between atoms: C_21  and  N_22
REMARK    8  A    between atoms: C_23  and  C_25
REMARK                            x       y       z     vdW  Elec       q    Type
REMARK                         _______ _______ _______ _____ _____    ______ ____
ROOT
ATOM      1  C   UNL     1      47.941   7.108  13.598  0.00  0.00    +0.000 C 
ENDROOT
BRANCH   1   2
ATOM      2  C   UNL     1      48.271   6.268  14.837  0.00  0.00    +0.000 A 
ATOM      3  C   UNL     1      47.553   5.093  15.109  0.00  0.00    +0.000 A 
ATOM      4  C   UNL     1      47.850   4.311  16.236  0.00  0.00    +0.000 A 
ATOM      5  C   UNL     1      48.868   4.688  17.122  0.00  0.00    +0.000 A 
ATOM      6  C   UNL     1      49.604   5.845  16.839  0.00  0.00    +0.000 A 
ATOM      7  C   UNL     1      49.308   6.626  15.714  0.00  0.00    +0.000 A 
BRANCH   5   8
ATOM      8  C   UNL     1      49.159   3.876  18.360  0.00  0.00    +0.000 C 
BRANCH   8   9
ATOM      9  N   UNL     1      50.505   3.361  18.388  0.00  0.00    +0.000 N 
ATOM     10  C   UNL     1      50.901   2.352  17.534  0.00  0.00    +0.000 C 
ATOM     11  O   UNL     1      50.128   1.838  16.728  0.00  0.00    +0.000 OA
ATOM     12  H   UNL     1      51.207   3.792  18.977  0.00  0.00    +0.000 HD
BRANCH  10  13
ATOM     13  C   UNL     1      52.289   1.954  17.671  0.00  0.00    +0.000 A 
ATOM     14  C   UNL     1      53.419   2.686  17.989  0.00  0.00    +0.000 A 
ATOM     15  C   UNL     1      54.511   1.786  17.962  0.00  0.00    +0.000 A 
ATOM     16  C   UNL     1      53.987   0.560  17.628  0.00  0.00    +0.000 A 
ATOM     17  O   UNL     1      52.642   0.646  17.454  0.00  0.00    +0.000 OA
ENDBRANCH  10  13
ENDBRANCH   8   9
ENDBRANCH   5   8
ENDBRANCH   1   2
BRANCH   1  18
ATOM     18  N   UNL     1      47.340   6.236  12.594  0.00  0.00    +0.000 N 
ATOM     19  C   UNL     1      46.221   6.579  11.876  0.00  0.00    +0.000 C 
ATOM     20  O   UNL     1      45.715   7.695  11.918  0.00  0.00    +0.000 OA
ATOM     21  H   UNL     1      47.544   5.248  12.702  0.00  0.00    +0.000 HD
BRANCH  19  22
ATOM     22  C   UNL     1      45.677   5.538  10.999  0.00  0.00    +0.000 A 
ATOM     23  C   UNL     1      45.792   5.653   9.621  0.00  0.00    +0.000 A 
ATOM     24  S   UNL     1      45.075   4.358   8.769  0.00  0.00    +0.000 S 
ATOM     25  C   UNL     1      44.546   3.629  10.214  0.00  0.00    +0.000 A 
ATOM     26  N   UNL     1      43.805   2.489  10.198  0.00  0.00    +0.000 NA
ATOM     27  C   UNL     1      43.441   2.074  11.365  0.00  0.00    +0.000 A 
ATOM     28  N   UNL     1      43.766   2.681  12.549  0.00  0.00    +0.000 N 
ATOM     29  C   UNL     1      44.559   3.800  12.617  0.00  0.00    +0.000 A 
ATOM     30  O   UNL     1      44.919   4.262  13.695  0.00  0.00    +0.000 OA
ATOM     31  C   UNL     1      44.952   4.338  11.330  0.00  0.00    +0.000 A 
ATOM     32  H   UNL     1      43.476   2.288  13.433  0.00  0.00    +0.000 HD
ENDBRANCH  19  22
ENDBRANCH   1  18
BRANCH   1  33
ATOM     33  C   UNL     1      49.187   7.867  13.044  0.00  0.00    +0.000 C 
BRANCH  33  34
ATOM     34  N   UNL     1      50.077   7.060  12.199  0.00  0.00    +0.000 NA
ATOM     35  H   UNL     1      50.940   6.883  12.712  0.00  0.00    +0.000 HD
ATOM     36  H   UNL     1      50.338   7.597  11.373  0.00  0.00    +0.000 HD
ENDBRANCH  33  34
ENDBRANCH   1  33
TORSDOF 8
ENDMDL
MODEL 7
REMARK VINA RESULT:    -6.386      4.880      8.964
REMARK INTER + INTRA:         -10.584
REMARK INTER:                  -9.504
REMARK INTRA:                  -1.080
REMARK UNBOUND:                -1.397
REMARK  Name = 
REMARK  8 active torsions:
REMARK  status: ('A' for Active; 'I' for Inactive)
REMARK    1  A    between atoms: N_1  and  C_2
REMARK    2  A    between atoms: C_2  and  C_3
REMARK    3  A    between atoms: C_3  and  N_4
REMARK    4  A    between atoms: C_3  and  C_17
REMARK    5  A    between atoms: C_5  and  C_7
REMARK    6  A    between atoms: C_20  and  C_21
REMARK    7  A    between atoms: C_21  and  N_22
REMARK    8  A    between atoms: C_23  and  C_25
REMARK                            x       y       z     vdW  Elec       q    Type
REMARK                         _______ _______ _______ _____ _____    ______ ____
ROOT
ATOM      1  C   UNL     1      47.532   4.372  17.390  0.00  0.00    +0.000 C 
ENDROOT
BRANCH   1   2
ATOM      2  C   UNL     1      48.987   3.904  17.506  0.00  0.00    +0.000 A 
ATOM      3  C   UNL     1      49.330   2.575  17.213  0.00  0.00    +0.000 A 
ATOM      4  C   UNL     1      50.659   2.136  17.309  0.00  0.00    +0.000 A 
ATOM      5  C   UNL     1      51.677   3.012  17.704  0.00  0.00    +0.000 A 
ATOM      6  C   UNL     1      51.343   4.346  17.970  0.00  0.00    +0.000 A 
ATOM      7  C   UNL     1      50.016   4.785  17.876  0.00  0.00    +0.000 A 
BRANCH   5   8
ATOM      8  C   UNL     1      53.100   2.532  17.853  0.00  0.00    +0.000 C 
BRANCH   8   9
ATOM      9  N   UNL     1      53.187   1.170  18.317  0.00  0.00    +0.000 N 
ATOM     10  C   UNL     1      54.066   0.276  17.742  0.00  0.00    +0.000 C 
ATOM     11  O   UNL     1      54.798   0.590  16.806  0.00  0.00    +0.000 OA
ATOM     12  H   UNL     1      52.664   0.871  19.132  0.00  0.00    +0.000 HD
BRANCH  10  13
ATOM     13  C   UNL     1      54.050  -1.050  18.330  0.00  0.00    +0.000 A 
ATOM     14  C   UNL     1      54.878  -2.142  18.138  0.00  0.00    +0.000 A 
ATOM     15  C   UNL     1      54.382  -3.182  18.961  0.00  0.00    +0.000 A 
ATOM     16  C   UNL     1      53.283  -2.667  19.606  0.00  0.00    +0.000 A 
ATOM     17  O   UNL     1      53.073  -1.376  19.238  0.00  0.00    +0.000 OA
ENDBRANCH  10  13
ENDBRANCH   8   9
ENDBRANCH   5   8
ENDBRANCH   1   2
BRANCH   1  18
ATOM     18  N   UNL     1      47.390   5.141  16.157  0.00  0.00    +0.000 N 
ATOM     19  C   UNL     1      47.285   4.560  14.918  0.00  0.00    +0.000 C 
ATOM     20  O   UNL     1      47.164   3.350  14.755  0.00  0.00    +0.000 OA
ATOM     21  H   UNL     1      47.734   6.094  16.201  0.00  0.00    +0.000 HD
BRANCH  19  22
ATOM     22  C   UNL     1      47.273   5.478  13.777  0.00  0.00    +0.000 A 
ATOM     23  C   UNL     1      46.287   5.377  12.805  0.00  0.00    +0.000 A 
ATOM     24  S   UNL     1      46.458   6.515  11.544  0.00  0.00    +0.000 S 
ATOM     25  C   UNL     1      47.882   7.146  12.231  0.00  0.00    +0.000 A 
ATOM     26  N   UNL     1      48.585   8.132  11.613  0.00  0.00    +0.000 NA
ATOM     27  C   UNL     1      49.665   8.482  12.229  0.00  0.00    +0.000 A 
ATOM     28  N   UNL     1      50.096   7.952  13.417  0.00  0.00    +0.000 N 
ATOM     29  C   UNL     1      49.391   6.996  14.103  0.00  0.00    +0.000 A 
ATOM     30  O   UNL     1      49.747   6.613  15.213  0.00  0.00    +0.000 OA
ATOM     31  C   UNL     1      48.195   6.530  13.428  0.00  0.00    +0.000 A 
ATOM     32  H   UNL     1      50.936   8.291  13.864  0.00  0.00    +0.000 HD
ENDBRANCH  19  22
ENDBRANCH   1  18
BRANCH   1  33
ATOM     33  C   UNL     1      47.065   5.179  18.641  0.00  0.00    +0.000 C 
BRANCH  33  34
ATOM     34  N   UNL     1      47.085   6.639  18.478  0.00  0.00    +0.000 NA
ATOM     35  H   UNL     1      46.399   7.046  19.113  0.00  0.00    +0.000 HD
ATOM     36  H   UNL     1      46.782   6.878  17.534  0.00  0.00    +0.000 HD
ENDBRANCH  33  34
ENDBRANCH   1  33
TORSDOF 8
ENDMDL
MODEL 8
REMARK VINA RESULT:    -6.340      4.976      9.275
REMARK INTER + INTRA:         -10.517
REMARK INTER:                  -9.701
REMARK INTRA:                  -0.816
REMARK UNBOUND:                -1.397
REMARK  Name = 
REMARK  8 active torsions:
REMARK  status: ('A' for Active; 'I' for Inactive)
REMARK    1  A    between atoms: N_1  and  C_2
REMARK    2  A    between atoms: C_2  and  C_3
REMARK    3  A    between atoms: C_3  and  N_4
REMARK    4  A    between atoms: C_3  and  C_17
REMARK    5  A    between atoms: C_5  and  C_7
REMARK    6  A    between atoms: C_20  and  C_21
REMARK    7  A    between atoms: C_21  and  N_22
REMARK    8  A    between atoms: C_23  and  C_25
REMARK                            x       y       z     vdW  Elec       q    Type
REMARK                         _______ _______ _______ _____ _____    ______ ____
ROOT
ATOM      1  C   UNL     1      47.616   4.338  17.562  0.00  0.00    +0.000 C 
ENDROOT
BRANCH   1   2
ATOM      2  C   UNL     1      49.069   3.852  17.596  0.00  0.00    +0.000 A 
ATOM      3  C   UNL     1      49.373   2.506  17.339  0.00  0.00    +0.000 A 
ATOM      4  C   UNL     1      50.700   2.050  17.360  0.00  0.00    +0.000 A 
ATOM      5  C   UNL     1      51.756   2.926  17.644  0.00  0.00    +0.000 A 
ATOM      6  C   UNL     1      51.458   4.276  17.873  0.00  0.00    +0.000 A 
ATOM      7  C   UNL     1      50.133   4.732  17.853  0.00  0.00    +0.000 A 
BRANCH   5   8
ATOM      8  C   UNL     1      53.179   2.430  17.714  0.00  0.00    +0.000 C 
BRANCH   8   9
ATOM      9  N   UNL     1      53.288   1.123  18.310  0.00  0.00    +0.000 N 
ATOM     10  C   UNL     1      54.061   0.137  17.730  0.00  0.00    +0.000 C 
ATOM     11  O   UNL     1      54.672   0.321  16.680  0.00  0.00    +0.000 OA
ATOM     12  H   UNL     1      52.869   0.933  19.212  0.00  0.00    +0.000 HD
BRANCH  10  13
ATOM     13  C   UNL     1      54.085  -1.117  18.457  0.00  0.00    +0.000 A 
ATOM     14  C   UNL     1      55.037  -2.119  18.513  0.00  0.00    +0.000 A 
ATOM     15  C   UNL     1      54.526  -3.124  19.369  0.00  0.00    +0.000 A 
ATOM     16  C   UNL     1      53.294  -2.679  19.786  0.00  0.00    +0.000 A 
ATOM     17  O   UNL     1      53.017  -1.463  19.246  0.00  0.00    +0.000 OA
ENDBRANCH  10  13
ENDBRANCH   8   9
ENDBRANCH   5   8
ENDBRANCH   1   2
BRANCH   1  18
ATOM     18  N   UNL     1      47.403   5.074  16.319  0.00  0.00    +0.000 N 
ATOM     19  C   UNL     1      47.224   4.459  15.105  0.00  0.00    +0.000 C 
ATOM     20  O   UNL     1      47.092   3.246  14.982  0.00  0.00    +0.000 OA
ATOM     21  H   UNL     1      47.751   6.027  16.317  0.00  0.00    +0.000 HD
BRANCH  19  22
ATOM     22  C   UNL     1      47.147   5.347  13.941  0.00  0.00    +0.000 A 
ATOM     23  C   UNL     1      48.205   6.190  13.630  0.00  0.00    +0.000 A 
ATOM     24  S   UNL     1      47.916   7.164  12.258  0.00  0.00    +0.000 S 
ATOM     25  C   UNL     1      46.349   6.525  12.066  0.00  0.00    +0.000 A 
ATOM     26  N   UNL     1      45.520   6.977  11.088  0.00  0.00    +0.000 NA
ATOM     27  C   UNL     1      44.349   6.431  11.089  0.00  0.00    +0.000 A 
ATOM     28  N   UNL     1      43.938   5.460  11.964  0.00  0.00    +0.000 N 
ATOM     29  C   UNL     1      44.760   4.934  12.929  0.00  0.00    +0.000 A 
ATOM     30  O   UNL     1      44.400   3.994  13.631  0.00  0.00    +0.000 OA
ATOM     31  C   UNL     1      46.070   5.550  13.005  0.00  0.00    +0.000 A 
ATOM     32  H   UNL     1      43.018   5.050  11.891  0.00  0.00    +0.000 HD
ENDBRANCH  19  22
ENDBRANCH   1  18
BRANCH   1  33
ATOM     33  C   UNL     1      47.243   5.187  18.817  0.00  0.00    +0.000 C 
BRANCH  33  34
ATOM     34  N   UNL     1      47.093   6.627  18.567  0.00  0.00    +0.000 NA
ATOM     35  H   UNL     1      46.233   6.945  19.010  0.00  0.00    +0.000 HD
ATOM     36  H   UNL     1      46.978   6.787  17.566  0.00  0.00    +0.000 HD
ENDBRANCH  33  34
ENDBRANCH   1  33
TORSDOF 8
ENDMDL
MODEL 9
REMARK VINA RESULT:    -6.155      4.015      6.157
REMARK INTER + INTRA:         -10.251
REMARK INTER:                  -9.085
REMARK INTRA:                  -1.166
REMARK UNBOUND:                -1.397
REMARK  Name = 
REMARK  8 active torsions:
REMARK  status: ('A' for Active; 'I' for Inactive)
REMARK    1  A    between atoms: N_1  and  C_2
REMARK    2  A    between atoms: C_2  and  C_3
REMARK    3  A    between atoms: C_3  and  N_4
REMARK    4  A    between atoms: C_3  and  C_17
REMARK    5  A    between atoms: C_5  and  C_7
REMARK    6  A    between atoms: C_20  and  C_21
REMARK    7  A    between atoms: C_21  and  N_22
REMARK    8  A    between atoms: C_23  and  C_25
REMARK                            x       y       z     vdW  Elec       q    Type
REMARK                         _______ _______ _______ _____ _____    ______ ____
ROOT
ATOM      1  C   UNL     1      47.960   9.082  14.090  0.00  0.00    +0.000 C 
ENDROOT
BRANCH   1   2
ATOM      2  C   UNL     1      47.083   8.102  13.301  0.00  0.00    +0.000 A 
ATOM      3  C   UNL     1      45.961   8.563  12.596  0.00  0.00    +0.000 A 
ATOM      4  C   UNL     1      45.155   7.678  11.865  0.00  0.00    +0.000 A 
ATOM      5  C   UNL     1      45.447   6.308  11.824  0.00  0.00    +0.000 A 
ATOM      6  C   UNL     1      46.582   5.849  12.504  0.00  0.00    +0.000 A 
ATOM      7  C   UNL     1      47.387   6.733  13.235  0.00  0.00    +0.000 A 
BRANCH   5   8
ATOM      8  C   UNL     1      44.557   5.346  11.078  0.00  0.00    +0.000 C 
BRANCH   8   9
ATOM      9  N   UNL     1      45.257   4.614  10.053  0.00  0.00    +0.000 N 
ATOM     10  C   UNL     1      44.806   3.384   9.620  0.00  0.00    +0.000 C 
ATOM     11  O   UNL     1      43.805   2.852  10.095  0.00  0.00    +0.000 OA
ATOM     12  H   UNL     1      46.045   5.030   9.572  0.00  0.00    +0.000 HD
BRANCH  10  13
ATOM     13  C   UNL     1      45.607   2.780   8.572  0.00  0.00    +0.000 A 
ATOM     14  C   UNL     1      46.063   3.287   7.369  0.00  0.00    +0.000 A 
ATOM     15  C   UNL     1      46.786   2.248   6.734  0.00  0.00    +0.000 A 
ATOM     16  C   UNL     1      46.729   1.170   7.585  0.00  0.00    +0.000 A 
ATOM     17  O   UNL     1      46.023   1.479   8.704  0.00  0.00    +0.000 OA
ENDBRANCH  10  13
ENDBRANCH   8   9
ENDBRANCH   5   8
ENDBRANCH   1   2
BRANCH   1  18
ATOM     18  N   UNL     1      49.180   9.326  13.328  0.00  0.00    +0.000 N 
ATOM     19  C   UNL     1      49.263  10.254  12.320  0.00  0.00    +0.000 C 
ATOM     20  O   UNL     1      48.363  11.048  12.066  0.00  0.00    +0.000 OA
ATOM     21  H   UNL     1      49.841   8.557  13.314  0.00  0.00    +0.000 HD
BRANCH  19  22
ATOM     22  C   UNL     1      50.526  10.285  11.578  0.00  0.00    +0.000 A 
ATOM     23  C   UNL     1      51.142  11.495  11.292  0.00  0.00    +0.000 A 
ATOM     24  S   UNL     1      52.587  11.328  10.398  0.00  0.00    +0.000 S 
ATOM     25  C   UNL     1      52.409   9.636  10.322  0.00  0.00    +0.000 A 
ATOM     26  N   UNL     1      53.294   8.864   9.638  0.00  0.00    +0.000 NA
ATOM     27  C   UNL     1      53.010   7.605   9.632  0.00  0.00    +0.000 A 
ATOM     28  N   UNL     1      51.932   7.042  10.265  0.00  0.00    +0.000 N 
ATOM     29  C   UNL     1      51.045   7.774  11.013  0.00  0.00    +0.000 A 
ATOM     30  O   UNL     1      50.149   7.232  11.653  0.00  0.00    +0.000 OA
ATOM     31  C   UNL     1      51.290   9.203  11.009  0.00  0.00    +0.000 A 
ATOM     32  H   UNL     1      51.782   6.044  10.248  0.00  0.00    +0.000 HD
ENDBRANCH  19  22
ENDBRANCH   1  18
BRANCH   1  33
ATOM     33  C   UNL     1      48.261   8.580  15.536  0.00  0.00    +0.000 C 
BRANCH  33  34
ATOM     34  N   UNL     1      49.675   8.287  15.807  0.00  0.00    +0.000 NA
ATOM     35  H   UNL     1      49.778   7.282  15.942  0.00  0.00    +0.000 HD
ATOM     36  H   UNL     1      49.949   8.726  16.685  0.00  0.00    +0.000 HD
ENDBRANCH  33  34
ENDBRANCH   1  33
TORSDOF 8
ENDMDL
