MODEL 1
REMARK VINA RESULT:    -7.675      0.000      0.000
REMARK INTER + INTRA:         -12.027
REMARK INTER:                 -10.816
REMARK INTRA:                  -1.210
REMARK UNBOUND:                -1.210
REMARK  Name = 
REMARK  9 active torsions:
REMARK  status: ('A' for Active; 'I' for Inactive)
REMARK    1  A    between atoms: C_1  and  N_2
REMARK    2  A    between atoms: N_2  and  C_3
REMARK    3  A    between atoms: C_3  and  C_4
REMARK    4  A    between atoms: C_7  and  C_8
REMARK    5  A    between atoms: C_8  and  N_9
REMARK    6  A    between atoms: N_9  and  C_10
REMARK    7  A    between atoms: C_10  and  C_11
REMARK    8  A    between atoms: C_18  and  C_20
REMARK    9  A    between atoms: N_26  and  C_27
REMARK                            x       y       z     vdW  Elec       q    Type
REMARK                         _______ _______ _______ _____ _____    ______ ____
ROOT
ATOM      1  C   UNL     1      47.327   6.156  12.415  0.00  0.00    +0.000 C 
ENDROOT
BRANCH   1   2
ATOM      2  C   UNL     1      47.528   5.798  13.853  0.00  0.00    +0.000 A 
ATOM      3  C   UNL     1      46.934   4.639  14.369  0.00  0.00    +0.000 A 
ATOM      4  C   UNL     1      47.170   4.270  15.690  0.00  0.00    +0.000 A 
ATOM      5  C   UNL     1      48.026   5.026  16.502  0.00  0.00    +0.000 A 
ATOM      6  C   UNL     1      48.579   6.199  15.986  0.00  0.00    +0.000 A 
ATOM      7  C   UNL     1      48.333   6.592  14.671  0.00  0.00    +0.000 A 
BRANCH   5   8
ATOM      8  C   UNL     1      48.317   4.622  17.935  0.00  0.00    +0.000 C 
BRANCH   8   9
ATOM      9  N   UNL     1      49.693   4.172  18.070  0.00  0.00    +0.000 NA
ATOM     10  H   UNL     1      49.978   4.253  19.044  0.00  0.00    +0.000 HD
BRANCH   9  11
ATOM     11  C   UNL     1      49.915   2.810  17.590  0.00  0.00    +0.000 C 
BRANCH  11  12
ATOM     12  C   UNL     1      51.434   2.556  17.508  0.00  0.00    +0.000 C 
ATOM     13  C   UNL     1      51.802   1.077  17.559  0.00  0.00    +0.000 C 
ATOM     14  C   UNL     1      53.285   1.119  17.865  0.00  0.00    +0.000 C 
ATOM     15  C   UNL     1      53.467   2.392  18.682  0.00  0.00    +0.000 C 
ATOM     16  N   UNL     1      52.181   3.097  18.648  0.00  0.00    +0.000 NA
ATOM     17  H   UNL     1      52.317   4.103  18.559  0.00  0.00    +0.000 HD
ENDBRANCH  11  12
ENDBRANCH   9  11
ENDBRANCH   8   9
ENDBRANCH   5   8
ENDBRANCH   1   2
BRANCH   1  19
ATOM     18  C   UNL     1      46.553   8.547  12.113  0.00  0.00    +0.000 C 
ATOM     19  N   UNL     1      46.284   7.114  12.068  0.00  0.00    +0.000 N 
ATOM     20  C   UNL     1      45.006   6.752  11.598  0.00  0.00    +0.000 C 
ATOM     21  O   UNL     1      44.215   7.631  11.258  0.00  0.00    +0.000 OA
BRANCH  20  22
ATOM     22  C   UNL     1      44.604   5.331  11.534  0.00  0.00    +0.000 A 
ATOM     23  C   UNL     1      43.785   4.685  12.449  0.00  0.00    +0.000 A 
ATOM     24  S   UNL     1      43.521   3.037  12.136  0.00  0.00    +0.000 S 
ATOM     25  C   UNL     1      44.325   3.161  10.649  0.00  0.00    +0.000 A 
ATOM     26  N   UNL     1      44.359   2.095   9.816  0.00  0.00    +0.000 NA
ATOM     27  C   UNL     1      44.931   2.324   8.687  0.00  0.00    +0.000 A 
ATOM     28  N   UNL     1      45.515   3.517   8.313  0.00  0.00    +0.000 N 
ATOM     29  C   UNL     1      46.135   3.644   7.015  0.00  0.00    +0.000 C 
ATOM     30  C   UNL     1      45.586   4.609   9.180  0.00  0.00    +0.000 A 
ATOM     31  O   UNL     1      46.227   5.618   8.902  0.00  0.00    +0.000 OA
ATOM     32  C   UNL     1      44.870   4.414  10.438  0.00  0.00    +0.000 A 
ENDBRANCH  20  22
ENDBRANCH   1  19
TORSDOF 7
ENDMDL
MODEL 2
REMARK VINA RESULT:    -7.572      3.704      8.479
REMARK INTER + INTRA:         -11.881
REMARK INTER:                 -10.637
REMARK INTRA:                  -1.243
REMARK UNBOUND:                -1.210
REMARK  Name = 
REMARK  9 active torsions:
REMARK  status: ('A' for Active; 'I' for Inactive)
REMARK    1  A    between atoms: C_1  and  N_2
REMARK    2  A    between atoms: N_2  and  C_3
REMARK    3  A    between atoms: C_3  and  C_4
REMARK    4  A    between atoms: C_7  and  C_8
REMARK    5  A    between atoms: C_8  and  N_9
REMARK    6  A    between atoms: N_9  and  C_10
REMARK    7  A    between atoms: C_10  and  C_11
REMARK    8  A    between atoms: C_18  and  C_20
REMARK    9  A    between atoms: N_26  and  C_27
REMARK                            x       y       z     vdW  Elec       q    Type
REMARK                         _______ _______ _______ _____ _____    ______ ____
ROOT
ATOM      1  C   UNL     1      47.359   7.684  13.634  0.00  0.00    +0.000 C 
ENDROOT
BRANCH   1   2
ATOM      2  C   UNL     1      46.533   6.645  12.945  0.00  0.00    +0.000 A 
ATOM      3  C   UNL     1      46.457   5.353  13.480  0.00  0.00    +0.000 A 
ATOM      4  C   UNL     1      45.640   4.401  12.876  0.00  0.00    +0.000 A 
ATOM      5  C   UNL     1      44.862   4.731  11.758  0.00  0.00    +0.000 A 
ATOM      6  C   UNL     1      44.979   6.012  11.214  0.00  0.00    +0.000 A 
ATOM      7  C   UNL     1      45.811   6.967  11.796  0.00  0.00    +0.000 A 
BRANCH   5   8
ATOM      8  C   UNL     1      43.944   3.716  11.105  0.00  0.00    +0.000 C 
BRANCH   8   9
ATOM      9  N   UNL     1      44.692   2.538  10.699  0.00  0.00    +0.000 NA
ATOM     10  H   UNL     1      44.405   1.745  11.271  0.00  0.00    +0.000 HD
BRANCH   9  11
ATOM     11  C   UNL     1      44.553   2.213   9.281  0.00  0.00    +0.000 C 
BRANCH  11  12
ATOM     12  C   UNL     1      45.941   2.300   8.615  0.00  0.00    +0.000 C 
ATOM     13  C   UNL     1      45.959   3.179   7.369  0.00  0.00    +0.000 C 
ATOM     14  C   UNL     1      47.263   2.782   6.707  0.00  0.00    +0.000 C 
ATOM     15  C   UNL     1      47.462   1.325   7.105  0.00  0.00    +0.000 C 
ATOM     16  N   UNL     1      46.420   1.015   8.090  0.00  0.00    +0.000 NA
ATOM     17  H   UNL     1      46.783   0.424   8.835  0.00  0.00    +0.000 HD
ENDBRANCH  11  12
ENDBRANCH   9  11
ENDBRANCH   8   9
ENDBRANCH   5   8
ENDBRANCH   1   2
BRANCH   1  19
ATOM     18  C   UNL     1      49.465   7.267  12.294  0.00  0.00    +0.000 C 
ATOM     19  N   UNL     1      48.812   7.592  13.557  0.00  0.00    +0.000 N 
ATOM     20  C   UNL     1      49.678   7.879  14.631  0.00  0.00    +0.000 C 
ATOM     21  O   UNL     1      50.896   7.847  14.451  0.00  0.00    +0.000 OA
BRANCH  20  22
ATOM     22  C   UNL     1      49.137   8.193  15.969  0.00  0.00    +0.000 A 
ATOM     23  C   UNL     1      48.919   9.469  16.469  0.00  0.00    +0.000 A 
ATOM     24  S   UNL     1      48.317   9.524  18.057  0.00  0.00    +0.000 S 
ATOM     25  C   UNL     1      48.129   7.840  18.074  0.00  0.00    +0.000 A 
ATOM     26  N   UNL     1      47.543   7.243  19.139  0.00  0.00    +0.000 NA
ATOM     27  C   UNL     1      47.386   5.973  19.012  0.00  0.00    +0.000 A 
ATOM     28  N   UNL     1      47.793   5.219  17.931  0.00  0.00    +0.000 N 
ATOM     29  C   UNL     1      47.565   3.793  17.914  0.00  0.00    +0.000 C 
ATOM     30  C   UNL     1      48.487   5.781  16.857  0.00  0.00    +0.000 A 
ATOM     31  O   UNL     1      48.973   5.092  15.966  0.00  0.00    +0.000 OA
ATOM     32  C   UNL     1      48.607   7.236  16.926  0.00  0.00    +0.000 A 
ENDBRANCH  20  22
ENDBRANCH   1  19
TORSDOF 7
ENDMDL
MODEL 3
REMARK VINA RESULT:    -7.327      2.943      8.589
REMARK INTER + INTRA:         -11.535
REMARK INTER:                 -10.480
REMARK INTRA:                  -1.055
REMARK UNBOUND:                -1.210
REMARK  Name = 
REMARK  9 active torsions:
REMARK  status: ('A' for Active; 'I' for Inactive)
REMARK    1  A    between atoms: C_1  and  N_2
REMARK    2  A    between atoms: N_2  and  C_3
REMARK    3  A    between atoms: C_3  and  C_4
REMARK    4  A    between atoms: C_7  and  C_8
REMARK    5  A    between atoms: C_8  and  N_9
REMARK    6  A    between atoms: N_9  and  C_10
REMARK    7  A    between atoms: C_10  and  C_11
REMARK    8  A    between atoms: C_18  and  C_20
REMARK    9  A    between atoms: N_26  and  C_27
REMARK                            x       y       z     vdW  Elec       q    Type
REMARK                         _______ _______ _______ _____ _____    ______ ____
ROOT
ATOM      1  C   UNL     1      48.328   6.204  13.735  0.00  0.00    +0.000 C 
ENDROOT
BRANCH   1   2
ATOM      2  C   UNL     1      47.044   5.977  13.002  0.00  0.00    +0.000 A 
ATOM      3  C   UNL     1      46.856   6.551  11.739  0.00  0.00    +0.000 A 
ATOM      4  C   UNL     1      45.688   6.290  11.027  0.00  0.00    +0.000 A 
ATOM      5  C   UNL     1      44.712   5.429  11.546  0.00  0.00    +0.000 A 
ATOM      6  C   UNL     1      44.897   4.895  12.823  0.00  0.00    +0.000 A 
ATOM      7  C   UNL     1      46.052   5.167  13.555  0.00  0.00    +0.000 A 
BRANCH   5   8
ATOM      8  C   UNL     1      43.446   5.110  10.772  0.00  0.00    +0.000 C 
BRANCH   8   9
ATOM      9  N   UNL     1      43.765   4.421   9.533  0.00  0.00    +0.000 NA
ATOM     10  H   UNL     1      44.474   4.950   9.028  0.00  0.00    +0.000 HD
BRANCH   9  11
ATOM     11  C   UNL     1      44.205   3.041   9.725  0.00  0.00    +0.000 C 
BRANCH  11  12
ATOM     12  C   UNL     1      45.557   2.848   9.007  0.00  0.00    +0.000 C 
ATOM     13  C   UNL     1      45.647   3.593   7.679  0.00  0.00    +0.000 C 
ATOM     14  C   UNL     1      46.843   2.938   7.018  0.00  0.00    +0.000 C 
ATOM     15  C   UNL     1      46.838   1.512   7.553  0.00  0.00    +0.000 C 
ATOM     16  N   UNL     1      45.809   1.462   8.598  0.00  0.00    +0.000 NA
ATOM     17  H   UNL     1      46.115   0.893   9.385  0.00  0.00    +0.000 HD
ENDBRANCH  11  12
ENDBRANCH   9  11
ENDBRANCH   8   9
ENDBRANCH   5   8
ENDBRANCH   1   2
BRANCH   1  19
ATOM     18  C   UNL     1      48.246   8.660  14.340  0.00  0.00    +0.000 C 
ATOM     19  N   UNL     1      48.389   7.264  14.734  0.00  0.00    +0.000 N 
ATOM     20  C   UNL     1      48.504   7.035  16.120  0.00  0.00    +0.000 C 
ATOM     21  O   UNL     1      48.472   7.990  16.896  0.00  0.00    +0.000 OA
BRANCH  20  22
ATOM     22  C   UNL     1      48.684   5.664  16.642  0.00  0.00    +0.000 A 
ATOM     23  C   UNL     1      47.700   4.688  16.696  0.00  0.00    +0.000 A 
ATOM     24  S   UNL     1      48.190   3.213  17.380  0.00  0.00    +0.000 S 
ATOM     25  C   UNL     1      49.797   3.746  17.449  0.00  0.00    +0.000 A 
ATOM     26  N   UNL     1      50.768   2.892  17.850  0.00  0.00    +0.000 NA
ATOM     27  C   UNL     1      51.956   3.380  17.794  0.00  0.00    +0.000 A 
ATOM     28  N   UNL     1      52.278   4.664  17.407  0.00  0.00    +0.000 N 
ATOM     29  C   UNL     1      53.656   5.094  17.395  0.00  0.00    +0.000 C 
ATOM     30  C   UNL     1      51.298   5.604  17.079  0.00  0.00    +0.000 A 
ATOM     31  O   UNL     1      51.572   6.783  16.874  0.00  0.00    +0.000 OA
ATOM     32  C   UNL     1      49.943   5.060  17.048  0.00  0.00    +0.000 A 
ENDBRANCH  20  22
ENDBRANCH   1  19
TORSDOF 7
ENDMDL
MODEL 4
REMARK VINA RESULT:    -7.305      2.252      3.207
REMARK INTER + INTRA:         -11.505
REMARK INTER:                  -9.850
REMARK INTRA:                  -1.655
REMARK UNBOUND:                -1.210
REMARK  Name = 
REMARK  9 active torsions:
REMARK  status: ('A' for Active; 'I' for Inactive)
REMARK    1  A    between atoms: C_1  and  N_2
REMARK    2  A    between atoms: N_2  and  C_3
REMARK    3  A    between atoms: C_3  and  C_4
REMARK    4  A    between atoms: C_7  and  C_8
REMARK    5  A    between atoms: C_8  and  N_9
REMARK    6  A    between atoms: N_9  and  C_10
REMARK    7  A    between atoms: C_10  and  C_11
REMARK    8  A    between atoms: C_18  and  C_20
REMARK    9  A    between atoms: N_26  and  C_27
REMARK                            x       y       z     vdW  Elec       q    Type
REMARK                         _______ _______ _______ _____ _____    ______ ____
ROOT
ATOM      1  C   UNL     1      47.506   6.232  12.449  0.00  0.00    +0.000 C 
ENDROOT
BRANCH   1   2
ATOM      2  C   UNL     1      47.589   5.762  13.867  0.00  0.00    +0.000 A 
ATOM      3  C   UNL     1      46.943   4.578  14.243  0.00  0.00    +0.000 A 
ATOM      4  C   UNL     1      47.070   4.105  15.547  0.00  0.00    +0.000 A 
ATOM      5  C   UNL     1      47.868   4.783  16.479  0.00  0.00    +0.000 A 
ATOM      6  C   UNL     1      48.474   5.982  16.099  0.00  0.00    +0.000 A 
ATOM      7  C   UNL     1      48.336   6.477  14.803  0.00  0.00    +0.000 A 
BRANCH   5   8
ATOM      8  C   UNL     1      48.042   4.266  17.895  0.00  0.00    +0.000 C 
BRANCH   8   9
ATOM      9  N   UNL     1      47.436   5.179  18.849  0.00  0.00    +0.000 NA
ATOM     10  H   UNL     1      46.607   4.744  19.250  0.00  0.00    +0.000 HD
BRANCH   9  11
ATOM     11  C   UNL     1      48.343   5.608  19.911  0.00  0.00    +0.000 C 
BRANCH  11  12
ATOM     12  C   UNL     1      48.491   7.142  19.847  0.00  0.00    +0.000 C 
ATOM     13  C   UNL     1      47.384   7.823  19.050  0.00  0.00    +0.000 C 
ATOM     14  C   UNL     1      47.959   9.202  18.803  0.00  0.00    +0.000 C 
ATOM     15  C   UNL     1      49.465   8.979  18.745  0.00  0.00    +0.000 C 
ATOM     16  N   UNL     1      49.697   7.585  19.137  0.00  0.00    +0.000 NA
ATOM     17  H   UNL     1      50.524   7.501  19.725  0.00  0.00    +0.000 HD
ENDBRANCH  11  12
ENDBRANCH   9  11
ENDBRANCH   8   9
ENDBRANCH   5   8
ENDBRANCH   1   2
BRANCH   1  19
ATOM     18  C   UNL     1      46.983   8.684  12.103  0.00  0.00    +0.000 C 
ATOM     19  N   UNL     1      46.560   7.289  12.113  0.00  0.00    +0.000 N 
ATOM     20  C   UNL     1      45.231   7.057  11.704  0.00  0.00    +0.000 C 
ATOM     21  O   UNL     1      44.527   8.008  11.368  0.00  0.00    +0.000 OA
BRANCH  20  22
ATOM     22  C   UNL     1      44.675   5.687  11.700  0.00  0.00    +0.000 A 
ATOM     23  C   UNL     1      43.808   5.169  12.651  0.00  0.00    +0.000 A 
ATOM     24  S   UNL     1      43.359   3.549  12.404  0.00  0.00    +0.000 S 
ATOM     25  C   UNL     1      44.143   3.531  10.902  0.00  0.00    +0.000 A 
ATOM     26  N   UNL     1      44.044   2.438  10.109  0.00  0.00    +0.000 NA
ATOM     27  C   UNL     1      44.616   2.563   8.964  0.00  0.00    +0.000 A 
ATOM     28  N   UNL     1      45.318   3.670   8.536  0.00  0.00    +0.000 N 
ATOM     29  C   UNL     1      45.923   3.682   7.224  0.00  0.00    +0.000 C 
ATOM     30  C   UNL     1      45.526   4.778   9.359  0.00  0.00    +0.000 A 
ATOM     31  O   UNL     1      46.268   5.699   9.034  0.00  0.00    +0.000 OA
ATOM     32  C   UNL     1      44.817   4.708  10.635  0.00  0.00    +0.000 A 
ENDBRANCH  20  22
ENDBRANCH   1  19
TORSDOF 7
ENDMDL
MODEL 5
REMARK VINA RESULT:    -7.207      3.219      8.577
REMARK INTER + INTRA:         -11.367
REMARK INTER:                 -10.277
REMARK INTRA:                  -1.089
REMARK UNBOUND:                -1.210
REMARK  Name = 
REMARK  9 active torsions:
REMARK  status: ('A' for Active; 'I' for Inactive)
REMARK    1  A    between atoms: C_1  and  N_2
REMARK    2  A    between atoms: N_2  and  C_3
REMARK    3  A    between atoms: C_3  and  C_4
REMARK    4  A    between atoms: C_7  and  C_8
REMARK    5  A    between atoms: C_8  and  N_9
REMARK    6  A    between atoms: N_9  and  C_10
REMARK    7  A    between atoms: C_10  and  C_11
REMARK    8  A    between atoms: C_18  and  C_20
REMARK    9  A    between atoms: N_26  and  C_27
REMARK                            x       y       z     vdW  Elec       q    Type
REMARK                         _______ _______ _______ _____ _____    ______ ____
ROOT
ATOM      1  C   UNL     1      48.434   6.732  13.423  0.00  0.00    +0.000 C 
ENDROOT
BRANCH   1   2
ATOM      2  C   UNL     1      47.316   5.957  12.800  0.00  0.00    +0.000 A 
ATOM      3  C   UNL     1      46.780   4.852  13.472  0.00  0.00    +0.000 A 
ATOM      4  C   UNL     1      45.699   4.167  12.924  0.00  0.00    +0.000 A 
ATOM      5  C   UNL     1      45.117   4.593  11.723  0.00  0.00    +0.000 A 
ATOM      6  C   UNL     1      45.688   5.672  11.046  0.00  0.00    +0.000 A 
ATOM      7  C   UNL     1      46.784   6.353  11.573  0.00  0.00    +0.000 A 
BRANCH   5   8
ATOM      8  C   UNL     1      43.920   3.876  11.126  0.00  0.00    +0.000 C 
BRANCH   8   9
ATOM      9  N   UNL     1      44.100   3.685   9.696  0.00  0.00    +0.000 NA
ATOM     10  H   UNL     1      44.811   4.332   9.359  0.00  0.00    +0.000 HD
BRANCH   9  11
ATOM     11  C   UNL     1      44.447   2.316   9.325  0.00  0.00    +0.000 C 
BRANCH  11  12
ATOM     12  C   UNL     1      45.846   2.317   8.678  0.00  0.00    +0.000 C 
ATOM     13  C   UNL     1      45.935   3.193   7.433  0.00  0.00    +0.000 C 
ATOM     14  C   UNL     1      47.221   2.717   6.788  0.00  0.00    +0.000 C 
ATOM     15  C   UNL     1      47.325   1.251   7.188  0.00  0.00    +0.000 C 
ATOM     16  N   UNL     1      46.252   1.006   8.159  0.00  0.00    +0.000 NA
ATOM     17  H   UNL     1      46.569   0.393   8.908  0.00  0.00    +0.000 HD
ENDBRANCH  11  12
ENDBRANCH   9  11
ENDBRANCH   8   9
ENDBRANCH   5   8
ENDBRANCH   1   2
BRANCH   1  19
ATOM     18  C   UNL     1      46.939   8.692  13.996  0.00  0.00    +0.000 C 
ATOM     19  N   UNL     1      48.111   7.871  14.275  0.00  0.00    +0.000 N 
ATOM     20  C   UNL     1      48.825   8.211  15.440  0.00  0.00    +0.000 C 
ATOM     21  O   UNL     1      48.434   9.146  16.139  0.00  0.00    +0.000 OA
BRANCH  20  22
ATOM     22  C   UNL     1      50.049   7.472  15.815  0.00  0.00    +0.000 A 
ATOM     23  C   UNL     1      51.347   7.937  15.666  0.00  0.00    +0.000 A 
ATOM     24  S   UNL     1      52.559   6.852  16.154  0.00  0.00    +0.000 S 
ATOM     25  C   UNL     1      51.395   5.788  16.776  0.00  0.00    +0.000 A 
ATOM     26  N   UNL     1      51.791   4.681  17.446  0.00  0.00    +0.000 NA
ATOM     27  C   UNL     1      50.826   3.986  17.937  0.00  0.00    +0.000 A 
ATOM     28  N   UNL     1      49.483   4.269  17.795  0.00  0.00    +0.000 N 
ATOM     29  C   UNL     1      48.493   3.402  18.390  0.00  0.00    +0.000 C 
ATOM     30  C   UNL     1      49.031   5.347  17.031  0.00  0.00    +0.000 A 
ATOM     31  O   UNL     1      47.841   5.516  16.786  0.00  0.00    +0.000 OA
ATOM     32  C   UNL     1      50.101   6.208  16.531  0.00  0.00    +0.000 A 
ENDBRANCH  20  22
ENDBRANCH   1  19
TORSDOF 7
ENDMDL
MODEL 6
REMARK VINA RESULT:    -6.879      3.148      8.353
REMARK INTER + INTRA:         -10.905
REMARK INTER:                  -9.916
REMARK INTRA:                  -0.988
REMARK UNBOUND:                -1.210
REMARK  Name = 
REMARK  9 active torsions:
REMARK  status: ('A' for Active; 'I' for Inactive)
REMARK    1  A    between atoms: C_1  and  N_2
REMARK    2  A    between atoms: N_2  and  C_3
REMARK    3  A    between atoms: C_3  and  C_4
REMARK    4  A    between atoms: C_7  and  C_8
REMARK    5  A    between atoms: C_8  and  N_9
REMARK    6  A    between atoms: N_9  and  C_10
REMARK    7  A    between atoms: C_10  and  C_11
REMARK    8  A    between atoms: C_18  and  C_20
REMARK    9  A    between atoms: N_26  and  C_27
REMARK                            x       y       z     vdW  Elec       q    Type
REMARK                         _______ _______ _______ _____ _____    ______ ____
ROOT
ATOM      1  C   UNL     1      46.553   8.050  13.163  0.00  0.00    +0.000 C 
ENDROOT
BRANCH   1   2
ATOM      2  C   UNL     1      45.742   6.977  12.510  0.00  0.00    +0.000 A 
ATOM      3  C   UNL     1      46.157   6.443  11.284  0.00  0.00    +0.000 A 
ATOM      4  C   UNL     1      45.438   5.401  10.704  0.00  0.00    +0.000 A 
ATOM      5  C   UNL     1      44.322   4.855  11.351  0.00  0.00    +0.000 A 
ATOM      6  C   UNL     1      43.898   5.424  12.553  0.00  0.00    +0.000 A 
ATOM      7  C   UNL     1      44.596   6.482  13.133  0.00  0.00    +0.000 A 
BRANCH   5   8
ATOM      8  C   UNL     1      43.544   3.700  10.748  0.00  0.00    +0.000 C 
BRANCH   8   9
ATOM      9  N   UNL     1      43.984   3.444   9.387  0.00  0.00    +0.000 NA
ATOM     10  H   UNL     1      44.685   4.135   9.125  0.00  0.00    +0.000 HD
BRANCH   9  11
ATOM     11  C   UNL     1      44.505   2.094   9.182  0.00  0.00    +0.000 C 
BRANCH  11  12
ATOM     12  C   UNL     1      45.921   2.196   8.579  0.00  0.00    +0.000 C 
ATOM     13  C   UNL     1      45.993   3.104   7.356  0.00  0.00    +0.000 C 
ATOM     14  C   UNL     1      47.325   2.723   6.743  0.00  0.00    +0.000 C 
ATOM     15  C   UNL     1      47.507   1.257   7.116  0.00  0.00    +0.000 C 
ATOM     16  N   UNL     1      46.423   0.924   8.046  0.00  0.00    +0.000 NA
ATOM     17  H   UNL     1      46.754   0.315   8.792  0.00  0.00    +0.000 HD
ENDBRANCH  11  12
ENDBRANCH   9  11
ENDBRANCH   8   9
ENDBRANCH   5   8
ENDBRANCH   1   2
BRANCH   1  19
ATOM     18  C   UNL     1      48.627   8.969  12.042  0.00  0.00    +0.000 C 
ATOM     19  N   UNL     1      47.999   8.047  12.981  0.00  0.00    +0.000 N 
ATOM     20  C   UNL     1      48.886   7.245  13.727  0.00  0.00    +0.000 C 
ATOM     21  O   UNL     1      50.099   7.365  13.556  0.00  0.00    +0.000 OA
BRANCH  20  22
ATOM     22  C   UNL     1      48.370   6.251  14.690  0.00  0.00    +0.000 A 
ATOM     23  C   UNL     1      47.736   5.062  14.357  0.00  0.00    +0.000 A 
ATOM     24  S   UNL     1      47.220   4.130  15.680  0.00  0.00    +0.000 S 
ATOM     25  C   UNL     1      48.002   5.176  16.759  0.00  0.00    +0.000 A 
ATOM     26  N   UNL     1      48.033   4.875  18.079  0.00  0.00    +0.000 NA
ATOM     27  C   UNL     1      48.715   5.700  18.793  0.00  0.00    +0.000 A 
ATOM     28  N   UNL     1      49.349   6.832  18.324  0.00  0.00    +0.000 N 
ATOM     29  C   UNL     1      50.078   7.683  19.234  0.00  0.00    +0.000 C 
ATOM     30  C   UNL     1      49.259   7.229  16.988  0.00  0.00    +0.000 A 
ATOM     31  O   UNL     1      49.700   8.306  16.600  0.00  0.00    +0.000 OA
ATOM     32  C   UNL     1      48.566   6.271  16.130  0.00  0.00    +0.000 A 
ENDBRANCH  20  22
ENDBRANCH   1  19
TORSDOF 7
ENDMDL
MODEL 7
REMARK VINA RESULT:    -6.757      3.659      4.997
REMARK INTER + INTRA:         -10.732
REMARK INTER:                  -9.498
REMARK INTRA:                  -1.234
REMARK UNBOUND:                -1.210
REMARK  Name = 
REMARK  9 active torsions:
REMARK  status: ('A' for Active; 'I' for Inactive)
REMARK    1  A    between atoms: C_1  and  N_2
REMARK    2  A    between atoms: N_2  and  C_3
REMARK    3  A    between atoms: C_3  and  C_4
REMARK    4  A    between atoms: C_7  and  C_8
REMARK    5  A    between atoms: C_8  and  N_9
REMARK    6  A    between atoms: N_9  and  C_10
REMARK    7  A    between atoms: C_10  and  C_11
REMARK    8  A    between atoms: C_18  and  C_20
REMARK    9  A    between atoms: N_26  and  C_27
REMARK                            x       y       z     vdW  Elec       q    Type
REMARK                         _______ _______ _______ _____ _____    ______ ____
ROOT
ATOM      1  C   UNL     1      46.710   6.172  12.411  0.00  0.00    +0.000 C 
ENDROOT
BRANCH   1   2
ATOM      2  C   UNL     1      47.983   6.853  12.804  0.00  0.00    +0.000 A 
ATOM      3  C   UNL     1      48.356   6.900  14.153  0.00  0.00    +0.000 A 
ATOM      4  C   UNL     1      49.569   7.479  14.515  0.00  0.00    +0.000 A 
ATOM      5  C   UNL     1      50.441   7.983  13.540  0.00  0.00    +0.000 A 
ATOM      6  C   UNL     1      50.037   7.963  12.204  0.00  0.00    +0.000 A 
ATOM      7  C   UNL     1      48.815   7.407  11.830  0.00  0.00    +0.000 A 
BRANCH   5   8
ATOM      8  C   UNL     1      51.780   8.590  13.914  0.00  0.00    +0.000 C 
BRANCH   8   9
ATOM      9  N   UNL     1      52.868   7.840  13.309  0.00  0.00    +0.000 NA
ATOM     10  H   UNL     1      52.481   7.097  12.728  0.00  0.00    +0.000 HD
BRANCH   9  11
ATOM     11  C   UNL     1      53.786   8.664  12.527  0.00  0.00    +0.000 C 
BRANCH  11  12
ATOM     12  C   UNL     1      53.816   8.135  11.079  0.00  0.00    +0.000 C 
ATOM     13  C   UNL     1      52.927   8.929  10.127  0.00  0.00    +0.000 C 
ATOM     14  C   UNL     1      52.818   8.004   8.932  0.00  0.00    +0.000 C 
ATOM     15  C   UNL     1      52.929   6.605   9.525  0.00  0.00    +0.000 C 
ATOM     16  N   UNL     1      53.277   6.777  10.940  0.00  0.00    +0.000 NA
ATOM     17  H   UNL     1      53.954   6.078  11.239  0.00  0.00    +0.000 HD
ENDBRANCH  11  12
ENDBRANCH   9  11
ENDBRANCH   8   9
ENDBRANCH   5   8
ENDBRANCH   1   2
BRANCH   1  19
ATOM     18  C   UNL     1      45.617   8.440  12.154  0.00  0.00    +0.000 C 
ATOM     19  N   UNL     1      45.566   6.988  12.025  0.00  0.00    +0.000 N 
ATOM     20  C   UNL     1      44.391   6.473  11.442  0.00  0.00    +0.000 C 
ATOM     21  O   UNL     1      43.505   7.248  11.080  0.00  0.00    +0.000 OA
BRANCH  20  22
ATOM     22  C   UNL     1      44.206   5.015  11.285  0.00  0.00    +0.000 A 
ATOM     23  C   UNL     1      43.385   4.220  12.071  0.00  0.00    +0.000 A 
ATOM     24  S   UNL     1      43.398   2.567  11.677  0.00  0.00    +0.000 S 
ATOM     25  C   UNL     1      44.349   2.872  10.308  0.00  0.00    +0.000 A 
ATOM     26  N   UNL     1      44.634   1.861   9.453  0.00  0.00    +0.000 NA
ATOM     27  C   UNL     1      45.299   2.221   8.413  0.00  0.00    +0.000 A 
ATOM     28  N   UNL     1      45.746   3.500   8.150  0.00  0.00    +0.000 N 
ATOM     29  C   UNL     1      46.492   3.773   6.945  0.00  0.00    +0.000 C 
ATOM     30  C   UNL     1      45.556   4.549   9.052  0.00  0.00    +0.000 A 
ATOM     31  O   UNL     1      46.075   5.648   8.887  0.00  0.00    +0.000 OA
ATOM     32  C   UNL     1      44.730   4.197  10.204  0.00  0.00    +0.000 A 
ENDBRANCH  20  22
ENDBRANCH   1  19
TORSDOF 7
ENDMDL
MODEL 8
REMARK VINA RESULT:    -6.604      1.520      2.279
REMARK INTER + INTRA:         -10.516
REMARK INTER:                  -9.156
REMARK INTRA:                  -1.360
REMARK UNBOUND:                -1.210
REMARK  Name = 
REMARK  9 active torsions:
REMARK  status: ('A' for Active; 'I' for Inactive)
REMARK    1  A    between atoms: C_1  and  N_2
REMARK    2  A    between atoms: N_2  and  C_3
REMARK    3  A    between atoms: C_3  and  C_4
REMARK    4  A    between atoms: C_7  and  C_8
REMARK    5  A    between atoms: C_8  and  N_9
REMARK    6  A    between atoms: N_9  and  C_10
REMARK    7  A    between atoms: C_10  and  C_11
REMARK    8  A    between atoms: C_18  and  C_20
REMARK    9  A    between atoms: N_26  and  C_27
REMARK                            x       y       z     vdW  Elec       q    Type
REMARK                         _______ _______ _______ _____ _____    ______ ____
ROOT
ATOM      1  C   UNL     1      47.545   6.491  12.406  0.00  0.00    +0.000 C 
ENDROOT
BRANCH   1   2
ATOM      2  C   UNL     1      48.368   6.663  13.642  0.00  0.00    +0.000 A 
ATOM      3  C   UNL     1      49.588   7.348  13.573  0.00  0.00    +0.000 A 
ATOM      4  C   UNL     1      50.326   7.564  14.734  0.00  0.00    +0.000 A 
ATOM      5  C   UNL     1      49.845   7.136  15.978  0.00  0.00    +0.000 A 
ATOM      6  C   UNL     1      48.647   6.422  16.025  0.00  0.00    +0.000 A 
ATOM      7  C   UNL     1      47.909   6.179  14.867  0.00  0.00    +0.000 A 
BRANCH   5   8
ATOM      8  C   UNL     1      50.622   7.389  17.256  0.00  0.00    +0.000 C 
BRANCH   8   9
ATOM      9  N   UNL     1      51.466   6.250  17.575  0.00  0.00    +0.000 NA
ATOM     10  H   UNL     1      52.443   6.511  17.454  0.00  0.00    +0.000 HD
BRANCH   9  11
ATOM     11  C   UNL     1      51.250   5.717  18.918  0.00  0.00    +0.000 C 
BRANCH  11  12
ATOM     12  C   UNL     1      50.499   4.375  18.804  0.00  0.00    +0.000 C 
ATOM     13  C   UNL     1      50.683   3.693  17.452  0.00  0.00    +0.000 C 
ATOM     14  C   UNL     1      49.571   2.664  17.451  0.00  0.00    +0.000 C 
ATOM     15  C   UNL     1      48.471   3.293  18.295  0.00  0.00    +0.000 C 
ATOM     16  N   UNL     1      49.040   4.512  18.881  0.00  0.00    +0.000 NA
ATOM     17  H   UNL     1      48.730   4.635  19.843  0.00  0.00    +0.000 HD
ENDBRANCH  11  12
ENDBRANCH   9  11
ENDBRANCH   8   9
ENDBRANCH   5   8
ENDBRANCH   1   2
BRANCH   1  19
ATOM     18  C   UNL     1      47.021   8.918  11.918  0.00  0.00    +0.000 C 
ATOM     19  N   UNL     1      46.589   7.531  12.046  0.00  0.00    +0.000 N 
ATOM     20  C   UNL     1      45.240   7.285  11.724  0.00  0.00    +0.000 C 
ATOM     21  O   UNL     1      44.525   8.218  11.359  0.00  0.00    +0.000 OA
BRANCH  20  22
ATOM     22  C   UNL     1      44.675   5.925  11.844  0.00  0.00    +0.000 A 
ATOM     23  C   UNL     1      43.855   5.482  12.872  0.00  0.00    +0.000 A 
ATOM     24  S   UNL     1      43.383   3.854  12.762  0.00  0.00    +0.000 S 
ATOM     25  C   UNL     1      44.088   3.723  11.227  0.00  0.00    +0.000 A 
ATOM     26  N   UNL     1      43.941   2.580  10.518  0.00  0.00    +0.000 NA
ATOM     27  C   UNL     1      44.454   2.618   9.339  0.00  0.00    +0.000 A 
ATOM     28  N   UNL     1      45.142   3.686   8.800  0.00  0.00    +0.000 N 
ATOM     29  C   UNL     1      45.678   3.600   7.462  0.00  0.00    +0.000 C 
ATOM     30  C   UNL     1      45.398   4.846   9.533  0.00  0.00    +0.000 A 
ATOM     31  O   UNL     1      46.129   5.735   9.107  0.00  0.00    +0.000 OA
ATOM     32  C   UNL     1      44.756   4.872  10.845  0.00  0.00    +0.000 A 
ENDBRANCH  20  22
ENDBRANCH   1  19
TORSDOF 7
ENDMDL
MODEL 9
REMARK VINA RESULT:    -6.359      3.473      8.614
REMARK INTER + INTRA:         -10.171
REMARK INTER:                  -8.956
REMARK INTRA:                  -1.215
REMARK UNBOUND:                -1.210
REMARK  Name = 
REMARK  9 active torsions:
REMARK  status: ('A' for Active; 'I' for Inactive)
REMARK    1  A    between atoms: C_1  and  N_2
REMARK    2  A    between atoms: N_2  and  C_3
REMARK    3  A    between atoms: C_3  and  C_4
REMARK    4  A    between atoms: C_7  and  C_8
REMARK    5  A    between atoms: C_8  and  N_9
REMARK    6  A    between atoms: N_9  and  C_10
REMARK    7  A    between atoms: C_10  and  C_11
REMARK    8  A    between atoms: C_18  and  C_20
REMARK    9  A    between atoms: N_26  and  C_27
REMARK                            x       y       z     vdW  Elec       q    Type
REMARK                         _______ _______ _______ _____ _____    ______ ____
ROOT
ATOM      1  C   UNL     1      49.738   8.305  15.110  0.00  0.00    +0.000 C 
ENDROOT
BRANCH   1   2
ATOM      2  C   UNL     1      48.616   7.962  14.183  0.00  0.00    +0.000 A 
ATOM      3  C   UNL     1      48.214   6.627  14.046  0.00  0.00    +0.000 A 
ATOM      4  C   UNL     1      47.130   6.312  13.232  0.00  0.00    +0.000 A 
ATOM      5  C   UNL     1      46.412   7.320  12.574  0.00  0.00    +0.000 A 
ATOM      6  C   UNL     1      46.849   8.640  12.690  0.00  0.00    +0.000 A 
ATOM      7  C   UNL     1      47.947   8.967  13.484  0.00  0.00    +0.000 A 
BRANCH   5   8
ATOM      8  C   UNL     1      45.210   6.997  11.706  0.00  0.00    +0.000 C 
BRANCH   8   9
ATOM      9  N   UNL     1      45.156   5.574  11.417  0.00  0.00    +0.000 NA
ATOM     10  H   UNL     1      45.364   5.051  12.266  0.00  0.00    +0.000 HD
BRANCH   9  11
ATOM     11  C   UNL     1      43.882   5.136  10.853  0.00  0.00    +0.000 C 
BRANCH  11  12
ATOM     12  C   UNL     1      44.161   4.251   9.622  0.00  0.00    +0.000 C 
ATOM     13  C   UNL     1      44.753   2.891   9.978  0.00  0.00    +0.000 C 
ATOM     14  C   UNL     1      45.292   2.410   8.646  0.00  0.00    +0.000 C 
ATOM     15  C   UNL     1      45.673   3.687   7.908  0.00  0.00    +0.000 C 
ATOM     16  N   UNL     1      45.182   4.803   8.724  0.00  0.00    +0.000 NA
ATOM     17  H   UNL     1      44.799   5.544   8.139  0.00  0.00    +0.000 HD
ENDBRANCH  11  12
ENDBRANCH   9  11
ENDBRANCH   8   9
ENDBRANCH   5   8
ENDBRANCH   1   2
BRANCH   1  19
ATOM     18  C   UNL     1      48.625   9.914  16.716  0.00  0.00    +0.000 C 
ATOM     19  N   UNL     1      49.424   8.718  16.473  0.00  0.00    +0.000 N 
ATOM     20  C   UNL     1      49.778   7.983  17.621  0.00  0.00    +0.000 C 
ATOM     21  O   UNL     1      49.404   8.372  18.728  0.00  0.00    +0.000 OA
BRANCH  20  22
ATOM     22  C   UNL     1      50.612   6.769  17.508  0.00  0.00    +0.000 A 
ATOM     23  C   UNL     1      51.995   6.730  17.610  0.00  0.00    +0.000 A 
ATOM     24  S   UNL     1      52.687   5.192  17.404  0.00  0.00    +0.000 S 
ATOM     25  C   UNL     1      51.152   4.475  17.372  0.00  0.00    +0.000 A 
ATOM     26  N   UNL     1      51.045   3.126  17.324  0.00  0.00    +0.000 NA
ATOM     27  C   UNL     1      49.836   2.690  17.378  0.00  0.00    +0.000 A 
ATOM     28  N   UNL     1      48.703   3.475  17.440  0.00  0.00    +0.000 N 
ATOM     29  C   UNL     1      47.398   2.860  17.488  0.00  0.00    +0.000 C 
ATOM     30  C   UNL     1      48.766   4.869  17.394  0.00  0.00    +0.000 A 
ATOM     31  O   UNL     1      47.758   5.562  17.305  0.00  0.00    +0.000 OA
ATOM     32  C   UNL     1      50.127   5.401  17.421  0.00  0.00    +0.000 A 
ENDBRANCH  20  22
ENDBRANCH   1  19
TORSDOF 7
ENDMDL
