MODEL 1
REMARK VINA RESULT:    -7.754      0.000      0.000
REMARK INTER + INTRA:         -12.696
REMARK INTER:                 -11.380
REMARK INTRA:                  -1.315
REMARK UNBOUND:                -1.315
REMARK  Name = 
REMARK  9 active torsions:
REMARK  status: ('A' for Active; 'I' for Inactive)
REMARK    1  A    between atoms: C_1  and  O_2
REMARK    2  A    between atoms: O_2  and  C_3
REMARK    3  A    between atoms: C_10  and  C_11
REMARK    4  A    between atoms: N_13  and  C_14
REMARK    5  A    between atoms: C_14  and  C_15
REMARK    6  A    between atoms: C_18  and  C_19
REMARK    7  A    between atoms: C_19  and  O_20
REMARK    8  A    between atoms: O_20  and  C_21
REMARK    9  A    between atoms: C_21  and  C_22
REMARK                            x       y       z     vdW  Elec       q    Type
REMARK                         _______ _______ _______ _____ _____    ______ ____
ROOT
ATOM      1  C   UNL     1      48.002   7.037  13.250  0.00  0.00    +0.000 C 
ENDROOT
BRANCH   1   2
ATOM      2  C   UNL     1      46.908   6.145  12.722  0.00  0.00    +0.000 A 
ATOM      3  C   UNL     1      46.552   4.968  13.394  0.00  0.00    +0.000 A 
ATOM      4  C   UNL     1      45.541   4.137  12.894  0.00  0.00    +0.000 A 
ATOM      5  C   UNL     1      44.872   4.460  11.705  0.00  0.00    +0.000 A 
ATOM      6  C   UNL     1      45.245   5.624  11.022  0.00  0.00    +0.000 A 
ATOM      7  C   UNL     1      46.256   6.454  11.521  0.00  0.00    +0.000 A 
BRANCH   5   8
ATOM      8  C   UNL     1      43.789   3.561  11.159  0.00  0.00    +0.000 C 
BRANCH   8   9
ATOM      9  O   UNL     1      43.966   3.397   9.755  0.00  0.00    +0.000 OA
BRANCH   9  10
ATOM     10  C   UNL     1      44.553   2.132   9.444  0.00  0.00    +0.000 C 
BRANCH  10  11
ATOM     11  C   UNL     1      45.650   2.294   8.422  0.00  0.00    +0.000 A 
ATOM     12  C   UNL     1      45.926   3.553   7.874  0.00  0.00    +0.000 A 
ATOM     13  C   UNL     1      46.967   3.672   6.966  0.00  0.00    +0.000 A 
ATOM     14  N   UNL     1      47.749   2.644   6.578  0.00  0.00    +0.000 NA
ATOM     15  C   UNL     1      47.475   1.440   7.122  0.00  0.00    +0.000 A 
ATOM     16  C   UNL     1      46.458   1.221   8.039  0.00  0.00    +0.000 A 
ENDBRANCH  10  11
ENDBRANCH   9  10
ENDBRANCH   8   9
ENDBRANCH   5   8
ENDBRANCH   1   2
BRANCH   1  19
ATOM     17  C   UNL     1      49.020   6.946  15.493  0.00  0.00    +0.000 C 
ATOM     18  O   UNL     1      50.122   6.665  15.027  0.00  0.00    +0.000 OA
ATOM     19  N   UNL     1      47.933   7.137  14.689  0.00  0.00    +0.000 N 
ATOM     20  H   UNL     1      47.022   7.291  15.095  0.00  0.00    +0.000 HD
BRANCH  17  28
ATOM     21  C   UNL     1      48.940   4.720  18.120  0.00  0.00    +0.000 A 
ATOM     22  N   UNL     1      48.831   4.080  19.301  0.00  0.00    +0.000 NA
ATOM     23  C   UNL     1      48.560   4.809  20.386  0.00  0.00    +0.000 A 
ATOM     24  N   UNL     1      48.388   6.126  20.443  0.00  0.00    +0.000 NA
ATOM     25  C   UNL     1      48.510   6.726  19.247  0.00  0.00    +0.000 A 
ATOM     26  S   UNL     1      48.327   8.410  19.132  0.00  0.00    +0.000 S 
ATOM     27  C   UNL     1      48.589   8.375  17.454  0.00  0.00    +0.000 A 
ATOM     28  C   UNL     1      48.818   7.100  16.946  0.00  0.00    +0.000 A 
ATOM     29  C   UNL     1      48.783   6.115  18.028  0.00  0.00    +0.000 A 
BRANCH  21  31
ATOM     30  C   UNL     1      48.182   3.210  16.500  0.00  0.00    +0.000 C 
ATOM     31  O   UNL     1      49.272   3.974  17.009  0.00  0.00    +0.000 OA
ENDBRANCH  21  31
ENDBRANCH  17  28
ENDBRANCH   1  19
TORSDOF 8
ENDMDL
MODEL 2
REMARK VINA RESULT:    -7.747      1.474      2.522
REMARK INTER + INTRA:         -12.685
REMARK INTER:                 -11.773
REMARK INTRA:                  -0.912
REMARK UNBOUND:                -1.315
REMARK  Name = 
REMARK  9 active torsions:
REMARK  status: ('A' for Active; 'I' for Inactive)
REMARK    1  A    between atoms: C_1  and  O_2
REMARK    2  A    between atoms: O_2  and  C_3
REMARK    3  A    between atoms: C_10  and  C_11
REMARK    4  A    between atoms: N_13  and  C_14
REMARK    5  A    between atoms: C_14  and  C_15
REMARK    6  A    between atoms: C_18  and  C_19
REMARK    7  A    between atoms: C_19  and  O_20
REMARK    8  A    between atoms: O_20  and  C_21
REMARK    9  A    between atoms: C_21  and  C_22
REMARK                            x       y       z     vdW  Elec       q    Type
REMARK                         _______ _______ _______ _____ _____    ______ ____
ROOT
ATOM      1  C   UNL     1      48.017   6.664  13.687  0.00  0.00    +0.000 C 
ENDROOT
BRANCH   1   2
ATOM      2  C   UNL     1      46.899   6.034  12.895  0.00  0.00    +0.000 A 
ATOM      3  C   UNL     1      46.383   4.780  13.251  0.00  0.00    +0.000 A 
ATOM      4  C   UNL     1      45.351   4.195  12.507  0.00  0.00    +0.000 A 
ATOM      5  C   UNL     1      44.821   4.845  11.383  0.00  0.00    +0.000 A 
ATOM      6  C   UNL     1      45.354   6.086  11.014  0.00  0.00    +0.000 A 
ATOM      7  C   UNL     1      46.386   6.672  11.758  0.00  0.00    +0.000 A 
BRANCH   5   8
ATOM      8  C   UNL     1      43.716   4.211  10.573  0.00  0.00    +0.000 C 
BRANCH   8   9
ATOM      9  O   UNL     1      44.263   3.210   9.718  0.00  0.00    +0.000 OA
BRANCH   9  10
ATOM     10  C   UNL     1      44.739   3.770   8.493  0.00  0.00    +0.000 C 
BRANCH  10  11
ATOM     11  C   UNL     1      45.835   2.914   7.911  0.00  0.00    +0.000 A 
ATOM     12  C   UNL     1      45.944   1.564   8.268  0.00  0.00    +0.000 A 
ATOM     13  C   UNL     1      46.941   0.798   7.684  0.00  0.00    +0.000 A 
ATOM     14  N   UNL     1      47.818   1.269   6.773  0.00  0.00    +0.000 NA
ATOM     15  C   UNL     1      47.693   2.568   6.434  0.00  0.00    +0.000 A 
ATOM     16  C   UNL     1      46.729   3.415   6.961  0.00  0.00    +0.000 A 
ENDBRANCH  10  11
ENDBRANCH   9  10
ENDBRANCH   8   9
ENDBRANCH   5   8
ENDBRANCH   1   2
BRANCH   1  19
ATOM     17  C   UNL     1      48.978   6.321  15.930  0.00  0.00    +0.000 C 
ATOM     18  O   UNL     1      50.110   6.584  15.530  0.00  0.00    +0.000 OA
ATOM     19  N   UNL     1      47.903   6.332  15.087  0.00  0.00    +0.000 N 
ATOM     20  H   UNL     1      46.997   6.038  15.418  0.00  0.00    +0.000 HD
BRANCH  17  28
ATOM     21  C   UNL     1      47.847   8.143  18.624  0.00  0.00    +0.000 A 
ATOM     22  N   UNL     1      47.465   8.616  19.827  0.00  0.00    +0.000 NA
ATOM     23  C   UNL     1      47.483   7.778  20.865  0.00  0.00    +0.000 A 
ATOM     24  N   UNL     1      47.837   6.496  20.854  0.00  0.00    +0.000 NA
ATOM     25  C   UNL     1      48.206   6.063  19.636  0.00  0.00    +0.000 A 
ATOM     26  S   UNL     1      48.684   4.446  19.432  0.00  0.00    +0.000 S 
ATOM     27  C   UNL     1      48.976   4.689  17.776  0.00  0.00    +0.000 A 
ATOM     28  C   UNL     1      48.722   5.986  17.343  0.00  0.00    +0.000 A 
ATOM     29  C   UNL     1      48.247   6.804  18.460  0.00  0.00    +0.000 A 
BRANCH  21  31
ATOM     30  C   UNL     1      48.067  10.350  17.875  0.00  0.00    +0.000 C 
ATOM     31  O   UNL     1      47.776   8.995  17.542  0.00  0.00    +0.000 OA
ENDBRANCH  21  31
ENDBRANCH  17  28
ENDBRANCH   1  19
TORSDOF 8
ENDMDL
MODEL 3
REMARK VINA RESULT:    -7.573      1.965      3.546
REMARK INTER + INTRA:         -12.430
REMARK INTER:                 -11.023
REMARK INTRA:                  -1.407
REMARK UNBOUND:                -1.315
REMARK  Name = 
REMARK  9 active torsions:
REMARK  status: ('A' for Active; 'I' for Inactive)
REMARK    1  A    between atoms: C_1  and  O_2
REMARK    2  A    between atoms: O_2  and  C_3
REMARK    3  A    between atoms: C_10  and  C_11
REMARK    4  A    between atoms: N_13  and  C_14
REMARK    5  A    between atoms: C_14  and  C_15
REMARK    6  A    between atoms: C_18  and  C_19
REMARK    7  A    between atoms: C_19  and  O_20
REMARK    8  A    between atoms: O_20  and  C_21
REMARK    9  A    between atoms: C_21  and  C_22
REMARK                            x       y       z     vdW  Elec       q    Type
REMARK                         _______ _______ _______ _____ _____    ______ ____
ROOT
ATOM      1  C   UNL     1      47.161   4.374  14.920  0.00  0.00    +0.000 C 
ENDROOT
BRANCH   1   2
ATOM      2  C   UNL     1      46.288   4.423  13.692  0.00  0.00    +0.000 A 
ATOM      3  C   UNL     1      45.682   5.621  13.289  0.00  0.00    +0.000 A 
ATOM      4  C   UNL     1      44.864   5.661  12.152  0.00  0.00    +0.000 A 
ATOM      5  C   UNL     1      44.625   4.502  11.401  0.00  0.00    +0.000 A 
ATOM      6  C   UNL     1      45.212   3.300  11.820  0.00  0.00    +0.000 A 
ATOM      7  C   UNL     1      46.029   3.260  12.955  0.00  0.00    +0.000 A 
BRANCH   5   8
ATOM      8  C   UNL     1      43.736   4.539  10.183  0.00  0.00    +0.000 C 
BRANCH   8   9
ATOM      9  O   UNL     1      44.196   3.591   9.224  0.00  0.00    +0.000 OA
BRANCH   9  10
ATOM     10  C   UNL     1      45.173   4.159   8.350  0.00  0.00    +0.000 C 
BRANCH  10  11
ATOM     11  C   UNL     1      46.011   3.077   7.717  0.00  0.00    +0.000 A 
ATOM     12  C   UNL     1      46.790   3.355   6.587  0.00  0.00    +0.000 A 
ATOM     13  C   UNL     1      47.578   2.346   6.055  0.00  0.00    +0.000 A 
ATOM     14  N   UNL     1      47.654   1.100   6.567  0.00  0.00    +0.000 NA
ATOM     15  C   UNL     1      46.905   0.853   7.661  0.00  0.00    +0.000 A 
ATOM     16  C   UNL     1      46.087   1.795   8.267  0.00  0.00    +0.000 A 
ENDBRANCH  10  11
ENDBRANCH   9  10
ENDBRANCH   8   9
ENDBRANCH   5   8
ENDBRANCH   1   2
BRANCH   1  19
ATOM     17  C   UNL     1      48.595   5.940  16.171  0.00  0.00    +0.000 C 
ATOM     18  O   UNL     1      49.267   5.020  16.633  0.00  0.00    +0.000 OA
ATOM     19  N   UNL     1      47.544   5.703  15.331  0.00  0.00    +0.000 N 
ATOM     20  H   UNL     1      46.959   6.466  15.025  0.00  0.00    +0.000 HD
BRANCH  17  28
ATOM     21  C   UNL     1      48.683   8.830  14.300  0.00  0.00    +0.000 A 
ATOM     22  N   UNL     1      48.819  10.078  13.810  0.00  0.00    +0.000 NA
ATOM     23  C   UNL     1      49.205  11.042  14.649  0.00  0.00    +0.000 A 
ATOM     24  N   UNL     1      49.471  10.916  15.946  0.00  0.00    +0.000 NA
ATOM     25  C   UNL     1      49.317   9.658  16.395  0.00  0.00    +0.000 A 
ATOM     26  S   UNL     1      49.607   9.313  18.032  0.00  0.00    +0.000 S 
ATOM     27  C   UNL     1      49.242   7.670  17.802  0.00  0.00    +0.000 A 
ATOM     28  C   UNL     1      48.896   7.347  16.494  0.00  0.00    +0.000 A 
ATOM     29  C   UNL     1      48.929   8.546  15.655  0.00  0.00    +0.000 A 
BRANCH  21  31
ATOM     30  C   UNL     1      49.250   7.344  12.582  0.00  0.00    +0.000 C 
ATOM     31  O   UNL     1      48.233   7.846  13.445  0.00  0.00    +0.000 OA
ENDBRANCH  21  31
ENDBRANCH  17  28
ENDBRANCH   1  19
TORSDOF 8
ENDMDL
MODEL 4
REMARK VINA RESULT:    -7.291      1.693      2.597
REMARK INTER + INTRA:         -12.016
REMARK INTER:                 -11.007
REMARK INTRA:                  -1.009
REMARK UNBOUND:                -1.315
REMARK  Name = 
REMARK  9 active torsions:
REMARK  status: ('A' for Active; 'I' for Inactive)
REMARK    1  A    between atoms: C_1  and  O_2
REMARK    2  A    between atoms: O_2  and  C_3
REMARK    3  A    between atoms: C_10  and  C_11
REMARK    4  A    between atoms: N_13  and  C_14
REMARK    5  A    between atoms: C_14  and  C_15
REMARK    6  A    between atoms: C_18  and  C_19
REMARK    7  A    between atoms: C_19  and  O_20
REMARK    8  A    between atoms: O_20  and  C_21
REMARK    9  A    between atoms: C_21  and  C_22
REMARK                            x       y       z     vdW  Elec       q    Type
REMARK                         _______ _______ _______ _____ _____    ______ ____
ROOT
ATOM      1  C   UNL     1      47.296   4.314  14.875  0.00  0.00    +0.000 C 
ENDROOT
BRANCH   1   2
ATOM      2  C   UNL     1      46.405   4.398  13.662  0.00  0.00    +0.000 A 
ATOM      3  C   UNL     1      45.892   5.630  13.230  0.00  0.00    +0.000 A 
ATOM      4  C   UNL     1      45.057   5.703  12.108  0.00  0.00    +0.000 A 
ATOM      5  C   UNL     1      44.706   4.545  11.401  0.00  0.00    +0.000 A 
ATOM      6  C   UNL     1      45.199   3.312  11.848  0.00  0.00    +0.000 A 
ATOM      7  C   UNL     1      46.033   3.239  12.969  0.00  0.00    +0.000 A 
BRANCH   5   8
ATOM      8  C   UNL     1      43.798   4.619  10.198  0.00  0.00    +0.000 C 
BRANCH   8   9
ATOM      9  O   UNL     1      44.233   3.688   9.211  0.00  0.00    +0.000 OA
BRANCH   9  10
ATOM     10  C   UNL     1      45.305   4.215   8.428  0.00  0.00    +0.000 C 
BRANCH  10  11
ATOM     11  C   UNL     1      46.070   3.101   7.760  0.00  0.00    +0.000 A 
ATOM     12  C   UNL     1      46.829   3.353   6.611  0.00  0.00    +0.000 A 
ATOM     13  C   UNL     1      47.550   2.313   6.045  0.00  0.00    +0.000 A 
ATOM     14  N   UNL     1      47.580   1.059   6.542  0.00  0.00    +0.000 NA
ATOM     15  C   UNL     1      46.851   0.836   7.655  0.00  0.00    +0.000 A 
ATOM     16  C   UNL     1      46.099   1.810   8.294  0.00  0.00    +0.000 A 
ENDBRANCH  10  11
ENDBRANCH   9  10
ENDBRANCH   8   9
ENDBRANCH   5   8
ENDBRANCH   1   2
BRANCH   1  19
ATOM     17  C   UNL     1      48.601   5.891  16.248  0.00  0.00    +0.000 C 
ATOM     18  O   UNL     1      49.389   5.009  16.585  0.00  0.00    +0.000 OA
ATOM     19  N   UNL     1      47.548   5.627  15.419  0.00  0.00    +0.000 N 
ATOM     20  H   UNL     1      46.870   6.346  15.216  0.00  0.00    +0.000 HD
BRANCH  17  28
ATOM     21  C   UNL     1      47.883   7.483  19.216  0.00  0.00    +0.000 A 
ATOM     22  N   UNL     1      47.678   8.343  20.233  0.00  0.00    +0.000 NA
ATOM     23  C   UNL     1      47.999   9.625  20.044  0.00  0.00    +0.000 A 
ATOM     24  N   UNL     1      48.516  10.168  18.945  0.00  0.00    +0.000 NA
ATOM     25  C   UNL     1      48.710   9.276  17.958  0.00  0.00    +0.000 A 
ATOM     26  S   UNL     1      49.371   9.791  16.482  0.00  0.00    +0.000 S 
ATOM     27  C   UNL     1      49.285   8.222  15.838  0.00  0.00    +0.000 A 
ATOM     28  C   UNL     1      48.758   7.280  16.716  0.00  0.00    +0.000 A 
ATOM     29  C   UNL     1      48.427   7.914  17.993  0.00  0.00    +0.000 A 
BRANCH  21  31
ATOM     30  C   UNL     1      47.981   5.700  20.729  0.00  0.00    +0.000 C 
ATOM     31  O   UNL     1      47.602   6.150  19.431  0.00  0.00    +0.000 OA
ENDBRANCH  21  31
ENDBRANCH  17  28
ENDBRANCH   1  19
TORSDOF 8
ENDMDL
MODEL 5
REMARK VINA RESULT:    -7.045      1.943      2.373
REMARK INTER + INTRA:         -11.654
REMARK INTER:                 -10.727
REMARK INTRA:                  -0.927
REMARK UNBOUND:                -1.315
REMARK  Name = 
REMARK  9 active torsions:
REMARK  status: ('A' for Active; 'I' for Inactive)
REMARK    1  A    between atoms: C_1  and  O_2
REMARK    2  A    between atoms: O_2  and  C_3
REMARK    3  A    between atoms: C_10  and  C_11
REMARK    4  A    between atoms: N_13  and  C_14
REMARK    5  A    between atoms: C_14  and  C_15
REMARK    6  A    between atoms: C_18  and  C_19
REMARK    7  A    between atoms: C_19  and  O_20
REMARK    8  A    between atoms: O_20  and  C_21
REMARK    9  A    between atoms: C_21  and  C_22
REMARK                            x       y       z     vdW  Elec       q    Type
REMARK                         _______ _______ _______ _____ _____    ______ ____
ROOT
ATOM      1  C   UNL     1      47.100   8.509  13.610  0.00  0.00    +0.000 C 
ENDROOT
BRANCH   1   2
ATOM      2  C   UNL     1      46.293   7.481  12.860  0.00  0.00    +0.000 A 
ATOM      3  C   UNL     1      46.664   6.129  12.868  0.00  0.00    +0.000 A 
ATOM      4  C   UNL     1      45.916   5.178  12.162  0.00  0.00    +0.000 A 
ATOM      5  C   UNL     1      44.788   5.560  11.423  0.00  0.00    +0.000 A 
ATOM      6  C   UNL     1      44.433   6.915  11.395  0.00  0.00    +0.000 A 
ATOM      7  C   UNL     1      45.180   7.865  12.101  0.00  0.00    +0.000 A 
BRANCH   5   8
ATOM      8  C   UNL     1      43.987   4.539  10.652  0.00  0.00    +0.000 C 
BRANCH   8   9
ATOM      9  O   UNL     1      44.859   3.537  10.135  0.00  0.00    +0.000 OA
BRANCH   9  10
ATOM     10  C   UNL     1      44.574   3.250   8.765  0.00  0.00    +0.000 C 
BRANCH  10  11
ATOM     11  C   UNL     1      45.775   2.634   8.093  0.00  0.00    +0.000 A 
ATOM     12  C   UNL     1      46.002   1.255   8.178  0.00  0.00    +0.000 A 
ATOM     13  C   UNL     1      47.096   0.717   7.515  0.00  0.00    +0.000 A 
ATOM     14  N   UNL     1      47.959   1.442   6.774  0.00  0.00    +0.000 NA
ATOM     15  C   UNL     1      47.719   2.767   6.695  0.00  0.00    +0.000 A 
ATOM     16  C   UNL     1      46.653   3.398   7.320  0.00  0.00    +0.000 A 
ENDBRANCH  10  11
ENDBRANCH   9  10
ENDBRANCH   8   9
ENDBRANCH   5   8
ENDBRANCH   1   2
BRANCH   1  19
ATOM     17  C   UNL     1      48.721   8.139  15.429  0.00  0.00    +0.000 C 
ATOM     18  O   UNL     1      48.088   8.862  16.196  0.00  0.00    +0.000 OA
ATOM     19  N   UNL     1      48.306   7.924  14.146  0.00  0.00    +0.000 N 
ATOM     20  H   UNL     1      48.879   7.390  13.511  0.00  0.00    +0.000 HD
BRANCH  17  28
ATOM     21  C   UNL     1      49.354   5.138  16.994  0.00  0.00    +0.000 A 
ATOM     22  N   UNL     1      49.874   4.059  17.612  0.00  0.00    +0.000 NA
ATOM     23  C   UNL     1      51.196   4.011  17.784  0.00  0.00    +0.000 A 
ATOM     24  N   UNL     1      52.087   4.922  17.403  0.00  0.00    +0.000 NA
ATOM     25  C   UNL     1      51.529   5.978  16.786  0.00  0.00    +0.000 A 
ATOM     26  S   UNL     1      52.519   7.238  16.224  0.00  0.00    +0.000 S 
ATOM     27  C   UNL     1      51.175   8.101  15.643  0.00  0.00    +0.000 A 
ATOM     28  C   UNL     1      49.959   7.462  15.859  0.00  0.00    +0.000 A 
ATOM     29  C   UNL     1      50.177   6.182  16.534  0.00  0.00    +0.000 A 
BRANCH  21  31
ATOM     30  C   UNL     1      47.230   4.784  17.911  0.00  0.00    +0.000 C 
ATOM     31  O   UNL     1      47.994   5.161  16.769  0.00  0.00    +0.000 OA
ENDBRANCH  21  31
ENDBRANCH  17  28
ENDBRANCH   1  19
TORSDOF 8
ENDMDL
MODEL 6
REMARK VINA RESULT:    -6.817      3.374      5.551
REMARK INTER + INTRA:         -11.320
REMARK INTER:                 -10.259
REMARK INTRA:                  -1.061
REMARK UNBOUND:                -1.315
REMARK  Name = 
REMARK  9 active torsions:
REMARK  status: ('A' for Active; 'I' for Inactive)
REMARK    1  A    between atoms: C_1  and  O_2
REMARK    2  A    between atoms: O_2  and  C_3
REMARK    3  A    between atoms: C_10  and  C_11
REMARK    4  A    between atoms: N_13  and  C_14
REMARK    5  A    between atoms: C_14  and  C_15
REMARK    6  A    between atoms: C_18  and  C_19
REMARK    7  A    between atoms: C_19  and  O_20
REMARK    8  A    between atoms: O_20  and  C_21
REMARK    9  A    between atoms: C_21  and  C_22
REMARK                            x       y       z     vdW  Elec       q    Type
REMARK                         _______ _______ _______ _____ _____    ______ ____
ROOT
ATOM      1  C   UNL     1      47.949   6.562  14.218  0.00  0.00    +0.000 C 
ENDROOT
BRANCH   1   2
ATOM      2  C   UNL     1      46.963   5.914  13.279  0.00  0.00    +0.000 A 
ATOM      3  C   UNL     1      46.668   6.491  12.036  0.00  0.00    +0.000 A 
ATOM      4  C   UNL     1      45.744   5.890  11.171  0.00  0.00    +0.000 A 
ATOM      5  C   UNL     1      45.087   4.707  11.535  0.00  0.00    +0.000 A 
ATOM      6  C   UNL     1      45.365   4.145  12.788  0.00  0.00    +0.000 A 
ATOM      7  C   UNL     1      46.288   4.745  13.653  0.00  0.00    +0.000 A 
BRANCH   5   8
ATOM      8  C   UNL     1      44.083   4.064  10.610  0.00  0.00    +0.000 C 
BRANCH   8   9
ATOM      9  O   UNL     1      44.748   3.143   9.748  0.00  0.00    +0.000 OA
BRANCH   9  10
ATOM     10  C   UNL     1      44.948   3.695   8.446  0.00  0.00    +0.000 C 
BRANCH  10  11
ATOM     11  C   UNL     1      45.936   2.864   7.665  0.00  0.00    +0.000 A 
ATOM     12  C   UNL     1      46.547   3.384   6.518  0.00  0.00    +0.000 A 
ATOM     13  C   UNL     1      47.478   2.606   5.847  0.00  0.00    +0.000 A 
ATOM     14  N   UNL     1      47.849   1.370   6.238  0.00  0.00    +0.000 NA
ATOM     15  C   UNL     1      47.257   0.888   7.351  0.00  0.00    +0.000 A 
ATOM     16  C   UNL     1      46.316   1.588   8.090  0.00  0.00    +0.000 A 
ENDBRANCH  10  11
ENDBRANCH   9  10
ENDBRANCH   8   9
ENDBRANCH   5   8
ENDBRANCH   1   2
BRANCH   1  19
ATOM     17  C   UNL     1      50.090   7.759  13.972  0.00  0.00    +0.000 C 
ATOM     18  O   UNL     1      50.492   7.346  15.058  0.00  0.00    +0.000 OA
ATOM     19  N   UNL     1      48.854   7.424  13.495  0.00  0.00    +0.000 N 
ATOM     20  H   UNL     1      48.513   7.834  12.639  0.00  0.00    +0.000 HD
BRANCH  17  28
ATOM     21  C   UNL     1      49.368  10.161  11.612  0.00  0.00    +0.000 A 
ATOM     22  N   UNL     1      49.371  11.101  10.647  0.00  0.00    +0.000 NA
ATOM     23  C   UNL     1      50.550  11.516  10.179  0.00  0.00    +0.000 A 
ATOM     24  N   UNL     1      51.755  11.107  10.567  0.00  0.00    +0.000 NA
ATOM     25  C   UNL     1      51.708  10.174  11.534  0.00  0.00    +0.000 A 
ATOM     26  S   UNL     1      53.155   9.541  12.157  0.00  0.00    +0.000 S 
ATOM     27  C   UNL     1      52.309   8.517  13.216  0.00  0.00    +0.000 A 
ATOM     28  C   UNL     1      50.926   8.629  13.124  0.00  0.00    +0.000 A 
ATOM     29  C   UNL     1      50.569   9.635  12.123  0.00  0.00    +0.000 A 
BRANCH  21  31
ATOM     30  C   UNL     1      47.075  10.612  11.725  0.00  0.00    +0.000 C 
ATOM     31  O   UNL     1      48.152   9.772  12.132  0.00  0.00    +0.000 OA
ENDBRANCH  21  31
ENDBRANCH  17  28
ENDBRANCH   1  19
TORSDOF 8
ENDMDL
MODEL 7
REMARK VINA RESULT:    -6.458      3.433      5.280
REMARK INTER + INTRA:         -10.794
REMARK INTER:                  -9.404
REMARK INTRA:                  -1.390
REMARK UNBOUND:                -1.315
REMARK  Name = 
REMARK  9 active torsions:
REMARK  status: ('A' for Active; 'I' for Inactive)
REMARK    1  A    between atoms: C_1  and  O_2
REMARK    2  A    between atoms: O_2  and  C_3
REMARK    3  A    between atoms: C_10  and  C_11
REMARK    4  A    between atoms: N_13  and  C_14
REMARK    5  A    between atoms: C_14  and  C_15
REMARK    6  A    between atoms: C_18  and  C_19
REMARK    7  A    between atoms: C_19  and  O_20
REMARK    8  A    between atoms: O_20  and  C_21
REMARK    9  A    between atoms: C_21  and  C_22
REMARK                            x       y       z     vdW  Elec       q    Type
REMARK                         _______ _______ _______ _____ _____    ______ ____
ROOT
ATOM      1  C   UNL     1      47.654   3.311  17.251  0.00  0.00    +0.000 C 
ENDROOT
BRANCH   1   2
ATOM      2  C   UNL     1      47.591   4.277  16.094  0.00  0.00    +0.000 A 
ATOM      3  C   UNL     1      48.280   5.497  16.139  0.00  0.00    +0.000 A 
ATOM      4  C   UNL     1      48.212   6.395  15.066  0.00  0.00    +0.000 A 
ATOM      5  C   UNL     1      47.445   6.098  13.931  0.00  0.00    +0.000 A 
ATOM      6  C   UNL     1      46.738   4.889  13.898  0.00  0.00    +0.000 A 
ATOM      7  C   UNL     1      46.805   3.991  14.970  0.00  0.00    +0.000 A 
BRANCH   5   8
ATOM      8  C   UNL     1      47.361   7.068  12.779  0.00  0.00    +0.000 C 
BRANCH   8   9
ATOM      9  O   UNL     1      47.109   6.357  11.570  0.00  0.00    +0.000 OA
BRANCH   9  10
ATOM     10  C   UNL     1      45.889   6.778  10.957  0.00  0.00    +0.000 C 
BRANCH  10  11
ATOM     11  C   UNL     1      44.851   5.687  11.041  0.00  0.00    +0.000 A 
ATOM     12  C   UNL     1      45.034   4.483  10.351  0.00  0.00    +0.000 A 
ATOM     13  C   UNL     1      44.077   3.487  10.481  0.00  0.00    +0.000 A 
ATOM     14  N   UNL     1      42.973   3.599  11.248  0.00  0.00    +0.000 NA
ATOM     15  C   UNL     1      42.818   4.762  11.913  0.00  0.00    +0.000 A 
ATOM     16  C   UNL     1      43.718   5.815  11.849  0.00  0.00    +0.000 A 
ENDBRANCH  10  11
ENDBRANCH   9  10
ENDBRANCH   8   9
ENDBRANCH   5   8
ENDBRANCH   1   2
BRANCH   1  19
ATOM     17  C   UNL     1      49.893   2.312  17.006  0.00  0.00    +0.000 C 
ATOM     18  O   UNL     1      49.556   1.703  15.993  0.00  0.00    +0.000 OA
ATOM     19  N   UNL     1      49.017   3.113  17.681  0.00  0.00    +0.000 N 
ATOM     20  H   UNL     1      49.291   3.543  18.552  0.00  0.00    +0.000 HD
BRANCH  17  28
ATOM     21  C   UNL     1      52.023   4.578  18.484  0.00  0.00    +0.000 A 
ATOM     22  N   UNL     1      53.047   5.249  19.047  0.00  0.00    +0.000 NA
ATOM     23  C   UNL     1      54.182   4.585  19.277  0.00  0.00    +0.000 A 
ATOM     24  N   UNL     1      54.427   3.304  19.015  0.00  0.00    +0.000 NA
ATOM     25  C   UNL     1      53.380   2.670  18.460  0.00  0.00    +0.000 A 
ATOM     26  S   UNL     1      53.511   1.024  18.063  0.00  0.00    +0.000 S 
ATOM     27  C   UNL     1      51.924   0.993  17.457  0.00  0.00    +0.000 A 
ATOM     28  C   UNL     1      51.265   2.214  17.539  0.00  0.00    +0.000 A 
ATOM     29  C   UNL     1      52.137   3.216  18.153  0.00  0.00    +0.000 A 
BRANCH  21  31
ATOM     30  C   UNL     1      50.988   6.668  18.288  0.00  0.00    +0.000 C 
ATOM     31  O   UNL     1      50.834   5.251  18.298  0.00  0.00    +0.000 OA
ENDBRANCH  21  31
ENDBRANCH  17  28
ENDBRANCH   1  19
TORSDOF 8
ENDMDL
MODEL 8
REMARK VINA RESULT:    -6.454      3.567      5.099
REMARK INTER + INTRA:         -10.788
REMARK INTER:                  -9.676
REMARK INTRA:                  -1.112
REMARK UNBOUND:                -1.315
REMARK  Name = 
REMARK  9 active torsions:
REMARK  status: ('A' for Active; 'I' for Inactive)
REMARK    1  A    between atoms: C_1  and  O_2
REMARK    2  A    between atoms: O_2  and  C_3
REMARK    3  A    between atoms: C_10  and  C_11
REMARK    4  A    between atoms: N_13  and  C_14
REMARK    5  A    between atoms: C_14  and  C_15
REMARK    6  A    between atoms: C_18  and  C_19
REMARK    7  A    between atoms: C_19  and  O_20
REMARK    8  A    between atoms: O_20  and  C_21
REMARK    9  A    between atoms: C_21  and  C_22
REMARK                            x       y       z     vdW  Elec       q    Type
REMARK                         _______ _______ _______ _____ _____    ______ ____
ROOT
ATOM      1  C   UNL     1      48.260   6.720  14.327  0.00  0.00    +0.000 C 
ENDROOT
BRANCH   1   2
ATOM      2  C   UNL     1      47.219   6.103  13.427  0.00  0.00    +0.000 A 
ATOM      3  C   UNL     1      46.692   6.818  12.342  0.00  0.00    +0.000 A 
ATOM      4  C   UNL     1      45.719   6.244  11.514  0.00  0.00    +0.000 A 
ATOM      5  C   UNL     1      45.242   4.949  11.761  0.00  0.00    +0.000 A 
ATOM      6  C   UNL     1      45.751   4.246  12.861  0.00  0.00    +0.000 A 
ATOM      7  C   UNL     1      46.724   4.819  13.688  0.00  0.00    +0.000 A 
BRANCH   5   8
ATOM      8  C   UNL     1      44.185   4.333  10.877  0.00  0.00    +0.000 C 
BRANCH   8   9
ATOM      9  O   UNL     1      44.758   3.278  10.110  0.00  0.00    +0.000 OA
BRANCH   9  10
ATOM     10  C   UNL     1      44.779   3.594   8.717  0.00  0.00    +0.000 C 
BRANCH  10  11
ATOM     11  C   UNL     1      45.845   2.795   8.009  0.00  0.00    +0.000 A 
ATOM     12  C   UNL     1      46.782   3.436   7.190  0.00  0.00    +0.000 A 
ATOM     13  C   UNL     1      47.771   2.674   6.585  0.00  0.00    +0.000 A 
ATOM     14  N   UNL     1      47.899   1.341   6.746  0.00  0.00    +0.000 NA
ATOM     15  C   UNL     1      46.993   0.742   7.546  0.00  0.00    +0.000 A 
ATOM     16  C   UNL     1      45.969   1.416   8.195  0.00  0.00    +0.000 A 
ENDBRANCH  10  11
ENDBRANCH   9  10
ENDBRANCH   8   9
ENDBRANCH   5   8
ENDBRANCH   1   2
BRANCH   1  19
ATOM     17  C   UNL     1      49.517   8.585  13.319  0.00  0.00    +0.000 C 
ATOM     18  O   UNL     1      48.716   9.412  13.750  0.00  0.00    +0.000 OA
ATOM     19  N   UNL     1      49.358   7.249  13.553  0.00  0.00    +0.000 N 
ATOM     20  H   UNL     1      49.983   6.582  13.127  0.00  0.00    +0.000 HD
BRANCH  17  28
ATOM     21  C   UNL     1      52.912   8.334  13.838  0.00  0.00    +0.000 A 
ATOM     22  N   UNL     1      54.258   8.394  13.802  0.00  0.00    +0.000 NA
ATOM     23  C   UNL     1      54.830   8.991  12.754  0.00  0.00    +0.000 A 
ATOM     24  N   UNL     1      54.216   9.542  11.712  0.00  0.00    +0.000 NA
ATOM     25  C   UNL     1      52.876   9.456  11.784  0.00  0.00    +0.000 A 
ATOM     26  S   UNL     1      51.926  10.102  10.534  0.00  0.00    +0.000 S 
ATOM     27  C   UNL     1      50.491   9.641  11.318  0.00  0.00    +0.000 A 
ATOM     28  C   UNL     1      50.695   8.995  12.532  0.00  0.00    +0.000 A 
ATOM     29  C   UNL     1      52.128   8.874  12.802  0.00  0.00    +0.000 A 
BRANCH  21  31
ATOM     30  C   UNL     1      52.095   8.505  16.025  0.00  0.00    +0.000 C 
ATOM     31  O   UNL     1      52.323   7.669  14.894  0.00  0.00    +0.000 OA
ENDBRANCH  21  31
ENDBRANCH  17  28
ENDBRANCH   1  19
TORSDOF 8
ENDMDL
MODEL 9
REMARK VINA RESULT:    -6.380      2.485      3.283
REMARK INTER + INTRA:         -10.679
REMARK INTER:                  -9.525
REMARK INTRA:                  -1.154
REMARK UNBOUND:                -1.315
REMARK  Name = 
REMARK  9 active torsions:
REMARK  status: ('A' for Active; 'I' for Inactive)
REMARK    1  A    between atoms: C_1  and  O_2
REMARK    2  A    between atoms: O_2  and  C_3
REMARK    3  A    between atoms: C_10  and  C_11
REMARK    4  A    between atoms: N_13  and  C_14
REMARK    5  A    between atoms: C_14  and  C_15
REMARK    6  A    between atoms: C_18  and  C_19
REMARK    7  A    between atoms: C_19  and  O_20
REMARK    8  A    between atoms: O_20  and  C_21
REMARK    9  A    between atoms: C_21  and  C_22
REMARK                            x       y       z     vdW  Elec       q    Type
REMARK                         _______ _______ _______ _____ _____    ______ ____
ROOT
ATOM      1  C   UNL     1      46.432   8.546  12.627  0.00  0.00    +0.000 C 
ENDROOT
BRANCH   1   2
ATOM      2  C   UNL     1      45.829   7.189  12.363  0.00  0.00    +0.000 A 
ATOM      3  C   UNL     1      46.315   6.047  13.014  0.00  0.00    +0.000 A 
ATOM      4  C   UNL     1      45.758   4.788  12.759  0.00  0.00    +0.000 A 
ATOM      5  C   UNL     1      44.710   4.642  11.839  0.00  0.00    +0.000 A 
ATOM      6  C   UNL     1      44.242   5.780  11.171  0.00  0.00    +0.000 A 
ATOM      7  C   UNL     1      44.799   7.039  11.426  0.00  0.00    +0.000 A 
BRANCH   5   8
ATOM      8  C   UNL     1      44.115   3.284  11.555  0.00  0.00    +0.000 C 
BRANCH   8   9
ATOM      9  O   UNL     1      44.986   2.549  10.699  0.00  0.00    +0.000 OA
BRANCH   9  10
ATOM     10  C   UNL     1      44.469   2.468   9.369  0.00  0.00    +0.000 C 
BRANCH  10  11
ATOM     11  C   UNL     1      45.595   2.424   8.366  0.00  0.00    +0.000 A 
ATOM     12  C   UNL     1      45.994   3.589   7.700  0.00  0.00    +0.000 A 
ATOM     13  C   UNL     1      47.058   3.519   6.812  0.00  0.00    +0.000 A 
ATOM     14  N   UNL     1      47.750   2.391   6.554  0.00  0.00    +0.000 NA
ATOM     15  C   UNL     1      47.358   1.280   7.211  0.00  0.00    +0.000 A 
ATOM     16  C   UNL     1      46.308   1.249   8.118  0.00  0.00    +0.000 A 
ENDBRANCH  10  11
ENDBRANCH   9  10
ENDBRANCH   8   9
ENDBRANCH   5   8
ENDBRANCH   1   2
BRANCH   1  19
ATOM     17  C   UNL     1      48.480   8.803  13.974  0.00  0.00    +0.000 C 
ATOM     18  O   UNL     1      47.846   9.246  14.930  0.00  0.00    +0.000 OA
ATOM     19  N   UNL     1      47.860   8.445  12.811  0.00  0.00    +0.000 N 
ATOM     20  H   UNL     1      48.407   8.156  12.014  0.00  0.00    +0.000 HD
BRANCH  17  28
ATOM     21  C   UNL     1      50.544   6.848  15.917  0.00  0.00    +0.000 A 
ATOM     22  N   UNL     1      51.563   6.230  16.547  0.00  0.00    +0.000 NA
ATOM     23  C   UNL     1      52.808   6.539  16.179  0.00  0.00    +0.000 A 
ATOM     24  N   UNL     1      53.173   7.403  15.235  0.00  0.00    +0.000 NA
ATOM     25  C   UNL     1      52.129   7.993  14.629  0.00  0.00    +0.000 A 
ATOM     26  S   UNL     1      52.407   9.121  13.391  0.00  0.00    +0.000 S 
ATOM     27  C   UNL     1      50.741   9.381  13.185  0.00  0.00    +0.000 A 
ATOM     28  C   UNL     1      49.943   8.629  14.040  0.00  0.00    +0.000 A 
ATOM     29  C   UNL     1      50.779   7.786  14.895  0.00  0.00    +0.000 A 
BRANCH  21  31
ATOM     30  C   UNL     1      48.825   7.064  17.490  0.00  0.00    +0.000 C 
ATOM     31  O   UNL     1      49.259   6.488  16.261  0.00  0.00    +0.000 OA
ENDBRANCH  21  31
ENDBRANCH  17  28
ENDBRANCH   1  19
TORSDOF 8
ENDMDL
