MODEL 1
REMARK VINA RESULT:    -7.671      0.000      0.000
REMARK INTER + INTRA:         -11.470
REMARK INTER:                 -10.586
REMARK INTRA:                  -0.884
REMARK UNBOUND:                -0.884
REMARK  Name = 
REMARK  7 active torsions:
REMARK  status: ('A' for Active; 'I' for Inactive)
REMARK    1  A    between atoms: N_1  and  C_2
REMARK    2  A    between atoms: C_2  and  C_3
REMARK    3  A    between atoms: C_7  and  O_8
REMARK    4  A    between atoms: O_8  and  C_9
REMARK    5  A    between atoms: C_9  and  C_10
REMARK    6  A    between atoms: C_10  and  C_11
REMARK    7  A    between atoms: C_15  and  C_16
REMARK                            x       y       z     vdW  Elec       q    Type
REMARK                         _______ _______ _______ _____ _____    ______ ____
ROOT
ATOM      1  C   UNL     1      43.223   4.201  11.164  0.00  0.00    +0.000 C 
ENDROOT
BRANCH   1   2
ATOM      2  O   UNL     1      43.500   4.482  12.541  0.00  0.00    +0.000 OA
BRANCH   2   7
ATOM      3  C   UNL     1      45.745   7.378  12.534  0.00  0.00    +0.000 A 
ATOM      4  C   UNL     1      46.881   6.856  13.169  0.00  0.00    +0.000 A 
ATOM      5  C   UNL     1      46.910   5.529  13.587  0.00  0.00    +0.000 A 
ATOM      6  C   UNL     1      45.802   4.708  13.386  0.00  0.00    +0.000 A 
ATOM      7  C   UNL     1      44.648   5.207  12.772  0.00  0.00    +0.000 A 
ATOM      8  C   UNL     1      44.628   6.541  12.345  0.00  0.00    +0.000 A 
BRANCH   3   9
ATOM      9  C   UNL     1      45.735   8.819  12.095  0.00  0.00    +0.000 C 
BRANCH   9  10
ATOM     10  N   UNL     1      44.698   9.583  12.786  0.00  0.00    +0.000 NA
ATOM     11  H   UNL     1      43.784   9.208  12.542  0.00  0.00    +0.000 HD
ATOM     12  H   UNL     1      44.720  10.543  12.447  0.00  0.00    +0.000 HD
ENDBRANCH   9  10
ENDBRANCH   3   9
ENDBRANCH   2   7
ENDBRANCH   1   2
BRANCH   1  13
ATOM     13  C   UNL     1      43.856   2.874  10.743  0.00  0.00    +0.000 C 
BRANCH  13  14
ATOM     14  C   UNL     1      44.847   3.078   9.617  0.00  0.00    +0.000 A 
ATOM     15  C   UNL     1      45.108   4.368   9.130  0.00  0.00    +0.000 A 
ATOM     16  C   UNL     1      45.974   4.560   8.053  0.00  0.00    +0.000 A 
ATOM     17  C   UNL     1      46.596   3.467   7.451  0.00  0.00    +0.000 A 
ATOM     18  C   UNL     1      46.359   2.174   7.933  0.00  0.00    +0.000 A 
ATOM     19  C   UNL     1      45.471   1.980   9.003  0.00  0.00    +0.000 A 
BRANCH  18  20
ATOM     20  C   UNL     1      47.059   1.043   7.265  0.00  0.00    +0.000 C 
ATOM     21  N   UNL     1      46.750  -0.221   7.685  0.00  0.00    +0.000 N 
ATOM     22  O   UNL     1      47.912   1.228   6.407  0.00  0.00    +0.000 OA
ATOM     23  H   UNL     1      46.258  -0.399   8.549  0.00  0.00    +0.000 HD
ATOM     24  H   UNL     1      47.334  -0.962   7.319  0.00  0.00    +0.000 HD
ENDBRANCH  18  20
ENDBRANCH  13  14
ENDBRANCH   1  13
TORSDOF 7
ENDMDL
MODEL 2
REMARK VINA RESULT:    -7.477      1.752      6.616
REMARK INTER + INTRA:         -11.202
REMARK INTER:                 -10.342
REMARK INTRA:                  -0.860
REMARK UNBOUND:                -0.884
REMARK  Name = 
REMARK  7 active torsions:
REMARK  status: ('A' for Active; 'I' for Inactive)
REMARK    1  A    between atoms: N_1  and  C_2
REMARK    2  A    between atoms: C_2  and  C_3
REMARK    3  A    between atoms: C_7  and  O_8
REMARK    4  A    between atoms: O_8  and  C_9
REMARK    5  A    between atoms: C_9  and  C_10
REMARK    6  A    between atoms: C_10  and  C_11
REMARK    7  A    between atoms: C_15  and  C_16
REMARK                            x       y       z     vdW  Elec       q    Type
REMARK                         _______ _______ _______ _____ _____    ______ ____
ROOT
ATOM      1  C   UNL     1      43.434   3.373  11.322  0.00  0.00    +0.000 C 
ENDROOT
BRANCH   1   2
ATOM      2  O   UNL     1      43.750   2.430  10.290  0.00  0.00    +0.000 OA
BRANCH   2   7
ATOM      3  C   UNL     1      46.444   2.194   7.818  0.00  0.00    +0.000 A 
ATOM      4  C   UNL     1      46.598   3.535   7.440  0.00  0.00    +0.000 A 
ATOM      5  C   UNL     1      45.816   4.528   8.021  0.00  0.00    +0.000 A 
ATOM      6  C   UNL     1      44.861   4.194   8.980  0.00  0.00    +0.000 A 
ATOM      7  C   UNL     1      44.673   2.862   9.364  0.00  0.00    +0.000 A 
ATOM      8  C   UNL     1      45.471   1.869   8.782  0.00  0.00    +0.000 A 
BRANCH   3   9
ATOM      9  C   UNL     1      47.300   1.136   7.171  0.00  0.00    +0.000 C 
BRANCH   9  10
ATOM     10  N   UNL     1      48.386   1.726   6.393  0.00  0.00    +0.000 NA
ATOM     11  H   UNL     1      49.059   2.154   7.026  0.00  0.00    +0.000 HD
ATOM     12  H   UNL     1      48.006   2.477   5.820  0.00  0.00    +0.000 HD
ENDBRANCH   9  10
ENDBRANCH   3   9
ENDBRANCH   2   7
ENDBRANCH   1   2
BRANCH   1  13
ATOM     13  C   UNL     1      44.414   3.247  12.489  0.00  0.00    +0.000 C 
BRANCH  13  14
ATOM     14  C   UNL     1      45.214   4.520  12.667  0.00  0.00    +0.000 A 
ATOM     15  C   UNL     1      46.484   4.480  13.265  0.00  0.00    +0.000 A 
ATOM     16  C   UNL     1      47.202   5.655  13.487  0.00  0.00    +0.000 A 
ATOM     17  C   UNL     1      46.666   6.886  13.110  0.00  0.00    +0.000 A 
ATOM     18  C   UNL     1      45.408   6.943  12.500  0.00  0.00    +0.000 A 
ATOM     19  C   UNL     1      44.677   5.763  12.295  0.00  0.00    +0.000 A 
BRANCH  18  20
ATOM     20  C   UNL     1      44.887   8.280  12.103  0.00  0.00    +0.000 C 
ATOM     21  N   UNL     1      43.946   8.317  11.112  0.00  0.00    +0.000 N 
ATOM     22  O   UNL     1      45.312   9.313  12.604  0.00  0.00    +0.000 OA
ATOM     23  H   UNL     1      43.766   7.529  10.508  0.00  0.00    +0.000 HD
ATOM     24  H   UNL     1      43.710   9.238  10.764  0.00  0.00    +0.000 HD
ENDBRANCH  18  20
ENDBRANCH  13  14
ENDBRANCH   1  13
TORSDOF 7
ENDMDL
MODEL 3
REMARK VINA RESULT:    -7.448      2.368      6.532
REMARK INTER + INTRA:         -11.162
REMARK INTER:                 -10.568
REMARK INTRA:                  -0.594
REMARK UNBOUND:                -0.884
REMARK  Name = 
REMARK  7 active torsions:
REMARK  status: ('A' for Active; 'I' for Inactive)
REMARK    1  A    between atoms: N_1  and  C_2
REMARK    2  A    between atoms: C_2  and  C_3
REMARK    3  A    between atoms: C_7  and  O_8
REMARK    4  A    between atoms: O_8  and  C_9
REMARK    5  A    between atoms: C_9  and  C_10
REMARK    6  A    between atoms: C_10  and  C_11
REMARK    7  A    between atoms: C_15  and  C_16
REMARK                            x       y       z     vdW  Elec       q    Type
REMARK                         _______ _______ _______ _____ _____    ______ ____
ROOT
ATOM      1  C   UNL     1      43.792   4.699  10.334  0.00  0.00    +0.000 C 
ENDROOT
BRANCH   1   2
ATOM      2  O   UNL     1      44.729   4.868   9.262  0.00  0.00    +0.000 OA
BRANCH   2   7
ATOM      3  C   UNL     1      46.647   2.715   7.003  0.00  0.00    +0.000 A 
ATOM      4  C   UNL     1      46.398   1.446   7.544  0.00  0.00    +0.000 A 
ATOM      5  C   UNL     1      45.575   1.300   8.656  0.00  0.00    +0.000 A 
ATOM      6  C   UNL     1      44.996   2.421   9.249  0.00  0.00    +0.000 A 
ATOM      7  C   UNL     1      45.241   3.702   8.741  0.00  0.00    +0.000 A 
ATOM      8  C   UNL     1      46.064   3.840   7.616  0.00  0.00    +0.000 A 
BRANCH   3   9
ATOM      9  C   UNL     1      47.547   2.847   5.802  0.00  0.00    +0.000 C 
BRANCH   9  10
ATOM     10  N   UNL     1      48.532   1.769   5.747  0.00  0.00    +0.000 NA
ATOM     11  H   UNL     1      49.452   2.162   5.562  0.00  0.00    +0.000 HD
ATOM     12  H   UNL     1      48.308   1.163   4.960  0.00  0.00    +0.000 HD
ENDBRANCH   9  10
ENDBRANCH   3   9
ENDBRANCH   2   7
ENDBRANCH   1   2
BRANCH   1  13
ATOM     13  C   UNL     1      43.843   5.891  11.291  0.00  0.00    +0.000 C 
BRANCH  13  14
ATOM     14  C   UNL     1      45.187   5.974  11.983  0.00  0.00    +0.000 A 
ATOM     15  C   UNL     1      46.160   6.879  11.531  0.00  0.00    +0.000 A 
ATOM     16  C   UNL     1      47.422   6.921  12.124  0.00  0.00    +0.000 A 
ATOM     17  C   UNL     1      47.728   6.064  13.181  0.00  0.00    +0.000 A 
ATOM     18  C   UNL     1      46.765   5.165  13.654  0.00  0.00    +0.000 A 
ATOM     19  C   UNL     1      45.503   5.109  13.043  0.00  0.00    +0.000 A 
BRANCH  18  20
ATOM     20  C   UNL     1      47.138   4.282  14.793  0.00  0.00    +0.000 C 
ATOM     21  N   UNL     1      47.193   4.852  16.035  0.00  0.00    +0.000 N 
ATOM     22  O   UNL     1      47.429   3.104  14.630  0.00  0.00    +0.000 OA
ATOM     23  H   UNL     1      47.215   5.852  16.170  0.00  0.00    +0.000 HD
ATOM     24  H   UNL     1      47.581   4.272  16.768  0.00  0.00    +0.000 HD
ENDBRANCH  18  20
ENDBRANCH  13  14
ENDBRANCH   1  13
TORSDOF 7
ENDMDL
MODEL 4
REMARK VINA RESULT:    -7.365      2.230      6.675
REMARK INTER + INTRA:         -11.047
REMARK INTER:                 -10.366
REMARK INTRA:                  -0.681
REMARK UNBOUND:                -0.884
REMARK  Name = 
REMARK  7 active torsions:
REMARK  status: ('A' for Active; 'I' for Inactive)
REMARK    1  A    between atoms: N_1  and  C_2
REMARK    2  A    between atoms: C_2  and  C_3
REMARK    3  A    between atoms: C_7  and  O_8
REMARK    4  A    between atoms: O_8  and  C_9
REMARK    5  A    between atoms: C_9  and  C_10
REMARK    6  A    between atoms: C_10  and  C_11
REMARK    7  A    between atoms: C_15  and  C_16
REMARK                            x       y       z     vdW  Elec       q    Type
REMARK                         _______ _______ _______ _____ _____    ______ ____
ROOT
ATOM      1  C   UNL     1      43.702   3.402  11.384  0.00  0.00    +0.000 C 
ENDROOT
BRANCH   1   2
ATOM      2  O   UNL     1      43.753   2.507  10.266  0.00  0.00    +0.000 OA
BRANCH   2   7
ATOM      3  C   UNL     1      46.414   1.959   7.808  0.00  0.00    +0.000 A 
ATOM      4  C   UNL     1      46.618   3.258   7.320  0.00  0.00    +0.000 A 
ATOM      5  C   UNL     1      45.880   4.326   7.820  0.00  0.00    +0.000 A 
ATOM      6  C   UNL     1      44.921   4.111   8.809  0.00  0.00    +0.000 A 
ATOM      7  C   UNL     1      44.684   2.824   9.303  0.00  0.00    +0.000 A 
ATOM      8  C   UNL     1      45.437   1.754   8.801  0.00  0.00    +0.000 A 
BRANCH   3   9
ATOM      9  C   UNL     1      47.222   0.818   7.247  0.00  0.00    +0.000 C 
BRANCH   9  10
ATOM     10  N   UNL     1      46.775  -0.467   7.778  0.00  0.00    +0.000 NA
ATOM     11  H   UNL     1      47.569  -1.100   7.841  0.00  0.00    +0.000 HD
ATOM     12  H   UNL     1      46.121  -0.884   7.117  0.00  0.00    +0.000 HD
ENDBRANCH   9  10
ENDBRANCH   3   9
ENDBRANCH   2   7
ENDBRANCH   1   2
BRANCH   1  13
ATOM     13  C   UNL     1      44.954   3.257  12.251  0.00  0.00    +0.000 C 
BRANCH  13  14
ATOM     14  C   UNL     1      45.607   4.602  12.489  0.00  0.00    +0.000 A 
ATOM     15  C   UNL     1      45.273   5.703  11.685  0.00  0.00    +0.000 A 
ATOM     16  C   UNL     1      45.915   6.930  11.858  0.00  0.00    +0.000 A 
ATOM     17  C   UNL     1      46.894   7.076  12.840  0.00  0.00    +0.000 A 
ATOM     18  C   UNL     1      47.230   5.993  13.660  0.00  0.00    +0.000 A 
ATOM     19  C   UNL     1      46.600   4.754  13.472  0.00  0.00    +0.000 A 
BRANCH  18  20
ATOM     20  C   UNL     1      48.271   6.206  14.702  0.00  0.00    +0.000 C 
ATOM     21  N   UNL     1      47.945   5.882  15.990  0.00  0.00    +0.000 N 
ATOM     22  O   UNL     1      49.362   6.695  14.436  0.00  0.00    +0.000 OA
ATOM     23  H   UNL     1      46.991   5.726  16.283  0.00  0.00    +0.000 HD
ATOM     24  H   UNL     1      48.612   6.162  16.697  0.00  0.00    +0.000 HD
ENDBRANCH  18  20
ENDBRANCH  13  14
ENDBRANCH   1  13
TORSDOF 7
ENDMDL
MODEL 5
REMARK VINA RESULT:    -7.312      1.380      1.939
REMARK INTER + INTRA:         -10.974
REMARK INTER:                 -10.085
REMARK INTRA:                  -0.889
REMARK UNBOUND:                -0.884
REMARK  Name = 
REMARK  7 active torsions:
REMARK  status: ('A' for Active; 'I' for Inactive)
REMARK    1  A    between atoms: N_1  and  C_2
REMARK    2  A    between atoms: C_2  and  C_3
REMARK    3  A    between atoms: C_7  and  O_8
REMARK    4  A    between atoms: O_8  and  C_9
REMARK    5  A    between atoms: C_9  and  C_10
REMARK    6  A    between atoms: C_10  and  C_11
REMARK    7  A    between atoms: C_15  and  C_16
REMARK                            x       y       z     vdW  Elec       q    Type
REMARK                         _______ _______ _______ _____ _____    ______ ____
ROOT
ATOM      1  C   UNL     1      44.506   2.814  12.141  0.00  0.00    +0.000 C 
ENDROOT
BRANCH   1   2
ATOM      2  O   UNL     1      44.037   3.894  12.958  0.00  0.00    +0.000 OA
BRANCH   2   7
ATOM      3  C   UNL     1      46.771   6.321  13.202  0.00  0.00    +0.000 A 
ATOM      4  C   UNL     1      46.226   7.426  12.532  0.00  0.00    +0.000 A 
ATOM      5  C   UNL     1      44.938   7.373  12.010  0.00  0.00    +0.000 A 
ATOM      6  C   UNL     1      44.178   6.212  12.142  0.00  0.00    +0.000 A 
ATOM      7  C   UNL     1      44.701   5.088  12.789  0.00  0.00    +0.000 A 
ATOM      8  C   UNL     1      45.996   5.152  13.321  0.00  0.00    +0.000 A 
BRANCH   3   9
ATOM      9  C   UNL     1      48.170   6.401  13.753  0.00  0.00    +0.000 C 
BRANCH   9  10
ATOM     10  N   UNL     1      48.208   6.056  15.173  0.00  0.00    +0.000 NA
ATOM     11  H   UNL     1      47.558   5.294  15.351  0.00  0.00    +0.000 HD
ATOM     12  H   UNL     1      47.877   6.855  15.711  0.00  0.00    +0.000 HD
ENDBRANCH   9  10
ENDBRANCH   3   9
ENDBRANCH   2   7
ENDBRANCH   1   2
BRANCH   1  13
ATOM     13  C   UNL     1      43.795   2.811  10.787  0.00  0.00    +0.000 C 
BRANCH  13  14
ATOM     14  C   UNL     1      44.780   3.027   9.657  0.00  0.00    +0.000 A 
ATOM     15  C   UNL     1      44.999   4.316   9.147  0.00  0.00    +0.000 A 
ATOM     16  C   UNL     1      45.858   4.516   8.066  0.00  0.00    +0.000 A 
ATOM     17  C   UNL     1      46.515   3.433   7.483  0.00  0.00    +0.000 A 
ATOM     18  C   UNL     1      46.319   2.142   7.988  0.00  0.00    +0.000 A 
ATOM     19  C   UNL     1      45.439   1.939   9.061  0.00  0.00    +0.000 A 
BRANCH  18  20
ATOM     20  C   UNL     1      47.055   1.023   7.339  0.00  0.00    +0.000 C 
ATOM     21  N   UNL     1      46.680  -0.249   7.671  0.00  0.00    +0.000 N 
ATOM     22  O   UNL     1      47.991   1.222   6.575  0.00  0.00    +0.000 OA
ATOM     23  H   UNL     1      46.103  -0.450   8.475  0.00  0.00    +0.000 HD
ATOM     24  H   UNL     1      47.280  -0.989   7.329  0.00  0.00    +0.000 HD
ENDBRANCH  18  20
ENDBRANCH  13  14
ENDBRANCH   1  13
TORSDOF 7
ENDMDL
MODEL 6
REMARK VINA RESULT:    -6.685      2.395      6.739
REMARK INTER + INTRA:         -10.109
REMARK INTER:                  -9.545
REMARK INTRA:                  -0.564
REMARK UNBOUND:                -0.884
REMARK  Name = 
REMARK  7 active torsions:
REMARK  status: ('A' for Active; 'I' for Inactive)
REMARK    1  A    between atoms: N_1  and  C_2
REMARK    2  A    between atoms: C_2  and  C_3
REMARK    3  A    between atoms: C_7  and  O_8
REMARK    4  A    between atoms: O_8  and  C_9
REMARK    5  A    between atoms: C_9  and  C_10
REMARK    6  A    between atoms: C_10  and  C_11
REMARK    7  A    between atoms: C_15  and  C_16
REMARK                            x       y       z     vdW  Elec       q    Type
REMARK                         _______ _______ _______ _____ _____    ______ ____
ROOT
ATOM      1  C   UNL     1      43.965   4.253  10.338  0.00  0.00    +0.000 C 
ENDROOT
BRANCH   1   2
ATOM      2  O   UNL     1      44.243   4.310   8.933  0.00  0.00    +0.000 OA
BRANCH   2   7
ATOM      3  C   UNL     1      46.597   2.600   6.706  0.00  0.00    +0.000 A 
ATOM      4  C   UNL     1      46.699   1.342   7.316  0.00  0.00    +0.000 A 
ATOM      5  C   UNL     1      45.969   1.051   8.465  0.00  0.00    +0.000 A 
ATOM      6  C   UNL     1      45.135   2.017   9.025  0.00  0.00    +0.000 A 
ATOM      7  C   UNL     1      45.027   3.287   8.449  0.00  0.00    +0.000 A 
ATOM      8  C   UNL     1      45.757   3.570   7.287  0.00  0.00    +0.000 A 
BRANCH   3   9
ATOM      9  C   UNL     1      47.401   2.893   5.466  0.00  0.00    +0.000 C 
BRANCH   9  10
ATOM     10  N   UNL     1      48.527   1.972   5.327  0.00  0.00    +0.000 NA
ATOM     11  H   UNL     1      48.850   1.693   6.250  0.00  0.00    +0.000 HD
ATOM     12  H   UNL     1      49.299   2.464   4.882  0.00  0.00    +0.000 HD
ENDBRANCH   9  10
ENDBRANCH   3   9
ENDBRANCH   2   7
ENDBRANCH   1   2
BRANCH   1  13
ATOM     13  C   UNL     1      44.127   5.632  10.978  0.00  0.00    +0.000 C 
BRANCH  13  14
ATOM     14  C   UNL     1      45.405   5.708  11.786  0.00  0.00    +0.000 A 
ATOM     15  C   UNL     1      45.615   4.833  12.863  0.00  0.00    +0.000 A 
ATOM     16  C   UNL     1      46.762   4.936  13.650  0.00  0.00    +0.000 A 
ATOM     17  C   UNL     1      47.719   5.910  13.370  0.00  0.00    +0.000 A 
ATOM     18  C   UNL     1      47.533   6.783  12.291  0.00  0.00    +0.000 A 
ATOM     19  C   UNL     1      46.369   6.693  11.513  0.00  0.00    +0.000 A 
BRANCH  18  20
ATOM     20  C   UNL     1      48.591   7.796  12.026  0.00  0.00    +0.000 C 
ATOM     21  N   UNL     1      48.194   9.097  11.890  0.00  0.00    +0.000 N 
ATOM     22  O   UNL     1      49.766   7.481  11.886  0.00  0.00    +0.000 OA
ATOM     23  H   UNL     1      47.229   9.354  11.741  0.00  0.00    +0.000 HD
ATOM     24  H   UNL     1      48.905   9.744  11.573  0.00  0.00    +0.000 HD
ENDBRANCH  18  20
ENDBRANCH  13  14
ENDBRANCH   1  13
TORSDOF 7
ENDMDL
MODEL 7
REMARK VINA RESULT:    -6.425      5.565      8.030
REMARK INTER + INTRA:          -9.750
REMARK INTER:                  -9.365
REMARK INTRA:                  -0.385
REMARK UNBOUND:                -0.884
REMARK  Name = 
REMARK  7 active torsions:
REMARK  status: ('A' for Active; 'I' for Inactive)
REMARK    1  A    between atoms: N_1  and  C_2
REMARK    2  A    between atoms: C_2  and  C_3
REMARK    3  A    between atoms: C_7  and  O_8
REMARK    4  A    between atoms: O_8  and  C_9
REMARK    5  A    between atoms: C_9  and  C_10
REMARK    6  A    between atoms: C_10  and  C_11
REMARK    7  A    between atoms: C_15  and  C_16
REMARK                            x       y       z     vdW  Elec       q    Type
REMARK                         _______ _______ _______ _____ _____    ______ ____
ROOT
ATOM      1  C   UNL     1      47.316   4.195  15.649  0.00  0.00    +0.000 C 
ENDROOT
BRANCH   1   2
ATOM      2  O   UNL     1      47.183   3.432  14.444  0.00  0.00    +0.000 OA
BRANCH   2   7
ATOM      3  C   UNL     1      44.918   3.835  11.592  0.00  0.00    +0.000 A 
ATOM      4  C   UNL     1      45.091   5.192  11.285  0.00  0.00    +0.000 A 
ATOM      5  C   UNL     1      45.977   5.976  12.017  0.00  0.00    +0.000 A 
ATOM      6  C   UNL     1      46.696   5.418  13.073  0.00  0.00    +0.000 A 
ATOM      7  C   UNL     1      46.531   4.071  13.414  0.00  0.00    +0.000 A 
ATOM      8  C   UNL     1      45.645   3.285  12.666  0.00  0.00    +0.000 A 
BRANCH   3   9
ATOM      9  C   UNL     1      43.949   3.007  10.788  0.00  0.00    +0.000 C 
BRANCH   9  10
ATOM     10  N   UNL     1      43.089   2.200  11.651  0.00  0.00    +0.000 NA
ATOM     11  H   UNL     1      42.118   2.461  11.497  0.00  0.00    +0.000 HD
ATOM     12  H   UNL     1      43.301   2.422  12.622  0.00  0.00    +0.000 HD
ENDBRANCH   9  10
ENDBRANCH   3   9
ENDBRANCH   2   7
ENDBRANCH   1   2
BRANCH   1  13
ATOM     13  C   UNL     1      47.667   3.289  16.829  0.00  0.00    +0.000 C 
BRANCH  13  14
ATOM     14  C   UNL     1      49.134   3.405  17.185  0.00  0.00    +0.000 A 
ATOM     15  C   UNL     1      49.713   4.666  17.393  0.00  0.00    +0.000 A 
ATOM     16  C   UNL     1      51.077   4.786  17.662  0.00  0.00    +0.000 A 
ATOM     17  C   UNL     1      51.880   3.649  17.732  0.00  0.00    +0.000 A 
ATOM     18  C   UNL     1      51.317   2.382  17.542  0.00  0.00    +0.000 A 
ATOM     19  C   UNL     1      49.949   2.263  17.251  0.00  0.00    +0.000 A 
BRANCH  18  20
ATOM     20  C   UNL     1      52.214   1.199  17.642  0.00  0.00    +0.000 C 
ATOM     21  N   UNL     1      51.687   0.056  18.177  0.00  0.00    +0.000 N 
ATOM     22  O   UNL     1      53.391   1.250  17.307  0.00  0.00    +0.000 OA
ATOM     23  H   UNL     1      50.820   0.051  18.693  0.00  0.00    +0.000 HD
ATOM     24  H   UNL     1      52.348  -0.688  18.363  0.00  0.00    +0.000 HD
ENDBRANCH  18  20
ENDBRANCH  13  14
ENDBRANCH   1  13
TORSDOF 7
ENDMDL
MODEL 8
REMARK VINA RESULT:    -6.209      2.232      7.356
REMARK INTER + INTRA:          -9.452
REMARK INTER:                  -8.949
REMARK INTRA:                  -0.502
REMARK UNBOUND:                -0.884
REMARK  Name = 
REMARK  7 active torsions:
REMARK  status: ('A' for Active; 'I' for Inactive)
REMARK    1  A    between atoms: N_1  and  C_2
REMARK    2  A    between atoms: C_2  and  C_3
REMARK    3  A    between atoms: C_7  and  O_8
REMARK    4  A    between atoms: O_8  and  C_9
REMARK    5  A    between atoms: C_9  and  C_10
REMARK    6  A    between atoms: C_10  and  C_11
REMARK    7  A    between atoms: C_15  and  C_16
REMARK                            x       y       z     vdW  Elec       q    Type
REMARK                         _______ _______ _______ _____ _____    ______ ____
ROOT
ATOM      1  C   UNL     1      44.847   5.233   9.540  0.00  0.00    +0.000 C 
ENDROOT
BRANCH   1   2
ATOM      2  O   UNL     1      44.172   4.084   9.013  0.00  0.00    +0.000 OA
BRANCH   2   7
ATOM      3  C   UNL     1      46.568   2.611   6.665  0.00  0.00    +0.000 A 
ATOM      4  C   UNL     1      46.726   1.323   7.196  0.00  0.00    +0.000 A 
ATOM      5  C   UNL     1      46.021   0.933   8.330  0.00  0.00    +0.000 A 
ATOM      6  C   UNL     1      45.155   1.828   8.956  0.00  0.00    +0.000 A 
ATOM      7  C   UNL     1      44.991   3.125   8.460  0.00  0.00    +0.000 A 
ATOM      8  C   UNL     1      45.696   3.508   7.312  0.00  0.00    +0.000 A 
BRANCH   3   9
ATOM      9  C   UNL     1      47.346   3.012   5.439  0.00  0.00    +0.000 C 
BRANCH   9  10
ATOM     10  N   UNL     1      48.510   2.151   5.238  0.00  0.00    +0.000 NA
ATOM     11  H   UNL     1      48.210   1.179   5.215  0.00  0.00    +0.000 HD
ATOM     12  H   UNL     1      49.129   2.247   6.041  0.00  0.00    +0.000 HD
ENDBRANCH   9  10
ENDBRANCH   3   9
ENDBRANCH   2   7
ENDBRANCH   1   2
BRANCH   1  13
ATOM     13  C   UNL     1      45.429   4.935  10.922  0.00  0.00    +0.000 C 
BRANCH  13  14
ATOM     14  C   UNL     1      45.775   6.215  11.653  0.00  0.00    +0.000 A 
ATOM     15  C   UNL     1      46.798   6.225  12.614  0.00  0.00    +0.000 A 
ATOM     16  C   UNL     1      47.083   7.384  13.336  0.00  0.00    +0.000 A 
ATOM     17  C   UNL     1      46.356   8.551  13.104  0.00  0.00    +0.000 A 
ATOM     18  C   UNL     1      45.342   8.563  12.140  0.00  0.00    +0.000 A 
ATOM     19  C   UNL     1      45.041   7.391  11.429  0.00  0.00    +0.000 A 
BRANCH  18  20
ATOM     20  C   UNL     1      44.605   9.837  11.921  0.00  0.00    +0.000 C 
ATOM     21  N   UNL     1      43.343   9.750  11.402  0.00  0.00    +0.000 N 
ATOM     22  O   UNL     1      45.116  10.926  12.148  0.00  0.00    +0.000 OA
ATOM     23  H   UNL     1      42.994   8.908  10.967  0.00  0.00    +0.000 HD
ATOM     24  H   UNL     1      42.916  10.627  11.132  0.00  0.00    +0.000 HD
ENDBRANCH  18  20
ENDBRANCH  13  14
ENDBRANCH   1  13
TORSDOF 7
ENDMDL
MODEL 9
REMARK VINA RESULT:    -6.165      2.099      3.079
REMARK INTER + INTRA:          -9.392
REMARK INTER:                  -8.926
REMARK INTRA:                  -0.466
REMARK UNBOUND:                -0.884
REMARK  Name = 
REMARK  7 active torsions:
REMARK  status: ('A' for Active; 'I' for Inactive)
REMARK    1  A    between atoms: N_1  and  C_2
REMARK    2  A    between atoms: C_2  and  C_3
REMARK    3  A    between atoms: C_7  and  O_8
REMARK    4  A    between atoms: O_8  and  C_9
REMARK    5  A    between atoms: C_9  and  C_10
REMARK    6  A    between atoms: C_10  and  C_11
REMARK    7  A    between atoms: C_15  and  C_16
REMARK                            x       y       z     vdW  Elec       q    Type
REMARK                         _______ _______ _______ _____ _____    ______ ____
ROOT
ATOM      1  C   UNL     1      45.306   5.418  11.308  0.00  0.00    +0.000 C 
ENDROOT
BRANCH   1   2
ATOM      2  O   UNL     1      44.797   6.577  11.980  0.00  0.00    +0.000 OA
BRANCH   2   7
ATOM      3  C   UNL     1      47.981   8.386  12.084  0.00  0.00    +0.000 A 
ATOM      4  C   UNL     1      47.548   9.720  12.060  0.00  0.00    +0.000 A 
ATOM      5  C   UNL     1      46.190  10.022  12.026  0.00  0.00    +0.000 A 
ATOM      6  C   UNL     1      45.246   8.997  12.006  0.00  0.00    +0.000 A 
ATOM      7  C   UNL     1      45.649   7.657  12.011  0.00  0.00    +0.000 A 
ATOM      8  C   UNL     1      47.017   7.360  12.055  0.00  0.00    +0.000 A 
BRANCH   3   9
ATOM      9  C   UNL     1      49.457   8.083  12.115  0.00  0.00    +0.000 C 
BRANCH   9  10
ATOM     10  N   UNL     1      49.726   6.791  12.741  0.00  0.00    +0.000 NA
ATOM     11  H   UNL     1      50.196   6.940  13.631  0.00  0.00    +0.000 HD
ATOM     12  H   UNL     1      50.373   6.271  12.151  0.00  0.00    +0.000 HD
ENDBRANCH   9  10
ENDBRANCH   3   9
ENDBRANCH   2   7
ENDBRANCH   1   2
BRANCH   1  13
ATOM     13  C   UNL     1      45.023   5.493   9.807  0.00  0.00    +0.000 C 
BRANCH  13  14
ATOM     14  C   UNL     1      45.313   4.168   9.133  0.00  0.00    +0.000 A 
ATOM     15  C   UNL     1      44.806   2.975   9.671  0.00  0.00    +0.000 A 
ATOM     16  C   UNL     1      45.119   1.745   9.091  0.00  0.00    +0.000 A 
ATOM     17  C   UNL     1      45.936   1.689   7.964  0.00  0.00    +0.000 A 
ATOM     18  C   UNL     1      46.439   2.870   7.405  0.00  0.00    +0.000 A 
ATOM     19  C   UNL     1      46.142   4.105   8.001  0.00  0.00    +0.000 A 
BRANCH  18  20
ATOM     20  C   UNL     1      47.295   2.757   6.193  0.00  0.00    +0.000 C 
ATOM     21  N   UNL     1      48.626   2.510   6.386  0.00  0.00    +0.000 N 
ATOM     22  O   UNL     1      46.845   2.924   5.066  0.00  0.00    +0.000 OA
ATOM     23  H   UNL     1      49.072   2.624   7.284  0.00  0.00    +0.000 HD
ATOM     24  H   UNL     1      49.210   2.575   5.562  0.00  0.00    +0.000 HD
ENDBRANCH  18  20
ENDBRANCH  13  14
ENDBRANCH   1  13
TORSDOF 7
ENDMDL
