MODEL 1
REMARK VINA RESULT:    -8.007      0.000      0.000
REMARK INTER + INTRA:         -12.095
REMARK INTER:                 -11.283
REMARK INTRA:                  -0.812
REMARK UNBOUND:                -0.812
REMARK  Name = 
REMARK  7 active torsions:
REMARK  status: ('A' for Active; 'I' for Inactive)
REMARK    1  A    between atoms: C_2  and  C_3
REMARK    2  A    between atoms: C_7  and  C_8
REMARK    3  A    between atoms: N_10  and  C_11
REMARK    4  A    between atoms: C_11  and  C_12
REMARK    5  A    between atoms: C_15  and  C_16
REMARK    6  A    between atoms: C_16  and  N_17
REMARK    7  A    between atoms: C_18  and  C_20
REMARK                            x       y       z     vdW  Elec       q    Type
REMARK                         _______ _______ _______ _____ _____    ______ ____
ROOT
ATOM      1  C   UNL     1      44.515   5.677  11.107  0.00  0.00    +0.000 A 
ATOM      2  C   UNL     1      45.672   5.108  11.657  0.00  0.00    +0.000 A 
ATOM      3  C   UNL     1      46.542   5.876  12.438  0.00  0.00    +0.000 A 
ATOM      4  C   UNL     1      46.287   7.234  12.665  0.00  0.00    +0.000 A 
ATOM      5  C   UNL     1      45.140   7.798  12.101  0.00  0.00    +0.000 A 
ATOM      6  F   UNL     1      44.866   9.095  12.301  0.00  0.00    +0.000 F 
ATOM      7  C   UNL     1      44.264   7.038  11.326  0.00  0.00    +0.000 A 
ENDROOT
BRANCH   1   8
ATOM      8  C   UNL     1      43.563   4.836  10.298  0.00  0.00    +0.000 C 
BRANCH   8  11
ATOM      9  C   UNL     1      44.492   2.863   9.199  0.00  0.00    +0.000 C 
ATOM     10  O   UNL     1      44.304   2.169  10.191  0.00  0.00    +0.000 OA
ATOM     11  N   UNL     1      44.215   4.207   9.173  0.00  0.00    +0.000 N 
ATOM     12  H   UNL     1      44.491   4.789   8.394  0.00  0.00    +0.000 HD
BRANCH   9  17
ATOM     13  C   UNL     1      45.669   3.396   6.996  0.00  0.00    +0.000 C 
ATOM     14  C   UNL     1      46.616   2.631   6.058  0.00  0.00    +0.000 C 
ATOM     15  C   UNL     1      47.118   1.420   6.845  0.00  0.00    +0.000 C 
ATOM     16  C   UNL     1      46.389   1.432   8.183  0.00  0.00    +0.000 C 
ATOM     17  C   UNL     1      45.157   2.303   7.949  0.00  0.00    +0.000 C 
BRANCH  13  19
ATOM     18  N   UNL     1      46.991   5.299   8.256  0.00  0.00    +0.000 NA
ATOM     19  C   UNL     1      46.418   4.470   7.679  0.00  0.00    +0.000 C 
ENDBRANCH  13  19
ENDBRANCH   9  17
ENDBRANCH   8  11
ENDBRANCH   1   8
BRANCH   4  20
ATOM     20  C   UNL     1      47.212   8.051  13.519  0.00  0.00    +0.000 C 
BRANCH  20  21
ATOM     21  N   UNL     1      47.631   7.338  14.700  0.00  0.00    +0.000 N 
ATOM     22  C   UNL     1      48.897   6.837  14.860  0.00  0.00    +0.000 C 
ATOM     23  O   UNL     1      49.768   6.967  14.004  0.00  0.00    +0.000 OA
ATOM     24  H   UNL     1      46.894   7.046  15.334  0.00  0.00    +0.000 HD
BRANCH  22  25
ATOM     25  C   UNL     1      49.186   6.199  16.152  0.00  0.00    +0.000 A 
ATOM     26  C   UNL     1      50.189   6.711  16.964  0.00  0.00    +0.000 A 
ATOM     27  S   UNL     1      50.355   5.888  18.449  0.00  0.00    +0.000 S 
ATOM     28  C   UNL     1      49.122   4.789  18.041  0.00  0.00    +0.000 A 
ATOM     29  N   UNL     1      48.766   3.790  18.892  0.00  0.00    +0.000 NA
ATOM     30  C   UNL     1      47.839   3.011  18.441  0.00  0.00    +0.000 A 
ATOM     31  N   UNL     1      47.233   3.144  17.218  0.00  0.00    +0.000 N 
ATOM     32  C   UNL     1      47.529   4.166  16.347  0.00  0.00    +0.000 A 
ATOM     33  O   UNL     1      46.911   4.305  15.297  0.00  0.00    +0.000 OA
ATOM     34  C   UNL     1      48.580   5.057  16.796  0.00  0.00    +0.000 A 
ATOM     35  H   UNL     1      46.500   2.512  16.931  0.00  0.00    +0.000 HD
ENDBRANCH  22  25
ENDBRANCH  20  21
ENDBRANCH   4  20
TORSDOF 7
ENDMDL
MODEL 2
REMARK VINA RESULT:    -7.429      5.104      9.774
REMARK INTER + INTRA:         -11.281
REMARK INTER:                 -10.316
REMARK INTRA:                  -0.965
REMARK UNBOUND:                -0.812
REMARK  Name = 
REMARK  7 active torsions:
REMARK  status: ('A' for Active; 'I' for Inactive)
REMARK    1  A    between atoms: C_2  and  C_3
REMARK    2  A    between atoms: C_7  and  C_8
REMARK    3  A    between atoms: N_10  and  C_11
REMARK    4  A    between atoms: C_11  and  C_12
REMARK    5  A    between atoms: C_15  and  C_16
REMARK    6  A    between atoms: C_16  and  N_17
REMARK    7  A    between atoms: C_18  and  C_20
REMARK                            x       y       z     vdW  Elec       q    Type
REMARK                         _______ _______ _______ _____ _____    ______ ____
ROOT
ATOM      1  C   UNL     1      51.496   3.203  18.031  0.00  0.00    +0.000 A 
ATOM      2  C   UNL     1      50.918   2.155  17.300  0.00  0.00    +0.000 A 
ATOM      3  C   UNL     1      49.564   2.192  16.951  0.00  0.00    +0.000 A 
ATOM      4  C   UNL     1      48.754   3.263  17.345  0.00  0.00    +0.000 A 
ATOM      5  C   UNL     1      49.333   4.297  18.086  0.00  0.00    +0.000 A 
ATOM      6  F   UNL     1      48.585   5.338  18.477  0.00  0.00    +0.000 F 
ATOM      7  C   UNL     1      50.684   4.271  18.433  0.00  0.00    +0.000 A 
ENDROOT
BRANCH   1   8
ATOM      8  C   UNL     1      52.962   3.175  18.372  0.00  0.00    +0.000 C 
BRANCH   8  11
ATOM      9  C   UNL     1      54.396   1.199  18.429  0.00  0.00    +0.000 C 
ATOM     10  O   UNL     1      54.587   1.320  19.634  0.00  0.00    +0.000 OA
ATOM     11  N   UNL     1      53.656   2.100  17.703  0.00  0.00    +0.000 N 
ATOM     12  H   UNL     1      53.612   2.056  16.695  0.00  0.00    +0.000 HD
BRANCH   9  17
ATOM     13  C   UNL     1      55.117  -1.249  18.370  0.00  0.00    +0.000 C 
ATOM     14  C   UNL     1      55.444  -2.259  17.258  0.00  0.00    +0.000 C 
ATOM     15  C   UNL     1      54.921  -1.651  15.956  0.00  0.00    +0.000 C 
ATOM     16  C   UNL     1      54.392  -0.264  16.300  0.00  0.00    +0.000 C 
ATOM     17  C   UNL     1      55.063   0.093  17.623  0.00  0.00    +0.000 C 
BRANCH  13  19
ATOM     18  N   UNL     1      52.851  -1.951  19.524  0.00  0.00    +0.000 NA
ATOM     19  C   UNL     1      53.837  -1.621  19.008  0.00  0.00    +0.000 C 
ENDBRANCH  13  19
ENDBRANCH   9  17
ENDBRANCH   8  11
ENDBRANCH   1   8
BRANCH   4  20
ATOM     20  C   UNL     1      47.305   3.309  16.952  0.00  0.00    +0.000 C 
BRANCH  20  21
ATOM     21  N   UNL     1      47.045   4.322  15.960  0.00  0.00    +0.000 N 
ATOM     22  C   UNL     1      47.076   4.072  14.612  0.00  0.00    +0.000 C 
ATOM     23  O   UNL     1      47.323   2.959  14.156  0.00  0.00    +0.000 OA
ATOM     24  H   UNL     1      47.031   5.282  16.289  0.00  0.00    +0.000 HD
BRANCH  22  25
ATOM     25  C   UNL     1      46.716   5.194  13.733  0.00  0.00    +0.000 A 
ATOM     26  C   UNL     1      47.607   6.244  13.558  0.00  0.00    +0.000 A 
ATOM     27  S   UNL     1      47.057   7.434  12.466  0.00  0.00    +0.000 S 
ATOM     28  C   UNL     1      45.589   6.610  12.222  0.00  0.00    +0.000 A 
ATOM     29  N   UNL     1      44.636   7.110  11.391  0.00  0.00    +0.000 NA
ATOM     30  C   UNL     1      43.560   6.399  11.325  0.00  0.00    +0.000 A 
ATOM     31  N   UNL     1      43.353   5.230  12.010  0.00  0.00    +0.000 N 
ATOM     32  C   UNL     1      44.305   4.664  12.824  0.00  0.00    +0.000 A 
ATOM     33  O   UNL     1      44.120   3.576  13.358  0.00  0.00    +0.000 OA
ATOM     34  C   UNL     1      45.526   5.436  12.951  0.00  0.00    +0.000 A 
ATOM     35  H   UNL     1      42.495   4.710  11.900  0.00  0.00    +0.000 HD
ENDBRANCH  22  25
ENDBRANCH  20  21
ENDBRANCH   4  20
TORSDOF 7
ENDMDL
MODEL 3
REMARK VINA RESULT:    -7.199      2.090      2.564
REMARK INTER + INTRA:         -10.956
REMARK INTER:                 -10.442
REMARK INTRA:                  -0.514
REMARK UNBOUND:                -0.812
REMARK  Name = 
REMARK  7 active torsions:
REMARK  status: ('A' for Active; 'I' for Inactive)
REMARK    1  A    between atoms: C_2  and  C_3
REMARK    2  A    between atoms: C_7  and  C_8
REMARK    3  A    between atoms: N_10  and  C_11
REMARK    4  A    between atoms: C_11  and  C_12
REMARK    5  A    between atoms: C_15  and  C_16
REMARK    6  A    between atoms: C_16  and  N_17
REMARK    7  A    between atoms: C_18  and  C_20
REMARK                            x       y       z     vdW  Elec       q    Type
REMARK                         _______ _______ _______ _____ _____    ______ ____
ROOT
ATOM      1  C   UNL     1      44.834   5.535  11.302  0.00  0.00    +0.000 A 
ATOM      2  C   UNL     1      44.942   6.931  11.341  0.00  0.00    +0.000 A 
ATOM      3  C   UNL     1      45.923   7.549  12.125  0.00  0.00    +0.000 A 
ATOM      4  C   UNL     1      46.799   6.785  12.905  0.00  0.00    +0.000 A 
ATOM      5  C   UNL     1      46.676   5.394  12.873  0.00  0.00    +0.000 A 
ATOM      6  F   UNL     1      47.501   4.633  13.606  0.00  0.00    +0.000 F 
ATOM      7  C   UNL     1      45.705   4.769  12.089  0.00  0.00    +0.000 A 
ENDROOT
BRANCH   1   8
ATOM      8  C   UNL     1      43.801   4.875  10.428  0.00  0.00    +0.000 C 
BRANCH   8  11
ATOM      9  C   UNL     1      44.547   2.863   9.261  0.00  0.00    +0.000 C 
ATOM     10  O   UNL     1      44.296   2.156  10.230  0.00  0.00    +0.000 OA
ATOM     11  N   UNL     1      44.393   4.227   9.280  0.00  0.00    +0.000 N 
ATOM     12  H   UNL     1      44.722   4.807   8.521  0.00  0.00    +0.000 HD
BRANCH   9  17
ATOM     13  C   UNL     1      45.664   3.368   7.021  0.00  0.00    +0.000 C 
ATOM     14  C   UNL     1      46.563   2.582   6.054  0.00  0.00    +0.000 C 
ATOM     15  C   UNL     1      47.063   1.359   6.826  0.00  0.00    +0.000 C 
ATOM     16  C   UNL     1      46.377   1.389   8.186  0.00  0.00    +0.000 C 
ATOM     17  C   UNL     1      45.159   2.288   7.991  0.00  0.00    +0.000 C 
BRANCH  13  19
ATOM     18  N   UNL     1      47.048   5.279   8.202  0.00  0.00    +0.000 NA
ATOM     19  C   UNL     1      46.460   4.425   7.678  0.00  0.00    +0.000 C 
ENDBRANCH  13  19
ENDBRANCH   9  17
ENDBRANCH   8  11
ENDBRANCH   1   8
BRANCH   4  20
ATOM     20  C   UNL     1      47.863   7.449  13.730  0.00  0.00    +0.000 C 
BRANCH  20  21
ATOM     21  N   UNL     1      47.848   6.997  15.099  0.00  0.00    +0.000 N 
ATOM     22  C   UNL     1      48.979   6.605  15.768  0.00  0.00    +0.000 C 
ATOM     23  O   UNL     1      50.090   6.617  15.244  0.00  0.00    +0.000 OA
ATOM     24  H   UNL     1      46.937   6.790  15.495  0.00  0.00    +0.000 HD
BRANCH  22  25
ATOM     25  C   UNL     1      48.806   6.240  17.181  0.00  0.00    +0.000 A 
ATOM     26  C   UNL     1      49.108   4.953  17.602  0.00  0.00    +0.000 A 
ATOM     27  S   UNL     1      48.904   4.714  19.279  0.00  0.00    +0.000 S 
ATOM     28  C   UNL     1      48.361   6.312  19.496  0.00  0.00    +0.000 A 
ATOM     29  N   UNL     1      47.997   6.767  20.724  0.00  0.00    +0.000 NA
ATOM     30  C   UNL     1      47.575   7.987  20.738  0.00  0.00    +0.000 A 
ATOM     31  N   UNL     1      47.490   8.797  19.634  0.00  0.00    +0.000 N 
ATOM     32  C   UNL     1      47.890   8.394  18.382  0.00  0.00    +0.000 A 
ATOM     33  O   UNL     1      47.878   9.169  17.431  0.00  0.00    +0.000 OA
ATOM     34  C   UNL     1      48.352   7.022  18.308  0.00  0.00    +0.000 A 
ATOM     35  H   UNL     1      47.168   9.750  19.714  0.00  0.00    +0.000 HD
ENDBRANCH  22  25
ENDBRANCH  20  21
ENDBRANCH   4  20
TORSDOF 7
ENDMDL
MODEL 4
REMARK VINA RESULT:    -6.992      5.171      9.784
REMARK INTER + INTRA:         -10.666
REMARK INTER:                  -9.288
REMARK INTRA:                  -1.378
REMARK UNBOUND:                -0.812
REMARK  Name = 
REMARK  7 active torsions:
REMARK  status: ('A' for Active; 'I' for Inactive)
REMARK    1  A    between atoms: C_2  and  C_3
REMARK    2  A    between atoms: C_7  and  C_8
REMARK    3  A    between atoms: N_10  and  C_11
REMARK    4  A    between atoms: C_11  and  C_12
REMARK    5  A    between atoms: C_15  and  C_16
REMARK    6  A    between atoms: C_16  and  N_17
REMARK    7  A    between atoms: C_18  and  C_20
REMARK                            x       y       z     vdW  Elec       q    Type
REMARK                         _______ _______ _______ _____ _____    ______ ____
ROOT
ATOM      1  C   UNL     1      51.645   3.121  18.021  0.00  0.00    +0.000 A 
ATOM      2  C   UNL     1      51.002   2.120  17.281  0.00  0.00    +0.000 A 
ATOM      3  C   UNL     1      49.643   2.226  16.968  0.00  0.00    +0.000 A 
ATOM      4  C   UNL     1      48.893   3.323  17.408  0.00  0.00    +0.000 A 
ATOM      5  C   UNL     1      49.537   4.310  18.158  0.00  0.00    +0.000 A 
ATOM      6  F   UNL     1      48.847   5.374  18.593  0.00  0.00    +0.000 F 
ATOM      7  C   UNL     1      50.893   4.215  18.470  0.00  0.00    +0.000 A 
ENDROOT
BRANCH   1   8
ATOM      8  C   UNL     1      53.117   3.019  18.323  0.00  0.00    +0.000 C 
BRANCH   8  11
ATOM      9  C   UNL     1      54.735   1.191  18.260  0.00  0.00    +0.000 C 
ATOM     10  O   UNL     1      55.213   1.520  19.339  0.00  0.00    +0.000 OA
ATOM     11  N   UNL     1      53.735   1.904  17.645  0.00  0.00    +0.000 N 
ATOM     12  H   UNL     1      53.440   1.694  16.702  0.00  0.00    +0.000 HD
BRANCH   9  17
ATOM     13  C   UNL     1      55.322  -1.294  18.257  0.00  0.00    +0.000 C 
ATOM     14  C   UNL     1      55.531  -2.359  17.169  0.00  0.00    +0.000 C 
ATOM     15  C   UNL     1      54.967  -1.771  15.875  0.00  0.00    +0.000 C 
ATOM     16  C   UNL     1      54.533  -0.346  16.193  0.00  0.00    +0.000 C 
ATOM     17  C   UNL     1      55.296   0.022  17.462  0.00  0.00    +0.000 C 
BRANCH  13  19
ATOM     18  N   UNL     1      53.053  -1.796  19.505  0.00  0.00    +0.000 NA
ATOM     19  C   UNL     1      54.063  -1.572  18.978  0.00  0.00    +0.000 C 
ENDBRANCH  13  19
ENDBRANCH   9  17
ENDBRANCH   8  11
ENDBRANCH   1   8
BRANCH   4  20
ATOM     20  C   UNL     1      47.439   3.444  17.054  0.00  0.00    +0.000 C 
BRANCH  20  21
ATOM     21  N   UNL     1      47.206   4.463  16.061  0.00  0.00    +0.000 N 
ATOM     22  C   UNL     1      47.162   4.198  14.716  0.00  0.00    +0.000 C 
ATOM     23  O   UNL     1      47.314   3.066  14.264  0.00  0.00    +0.000 OA
ATOM     24  H   UNL     1      47.271   5.424  16.379  0.00  0.00    +0.000 HD
BRANCH  22  25
ATOM     25  C   UNL     1      46.843   5.334  13.840  0.00  0.00    +0.000 A 
ATOM     26  C   UNL     1      45.683   5.311  13.078  0.00  0.00    +0.000 A 
ATOM     27  S   UNL     1      45.437   6.729  12.161  0.00  0.00    +0.000 S 
ATOM     28  C   UNL     1      46.896   7.406  12.716  0.00  0.00    +0.000 A 
ATOM     29  N   UNL     1      47.302   8.633  12.294  0.00  0.00    +0.000 NA
ATOM     30  C   UNL     1      48.443   9.010  12.769  0.00  0.00    +0.000 A 
ATOM     31  N   UNL     1      49.211   8.272  13.633  0.00  0.00    +0.000 N 
ATOM     32  C   UNL     1      48.818   7.049  14.122  0.00  0.00    +0.000 A 
ATOM     33  O   UNL     1      49.489   6.452  14.956  0.00  0.00    +0.000 OA
ATOM     34  C   UNL     1      47.553   6.569  13.600  0.00  0.00    +0.000 A 
ATOM     35  H   UNL     1      50.087   8.631  13.984  0.00  0.00    +0.000 HD
ENDBRANCH  22  25
ENDBRANCH  20  21
ENDBRANCH   4  20
TORSDOF 7
ENDMDL
MODEL 5
REMARK VINA RESULT:    -6.987      3.984      9.536
REMARK INTER + INTRA:         -10.659
REMARK INTER:                  -9.423
REMARK INTRA:                  -1.236
REMARK UNBOUND:                -0.812
REMARK  Name = 
REMARK  7 active torsions:
REMARK  status: ('A' for Active; 'I' for Inactive)
REMARK    1  A    between atoms: C_2  and  C_3
REMARK    2  A    between atoms: C_7  and  C_8
REMARK    3  A    between atoms: N_10  and  C_11
REMARK    4  A    between atoms: C_11  and  C_12
REMARK    5  A    between atoms: C_15  and  C_16
REMARK    6  A    between atoms: C_16  and  N_17
REMARK    7  A    between atoms: C_18  and  C_20
REMARK                            x       y       z     vdW  Elec       q    Type
REMARK                         _______ _______ _______ _____ _____    ______ ____
ROOT
ATOM      1  C   UNL     1      51.403   3.116  17.781  0.00  0.00    +0.000 A 
ATOM      2  C   UNL     1      50.725   2.058  17.160  0.00  0.00    +0.000 A 
ATOM      3  C   UNL     1      49.355   2.149  16.892  0.00  0.00    +0.000 A 
ATOM      4  C   UNL     1      48.630   3.288  17.261  0.00  0.00    +0.000 A 
ATOM      5  C   UNL     1      49.309   4.332  17.893  0.00  0.00    +0.000 A 
ATOM      6  F   UNL     1      48.644   5.438  18.258  0.00  0.00    +0.000 F 
ATOM      7  C   UNL     1      50.677   4.253  18.159  0.00  0.00    +0.000 A 
ENDROOT
BRANCH   1   8
ATOM      8  C   UNL     1      52.885   3.028  18.033  0.00  0.00    +0.000 C 
BRANCH   8  11
ATOM      9  C   UNL     1      54.552   4.714  17.449  0.00  0.00    +0.000 C 
ATOM     10  O   UNL     1      55.104   3.957  16.660  0.00  0.00    +0.000 OA
ATOM     11  N   UNL     1      53.483   4.329  18.220  0.00  0.00    +0.000 N 
ATOM     12  H   UNL     1      53.120   4.921  18.954  0.00  0.00    +0.000 HD
BRANCH   9  17
ATOM     13  C   UNL     1      54.760   7.110  16.589  0.00  0.00    +0.000 C 
ATOM     14  C   UNL     1      55.026   8.477  17.238  0.00  0.00    +0.000 C 
ATOM     15  C   UNL     1      54.824   8.288  18.742  0.00  0.00    +0.000 C 
ATOM     16  C   UNL     1      54.546   6.807  18.965  0.00  0.00    +0.000 C 
ATOM     17  C   UNL     1      55.085   6.115  17.716  0.00  0.00    +0.000 C 
BRANCH  13  19
ATOM     18  N   UNL     1      52.238   7.006  15.821  0.00  0.00    +0.000 NA
ATOM     19  C   UNL     1      53.356   7.048  16.135  0.00  0.00    +0.000 C 
ENDBRANCH  13  19
ENDBRANCH   9  17
ENDBRANCH   8  11
ENDBRANCH   1   8
BRANCH   4  20
ATOM     20  C   UNL     1      47.164   3.391  16.955  0.00  0.00    +0.000 C 
BRANCH  20  21
ATOM     21  N   UNL     1      46.890   4.379  15.942  0.00  0.00    +0.000 N 
ATOM     22  C   UNL     1      46.983   4.116  14.599  0.00  0.00    +0.000 C 
ATOM     23  O   UNL     1      47.304   3.013  14.166  0.00  0.00    +0.000 OA
ATOM     24  H   UNL     1      46.814   5.340  16.259  0.00  0.00    +0.000 HD
BRANCH  22  25
ATOM     25  C   UNL     1      46.601   5.210  13.694  0.00  0.00    +0.000 A 
ATOM     26  C   UNL     1      47.501   6.232  13.430  0.00  0.00    +0.000 A 
ATOM     27  S   UNL     1      46.919   7.388  12.318  0.00  0.00    +0.000 S 
ATOM     28  C   UNL     1      45.424   6.587  12.185  0.00  0.00    +0.000 A 
ATOM     29  N   UNL     1      44.439   7.074  11.384  0.00  0.00    +0.000 NA
ATOM     30  C   UNL     1      43.347   6.385  11.403  0.00  0.00    +0.000 A 
ATOM     31  N   UNL     1      43.153   5.249  12.146  0.00  0.00    +0.000 N 
ATOM     32  C   UNL     1      44.135   4.696  12.933  0.00  0.00    +0.000 A 
ATOM     33  O   UNL     1      43.957   3.635  13.521  0.00  0.00    +0.000 OA
ATOM     34  C   UNL     1      45.376   5.445  12.965  0.00  0.00    +0.000 A 
ATOM     35  H   UNL     1      42.280   4.744  12.103  0.00  0.00    +0.000 HD
ENDBRANCH  22  25
ENDBRANCH  20  21
ENDBRANCH   4  20
TORSDOF 7
ENDMDL
MODEL 6
REMARK VINA RESULT:    -6.862      3.715      5.263
REMARK INTER + INTRA:         -10.482
REMARK INTER:                  -9.192
REMARK INTRA:                  -1.290
REMARK UNBOUND:                -0.812
REMARK  Name = 
REMARK  7 active torsions:
REMARK  status: ('A' for Active; 'I' for Inactive)
REMARK    1  A    between atoms: C_2  and  C_3
REMARK    2  A    between atoms: C_7  and  C_8
REMARK    3  A    between atoms: N_10  and  C_11
REMARK    4  A    between atoms: C_11  and  C_12
REMARK    5  A    between atoms: C_15  and  C_16
REMARK    6  A    between atoms: C_16  and  N_17
REMARK    7  A    between atoms: C_18  and  C_20
REMARK                            x       y       z     vdW  Elec       q    Type
REMARK                         _______ _______ _______ _____ _____    ______ ____
ROOT
ATOM      1  C   UNL     1      45.420   4.781  12.714  0.00  0.00    +0.000 A 
ATOM      2  C   UNL     1      44.546   5.815  12.355  0.00  0.00    +0.000 A 
ATOM      3  C   UNL     1      44.921   7.154  12.511  0.00  0.00    +0.000 A 
ATOM      4  C   UNL     1      46.168   7.486  13.053  0.00  0.00    +0.000 A 
ATOM      5  C   UNL     1      47.029   6.450  13.423  0.00  0.00    +0.000 A 
ATOM      6  F   UNL     1      48.231   6.735  13.943  0.00  0.00    +0.000 F 
ATOM      7  C   UNL     1      46.665   5.113  13.265  0.00  0.00    +0.000 A 
ENDROOT
BRANCH   1   8
ATOM      8  C   UNL     1      45.025   3.343  12.509  0.00  0.00    +0.000 C 
BRANCH   8  11
ATOM      9  C   UNL     1      44.321   2.934  10.206  0.00  0.00    +0.000 C 
ATOM     10  O   UNL     1      43.165   3.251  10.458  0.00  0.00    +0.000 OA
ATOM     11  N   UNL     1      45.302   2.889  11.166  0.00  0.00    +0.000 N 
ATOM     12  H   UNL     1      46.217   2.507  10.969  0.00  0.00    +0.000 HD
BRANCH   9  17
ATOM     13  C   UNL     1      44.966   3.605   7.828  0.00  0.00    +0.000 C 
ATOM     14  C   UNL     1      45.731   2.930   6.679  0.00  0.00    +0.000 C 
ATOM     15  C   UNL     1      46.457   1.729   7.289  0.00  0.00    +0.000 C 
ATOM     16  C   UNL     1      46.032   1.656   8.751  0.00  0.00    +0.000 C 
ATOM     17  C   UNL     1      44.733   2.454   8.821  0.00  0.00    +0.000 C 
BRANCH  13  19
ATOM     18  N   UNL     1      46.408   5.560   8.857  0.00  0.00    +0.000 NA
ATOM     19  C   UNL     1      45.785   4.703   8.382  0.00  0.00    +0.000 C 
ENDBRANCH  13  19
ENDBRANCH   9  17
ENDBRANCH   8  11
ENDBRANCH   1   8
BRANCH   4  20
ATOM     20  C   UNL     1      46.576   8.923  13.202  0.00  0.00    +0.000 C 
BRANCH  20  21
ATOM     21  N   UNL     1      47.683   9.264  12.343  0.00  0.00    +0.000 N 
ATOM     22  C   UNL     1      48.662  10.154  12.704  0.00  0.00    +0.000 C 
ATOM     23  O   UNL     1      48.665  10.720  13.794  0.00  0.00    +0.000 OA
ATOM     24  H   UNL     1      47.608   8.970  11.374  0.00  0.00    +0.000 HD
BRANCH  22  25
ATOM     25  C   UNL     1      49.760  10.338  11.744  0.00  0.00    +0.000 A 
ATOM     26  C   UNL     1      49.669  11.327  10.776  0.00  0.00    +0.000 A 
ATOM     27  S   UNL     1      51.051  11.442   9.781  0.00  0.00    +0.000 S 
ATOM     28  C   UNL     1      51.802  10.142  10.581  0.00  0.00    +0.000 A 
ATOM     29  N   UNL     1      53.033   9.704  10.203  0.00  0.00    +0.000 NA
ATOM     30  C   UNL     1      53.468   8.691  10.874  0.00  0.00    +0.000 A 
ATOM     31  N   UNL     1      52.786   8.078  11.894  0.00  0.00    +0.000 N 
ATOM     32  C   UNL     1      51.561   8.515  12.340  0.00  0.00    +0.000 A 
ATOM     33  O   UNL     1      51.014   7.996  13.308  0.00  0.00    +0.000 OA
ATOM     34  C   UNL     1      51.016   9.638  11.603  0.00  0.00    +0.000 A 
ATOM     35  H   UNL     1      53.190   7.300  12.394  0.00  0.00    +0.000 HD
ENDBRANCH  22  25
ENDBRANCH  20  21
ENDBRANCH   4  20
TORSDOF 7
ENDMDL
MODEL 7
REMARK VINA RESULT:    -6.853      2.983      8.941
REMARK INTER + INTRA:         -10.470
REMARK INTER:                  -9.262
REMARK INTRA:                  -1.208
REMARK UNBOUND:                -0.812
REMARK  Name = 
REMARK  7 active torsions:
REMARK  status: ('A' for Active; 'I' for Inactive)
REMARK    1  A    between atoms: C_2  and  C_3
REMARK    2  A    between atoms: C_7  and  C_8
REMARK    3  A    between atoms: N_10  and  C_11
REMARK    4  A    between atoms: C_11  and  C_12
REMARK    5  A    between atoms: C_15  and  C_16
REMARK    6  A    between atoms: C_16  and  N_17
REMARK    7  A    between atoms: C_18  and  C_20
REMARK                            x       y       z     vdW  Elec       q    Type
REMARK                         _______ _______ _______ _____ _____    ______ ____
ROOT
ATOM      1  C   UNL     1      49.914   8.199  14.908  0.00  0.00    +0.000 A 
ATOM      2  C   UNL     1      48.603   8.599  15.200  0.00  0.00    +0.000 A 
ATOM      3  C   UNL     1      47.613   8.577  14.211  0.00  0.00    +0.000 A 
ATOM      4  C   UNL     1      47.920   8.178  12.905  0.00  0.00    +0.000 A 
ATOM      5  C   UNL     1      49.232   7.794  12.617  0.00  0.00    +0.000 A 
ATOM      6  F   UNL     1      49.557   7.405  11.377  0.00  0.00    +0.000 F 
ATOM      7  C   UNL     1      50.223   7.807  13.599  0.00  0.00    +0.000 A 
ENDROOT
BRANCH   1   8
ATOM      8  C   UNL     1      50.965   8.189  15.986  0.00  0.00    +0.000 C 
BRANCH   8  11
ATOM      9  C   UNL     1      50.365   6.511  17.655  0.00  0.00    +0.000 C 
ATOM     10  O   UNL     1      50.667   5.592  16.902  0.00  0.00    +0.000 OA
ATOM     11  N   UNL     1      50.421   7.828  17.274  0.00  0.00    +0.000 N 
ATOM     12  H   UNL     1      50.051   8.564  17.860  0.00  0.00    +0.000 HD
BRANCH   9  17
ATOM     13  C   UNL     1      48.262   6.148  19.056  0.00  0.00    +0.000 C 
ATOM     14  C   UNL     1      47.963   5.506  20.420  0.00  0.00    +0.000 C 
ATOM     15  C   UNL     1      49.205   4.697  20.799  0.00  0.00    +0.000 C 
ATOM     16  C   UNL     1      50.243   4.954  19.713  0.00  0.00    +0.000 C 
ATOM     17  C   UNL     1      49.796   6.250  19.043  0.00  0.00    +0.000 C 
BRANCH  13  19
ATOM     18  N   UNL     1      47.333   4.600  17.133  0.00  0.00    +0.000 NA
ATOM     19  C   UNL     1      47.718   5.291  17.983  0.00  0.00    +0.000 C 
ENDBRANCH  13  19
ENDBRANCH   9  17
ENDBRANCH   8  11
ENDBRANCH   1   8
BRANCH   4  20
ATOM     20  C   UNL     1      46.852   8.136  11.850  0.00  0.00    +0.000 C 
BRANCH  20  21
ATOM     21  N   UNL     1      46.309   6.811  11.680  0.00  0.00    +0.000 N 
ATOM     22  C   UNL     1      44.972   6.571  11.493  0.00  0.00    +0.000 C 
ATOM     23  O   UNL     1      44.141   7.475  11.453  0.00  0.00    +0.000 OA
ATOM     24  H   UNL     1      46.930   6.039  11.901  0.00  0.00    +0.000 HD
BRANCH  22  25
ATOM     25  C   UNL     1      44.589   5.171  11.263  0.00  0.00    +0.000 A 
ATOM     26  C   UNL     1      43.817   4.504  12.204  0.00  0.00    +0.000 A 
ATOM     27  S   UNL     1      43.416   2.908  11.756  0.00  0.00    +0.000 S 
ATOM     28  C   UNL     1      44.299   3.034  10.308  0.00  0.00    +0.000 A 
ATOM     29  N   UNL     1      44.381   1.987   9.444  0.00  0.00    +0.000 NA
ATOM     30  C   UNL     1      45.109   2.211   8.402  0.00  0.00    +0.000 A 
ATOM     31  N   UNL     1      45.759   3.391   8.141  0.00  0.00    +0.000 N 
ATOM     32  C   UNL     1      45.667   4.489   8.962  0.00  0.00    +0.000 A 
ATOM     33  O   UNL     1      46.193   5.555   8.660  0.00  0.00    +0.000 OA
ATOM     34  C   UNL     1      44.877   4.283  10.161  0.00  0.00    +0.000 A 
ATOM     35  H   UNL     1      46.299   3.509   7.297  0.00  0.00    +0.000 HD
ENDBRANCH  22  25
ENDBRANCH  20  21
ENDBRANCH   4  20
TORSDOF 7
ENDMDL
MODEL 8
REMARK VINA RESULT:    -6.635      3.467      4.912
REMARK INTER + INTRA:         -10.162
REMARK INTER:                  -8.878
REMARK INTRA:                  -1.283
REMARK UNBOUND:                -0.812
REMARK  Name = 
REMARK  7 active torsions:
REMARK  status: ('A' for Active; 'I' for Inactive)
REMARK    1  A    between atoms: C_2  and  C_3
REMARK    2  A    between atoms: C_7  and  C_8
REMARK    3  A    between atoms: N_10  and  C_11
REMARK    4  A    between atoms: C_11  and  C_12
REMARK    5  A    between atoms: C_15  and  C_16
REMARK    6  A    between atoms: C_16  and  N_17
REMARK    7  A    between atoms: C_18  and  C_20
REMARK                            x       y       z     vdW  Elec       q    Type
REMARK                         _______ _______ _______ _____ _____    ______ ____
ROOT
ATOM      1  C   UNL     1      48.224   8.055  13.524  0.00  0.00    +0.000 A 
ATOM      2  C   UNL     1      48.968   6.972  14.011  0.00  0.00    +0.000 A 
ATOM      3  C   UNL     1      49.338   6.909  15.359  0.00  0.00    +0.000 A 
ATOM      4  C   UNL     1      48.993   7.940  16.242  0.00  0.00    +0.000 A 
ATOM      5  C   UNL     1      48.264   9.023  15.746  0.00  0.00    +0.000 A 
ATOM      6  F   UNL     1      47.916  10.025  16.566  0.00  0.00    +0.000 F 
ATOM      7  C   UNL     1      47.886   9.091  14.405  0.00  0.00    +0.000 A 
ENDROOT
BRANCH   1   8
ATOM      8  C   UNL     1      47.797   8.098  12.080  0.00  0.00    +0.000 C 
BRANCH   8  11
ATOM      9  C   UNL     1      45.671   6.901  11.983  0.00  0.00    +0.000 C 
ATOM     10  O   UNL     1      45.102   7.771  12.632  0.00  0.00    +0.000 OA
ATOM     11  N   UNL     1      47.016   6.941  11.709  0.00  0.00    +0.000 N 
ATOM     12  H   UNL     1      47.492   6.159  11.284  0.00  0.00    +0.000 HD
BRANCH   9  17
ATOM     13  C   UNL     1      45.618   4.347  12.002  0.00  0.00    +0.000 C 
ATOM     14  C   UNL     1      44.534   3.282  11.777  0.00  0.00    +0.000 C 
ATOM     15  C   UNL     1      43.191   4.011  11.848  0.00  0.00    +0.000 C 
ATOM     16  C   UNL     1      43.504   5.493  12.009  0.00  0.00    +0.000 C 
ATOM     17  C   UNL     1      44.944   5.644  11.525  0.00  0.00    +0.000 C 
BRANCH  13  19
ATOM     18  N   UNL     1      46.303   4.345  14.550  0.00  0.00    +0.000 NA
ATOM     19  C   UNL     1      45.994   4.370  13.430  0.00  0.00    +0.000 C 
ENDBRANCH  13  19
ENDBRANCH   9  17
ENDBRANCH   8  11
ENDBRANCH   1   8
BRANCH   4  20
ATOM     20  C   UNL     1      49.374   7.861  17.692  0.00  0.00    +0.000 C 
BRANCH  20  21
ATOM     21  N   UNL     1      50.362   6.841  17.937  0.00  0.00    +0.000 N 
ATOM     22  C   UNL     1      50.116   5.734  18.708  0.00  0.00    +0.000 C 
ATOM     23  O   UNL     1      49.028   5.533  19.241  0.00  0.00    +0.000 OA
ATOM     24  H   UNL     1      51.317   7.068  17.680  0.00  0.00    +0.000 HD
BRANCH  22  25
ATOM     25  C   UNL     1      51.205   4.751  18.802  0.00  0.00    +0.000 A 
ATOM     26  C   UNL     1      52.333   5.042  19.557  0.00  0.00    +0.000 A 
ATOM     27  S   UNL     1      53.473   3.774  19.604  0.00  0.00    +0.000 S 
ATOM     28  C   UNL     1      52.520   2.806  18.580  0.00  0.00    +0.000 A 
ATOM     29  N   UNL     1      52.936   1.568  18.202  0.00  0.00    +0.000 NA
ATOM     30  C   UNL     1      52.130   0.958  17.397  0.00  0.00    +0.000 A 
ATOM     31  N   UNL     1      50.943   1.472  16.941  0.00  0.00    +0.000 N 
ATOM     32  C   UNL     1      50.463   2.699  17.333  0.00  0.00    +0.000 A 
ATOM     33  O   UNL     1      49.360   3.095  16.972  0.00  0.00    +0.000 OA
ATOM     34  C   UNL     1      51.342   3.436  18.220  0.00  0.00    +0.000 A 
ATOM     35  H   UNL     1      50.348   0.936  16.327  0.00  0.00    +0.000 HD
ENDBRANCH  22  25
ENDBRANCH  20  21
ENDBRANCH   4  20
TORSDOF 7
ENDMDL
MODEL 9
REMARK VINA RESULT:    -6.581      5.055      7.895
REMARK INTER + INTRA:         -10.086
REMARK INTER:                  -8.948
REMARK INTRA:                  -1.138
REMARK UNBOUND:                -0.812
REMARK  Name = 
REMARK  7 active torsions:
REMARK  status: ('A' for Active; 'I' for Inactive)
REMARK    1  A    between atoms: C_2  and  C_3
REMARK    2  A    between atoms: C_7  and  C_8
REMARK    3  A    between atoms: N_10  and  C_11
REMARK    4  A    between atoms: C_11  and  C_12
REMARK    5  A    between atoms: C_15  and  C_16
REMARK    6  A    between atoms: C_16  and  N_17
REMARK    7  A    between atoms: C_18  and  C_20
REMARK                            x       y       z     vdW  Elec       q    Type
REMARK                         _______ _______ _______ _____ _____    ______ ____
ROOT
ATOM      1  C   UNL     1      50.822   8.263  12.415  0.00  0.00    +0.000 A 
ATOM      2  C   UNL     1      49.876   8.638  11.451  0.00  0.00    +0.000 A 
ATOM      3  C   UNL     1      48.507   8.569  11.730  0.00  0.00    +0.000 A 
ATOM      4  C   UNL     1      48.055   8.101  12.970  0.00  0.00    +0.000 A 
ATOM      5  C   UNL     1      49.003   7.715  13.920  0.00  0.00    +0.000 A 
ATOM      6  F   UNL     1      48.603   7.264  15.117  0.00  0.00    +0.000 F 
ATOM      7  C   UNL     1      50.370   7.786  13.652  0.00  0.00    +0.000 A 
ENDROOT
BRANCH   1   8
ATOM      8  C   UNL     1      52.294   8.375  12.121  0.00  0.00    +0.000 C 
BRANCH   8  11
ATOM      9  C   UNL     1      53.939   7.782  10.416  0.00  0.00    +0.000 C 
ATOM     10  O   UNL     1      54.782   8.521  10.910  0.00  0.00    +0.000 OA
ATOM     11  N   UNL     1      52.660   7.685  10.906  0.00  0.00    +0.000 N 
ATOM     12  H   UNL     1      51.944   7.170  10.414  0.00  0.00    +0.000 HD
BRANCH   9  17
ATOM     13  C   UNL     1      55.264   5.884   9.338  0.00  0.00    +0.000 C 
ATOM     14  C   UNL     1      55.085   5.007   8.089  0.00  0.00    +0.000 C 
ATOM     15  C   UNL     1      53.639   5.201   7.629  0.00  0.00    +0.000 C 
ATOM     16  C   UNL     1      53.026   6.255   8.542  0.00  0.00    +0.000 C 
ATOM     17  C   UNL     1      54.218   6.994   9.144  0.00  0.00    +0.000 C 
BRANCH  13  19
ATOM     18  N   UNL     1      54.903   4.423  11.505  0.00  0.00    +0.000 NA
ATOM     19  C   UNL     1      55.037   5.066  10.547  0.00  0.00    +0.000 C 
ENDBRANCH  13  19
ENDBRANCH   9  17
ENDBRANCH   8  11
ENDBRANCH   1   8
BRANCH   4  20
ATOM     20  C   UNL     1      46.586   8.046  13.274  0.00  0.00    +0.000 C 
BRANCH  20  21
ATOM     21  N   UNL     1      46.006   6.775  12.918  0.00  0.00    +0.000 N 
ATOM     22  C   UNL     1      45.055   6.636  11.939  0.00  0.00    +0.000 C 
ATOM     23  O   UNL     1      44.634   7.592  11.292  0.00  0.00    +0.000 OA
ATOM     24  H   UNL     1      46.183   6.005  13.555  0.00  0.00    +0.000 HD
BRANCH  22  25
ATOM     25  C   UNL     1      44.618   5.264  11.647  0.00  0.00    +0.000 A 
ATOM     26  C   UNL     1      43.881   4.560  12.589  0.00  0.00    +0.000 A 
ATOM     27  S   UNL     1      43.408   3.006  12.068  0.00  0.00    +0.000 S 
ATOM     28  C   UNL     1      44.211   3.200  10.581  0.00  0.00    +0.000 A 
ATOM     29  N   UNL     1      44.212   2.207   9.652  0.00  0.00    +0.000 NA
ATOM     30  C   UNL     1      44.887   2.477   8.584  0.00  0.00    +0.000 A 
ATOM     31  N   UNL     1      45.555   3.653   8.359  0.00  0.00    +0.000 N 
ATOM     32  C   UNL     1      45.543   4.700   9.249  0.00  0.00    +0.000 A 
ATOM     33  O   UNL     1      46.082   5.769   8.982  0.00  0.00    +0.000 OA
ATOM     34  C   UNL     1      44.817   4.440  10.477  0.00  0.00    +0.000 A 
ATOM     35  H   UNL     1      46.050   3.811   7.493  0.00  0.00    +0.000 HD
ENDBRANCH  22  25
ENDBRANCH  20  21
ENDBRANCH   4  20
TORSDOF 7
ENDMDL
