MODEL 1
REMARK VINA RESULT:    -7.792      0.000      0.000
REMARK INTER + INTRA:         -12.690
REMARK INTER:                 -11.437
REMARK INTRA:                  -1.253
REMARK UNBOUND:                -1.253
REMARK  Name = 
REMARK  11 active torsions:
REMARK  status: ('A' for Active; 'I' for Inactive)
REMARK    1  A    between atoms: C_1  and  C_2
REMARK    2  A    between atoms: C_2  and  C_3
REMARK    3  A    between atoms: C_4  and  O_5
REMARK    4  A    between atoms: O_5  and  C_6
REMARK    5  A    between atoms: C_10  and  C_11
REMARK    6  A    between atoms: C_11  and  C_12
REMARK    7  A    between atoms: C_12  and  N_13
REMARK    8  A    between atoms: C_17  and  S_18
REMARK    9  A    between atoms: S_18  and  N_19
REMARK   10  A    between atoms: C_26  and  C_27
REMARK   11  A    between atoms: C_27  and  O_28
REMARK                            x       y       z     vdW  Elec       q    Type
REMARK                         _______ _______ _______ _____ _____    ______ ____
ROOT
ATOM      1  C   UNL     1      47.342   5.330  13.892  0.00  0.00    +0.000 A 
ATOM      2  C   UNL     1      48.071   6.171  13.058  0.00  0.00    +0.000 A 
ATOM      3  C   UNL     1      47.416   6.946  12.101  0.00  0.00    +0.000 A 
ATOM      4  C   UNL     1      46.031   6.854  11.945  0.00  0.00    +0.000 A 
ATOM      5  C   UNL     1      45.285   5.964  12.729  0.00  0.00    +0.000 A 
ATOM      6  C   UNL     1      45.963   5.219  13.716  0.00  0.00    +0.000 A 
ENDROOT
BRANCH   1   7
ATOM      7  O   UNL     1      47.890   4.562  14.896  0.00  0.00    +0.000 OA
BRANCH   7  11
ATOM      8  C   UNL     1      46.848   3.271  17.432  0.00  0.00    +0.000 C 
ATOM      9  C   UNL     1      47.781   4.474  17.467  0.00  0.00    +0.000 C 
ATOM     10  C   UNL     1      47.348   5.459  18.562  0.00  0.00    +0.000 C 
ATOM     11  C   UNL     1      48.147   5.226  16.152  0.00  0.00    +0.000 C 
ATOM     12  O   UNL     1      49.558   5.211  16.534  0.00  0.00    +0.000 OA
ATOM     13  C   UNL     1      49.300   4.155  17.503  0.00  0.00    +0.000 C 
BRANCH  13  14
ATOM     14  C   UNL     1      49.812   2.810  16.986  0.00  0.00    +0.000 C 
BRANCH  14  15
ATOM     15  O   UNL     1      51.234   2.780  17.068  0.00  0.00    +0.000 OA
ATOM     16  H   UNL     1      51.461   3.297  17.865  0.00  0.00    +0.000 HD
ENDBRANCH  14  15
ENDBRANCH  13  14
ENDBRANCH   7  11
ENDBRANCH   1   7
BRANCH   5  17
ATOM     17  C   UNL     1      43.792   5.829  12.460  0.00  0.00    +0.000 C 
BRANCH  17  18
ATOM     18  C   UNL     1      43.483   5.290  11.065  0.00  0.00    +0.000 C 
BRANCH  18  19
ATOM     19  N   UNL     1      43.490   3.826  10.971  0.00  0.00    +0.000 N 
ATOM     20  C   UNL     1      44.354   3.427   9.924  0.00  0.00    +0.000 A 
ATOM     21  C   UNL     1      44.497   2.073   9.630  0.00  0.00    +0.000 A 
ATOM     22  C   UNL     1      45.366   1.681   8.607  0.00  0.00    +0.000 A 
ATOM     23  C   UNL     1      46.073   2.660   7.911  0.00  0.00    +0.000 A 
ATOM     24  C   UNL     1      45.877   3.980   8.245  0.00  0.00    +0.000 A 
ATOM     25  N   UNL     1      45.049   4.367   9.237  0.00  0.00    +0.000 NA
ATOM     26  H   UNL     1      42.566   3.449  10.781  0.00  0.00    +0.000 HD
BRANCH  23  27
ATOM     27  S   UNL     1      47.148   2.279   6.587  0.00  0.00    +0.000 S 
ATOM     28  O   UNL     1      46.537   2.698   5.348  0.00  0.00    +0.000 OA
ATOM     29  O   UNL     1      48.499   2.646   6.945  0.00  0.00    +0.000 OA
BRANCH  27  30
ATOM     30  N   UNL     1      47.116   0.601   6.575  0.00  0.00    +0.000 NA
ATOM     31  H   UNL     1      47.652   0.250   5.780  0.00  0.00    +0.000 HD
ATOM     32  H   UNL     1      47.433   0.236   7.474  0.00  0.00    +0.000 HD
ENDBRANCH  27  30
ENDBRANCH  23  27
ENDBRANCH  18  19
ENDBRANCH  17  18
ENDBRANCH   5  17
TORSDOF 9
ENDMDL
MODEL 2
REMARK VINA RESULT:    -7.071      4.159      7.998
REMARK INTER + INTRA:         -11.631
REMARK INTER:                 -10.108
REMARK INTRA:                  -1.523
REMARK UNBOUND:                -1.253
REMARK  Name = 
REMARK  11 active torsions:
REMARK  status: ('A' for Active; 'I' for Inactive)
REMARK    1  A    between atoms: C_1  and  C_2
REMARK    2  A    between atoms: C_2  and  C_3
REMARK    3  A    between atoms: C_4  and  O_5
REMARK    4  A    between atoms: O_5  and  C_6
REMARK    5  A    between atoms: C_10  and  C_11
REMARK    6  A    between atoms: C_11  and  C_12
REMARK    7  A    between atoms: C_12  and  N_13
REMARK    8  A    between atoms: C_17  and  S_18
REMARK    9  A    between atoms: S_18  and  N_19
REMARK   10  A    between atoms: C_26  and  C_27
REMARK   11  A    between atoms: C_27  and  O_28
REMARK                            x       y       z     vdW  Elec       q    Type
REMARK                         _______ _______ _______ _____ _____    ______ ____
ROOT
ATOM      1  C   UNL     1      45.533   8.214  11.943  0.00  0.00    +0.000 A 
ATOM      2  C   UNL     1      44.926   9.456  11.790  0.00  0.00    +0.000 A 
ATOM      3  C   UNL     1      45.701  10.618  11.793  0.00  0.00    +0.000 A 
ATOM      4  C   UNL     1      47.081  10.545  11.988  0.00  0.00    +0.000 A 
ATOM      5  C   UNL     1      47.705   9.310  12.210  0.00  0.00    +0.000 A 
ATOM      6  C   UNL     1      46.909   8.147  12.166  0.00  0.00    +0.000 A 
ENDROOT
BRANCH   1   7
ATOM      7  O   UNL     1      44.864   7.010  11.908  0.00  0.00    +0.000 OA
BRANCH   7  11
ATOM      8  C   UNL     1      43.704   4.480  13.105  0.00  0.00    +0.000 C 
ATOM      9  C   UNL     1      45.017   4.476  12.335  0.00  0.00    +0.000 C 
ATOM     10  C   UNL     1      46.039   3.557  13.019  0.00  0.00    +0.000 C 
ATOM     11  C   UNL     1      45.677   5.817  11.895  0.00  0.00    +0.000 C 
ATOM     12  O   UNL     1      45.886   5.277  10.553  0.00  0.00    +0.000 OA
ATOM     13  C   UNL     1      44.906   4.229  10.805  0.00  0.00    +0.000 C 
BRANCH  13  14
ATOM     14  C   UNL     1      43.596   4.528  10.075  0.00  0.00    +0.000 C 
BRANCH  14  15
ATOM     15  O   UNL     1      43.816   4.488   8.668  0.00  0.00    +0.000 OA
ATOM     16  H   UNL     1      43.489   3.615   8.377  0.00  0.00    +0.000 HD
ENDBRANCH  14  15
ENDBRANCH  13  14
ENDBRANCH   7  11
ENDBRANCH   1   7
BRANCH   5  17
ATOM     17  C   UNL     1      49.197   9.289  12.512  0.00  0.00    +0.000 C 
BRANCH  17  18
ATOM     18  C   UNL     1      49.724   7.889  12.823  0.00  0.00    +0.000 C 
BRANCH  18  19
ATOM     19  N   UNL     1      50.487   7.798  14.073  0.00  0.00    +0.000 N 
ATOM     20  C   UNL     1      49.794   6.971  14.987  0.00  0.00    +0.000 A 
ATOM     21  C   UNL     1      50.320   6.762  16.260  0.00  0.00    +0.000 A 
ATOM     22  C   UNL     1      49.641   5.929  17.154  0.00  0.00    +0.000 A 
ATOM     23  C   UNL     1      48.456   5.323  16.744  0.00  0.00    +0.000 A 
ATOM     24  C   UNL     1      47.986   5.581  15.477  0.00  0.00    +0.000 A 
ATOM     25  N   UNL     1      48.638   6.374  14.604  0.00  0.00    +0.000 NA
ATOM     26  H   UNL     1      50.624   8.707  14.506  0.00  0.00    +0.000 HD
BRANCH  23  27
ATOM     27  S   UNL     1      47.509   4.302  17.801  0.00  0.00    +0.000 S 
ATOM     28  O   UNL     1      46.674   3.440  16.999  0.00  0.00    +0.000 OA
ATOM     29  O   UNL     1      48.351   3.795  18.859  0.00  0.00    +0.000 OA
BRANCH  27  30
ATOM     30  N   UNL     1      46.474   5.405  18.527  0.00  0.00    +0.000 NA
ATOM     31  H   UNL     1      46.223   5.082  19.462  0.00  0.00    +0.000 HD
ATOM     32  H   UNL     1      46.888   6.339  18.514  0.00  0.00    +0.000 HD
ENDBRANCH  27  30
ENDBRANCH  23  27
ENDBRANCH  18  19
ENDBRANCH  17  18
ENDBRANCH   5  17
TORSDOF 9
ENDMDL
MODEL 3
REMARK VINA RESULT:    -6.429      3.384      4.985
REMARK INTER + INTRA:         -10.689
REMARK INTER:                  -9.160
REMARK INTRA:                  -1.529
REMARK UNBOUND:                -1.253
REMARK  Name = 
REMARK  11 active torsions:
REMARK  status: ('A' for Active; 'I' for Inactive)
REMARK    1  A    between atoms: C_1  and  C_2
REMARK    2  A    between atoms: C_2  and  C_3
REMARK    3  A    between atoms: C_4  and  O_5
REMARK    4  A    between atoms: O_5  and  C_6
REMARK    5  A    between atoms: C_10  and  C_11
REMARK    6  A    between atoms: C_11  and  C_12
REMARK    7  A    between atoms: C_12  and  N_13
REMARK    8  A    between atoms: C_17  and  S_18
REMARK    9  A    between atoms: S_18  and  N_19
REMARK   10  A    between atoms: C_26  and  C_27
REMARK   11  A    between atoms: C_27  and  O_28
REMARK                            x       y       z     vdW  Elec       q    Type
REMARK                         _______ _______ _______ _____ _____    ______ ____
ROOT
ATOM      1  C   UNL     1      49.818   6.996  16.382  0.00  0.00    +0.000 A 
ATOM      2  C   UNL     1      50.435   7.769  17.360  0.00  0.00    +0.000 A 
ATOM      3  C   UNL     1      50.372   9.162  17.294  0.00  0.00    +0.000 A 
ATOM      4  C   UNL     1      49.725   9.789  16.228  0.00  0.00    +0.000 A 
ATOM      5  C   UNL     1      49.154   9.031  15.197  0.00  0.00    +0.000 A 
ATOM      6  C   UNL     1      49.197   7.626  15.303  0.00  0.00    +0.000 A 
ENDROOT
BRANCH   1   7
ATOM      7  O   UNL     1      49.785   5.619  16.384  0.00  0.00    +0.000 OA
BRANCH   7  11
ATOM      8  C   UNL     1      47.303   4.944  17.985  0.00  0.00    +0.000 C 
ATOM      9  C   UNL     1      48.683   4.452  18.397  0.00  0.00    +0.000 C 
ATOM     10  C   UNL     1      48.853   4.540  19.920  0.00  0.00    +0.000 C 
ATOM     11  C   UNL     1      49.956   4.969  17.661  0.00  0.00    +0.000 C 
ATOM     12  O   UNL     1      50.451   3.598  17.549  0.00  0.00    +0.000 OA
ATOM     13  C   UNL     1      49.116   3.079  17.815  0.00  0.00    +0.000 C 
BRANCH  13  14
ATOM     14  C   UNL     1      48.474   2.555  16.530  0.00  0.00    +0.000 C 
BRANCH  14  15
ATOM     15  O   UNL     1      49.396   1.709  15.849  0.00  0.00    +0.000 OA
ATOM     16  H   UNL     1      49.862   1.213  16.550  0.00  0.00    +0.000 HD
ENDBRANCH  14  15
ENDBRANCH  13  14
ENDBRANCH   7  11
ENDBRANCH   1   7
BRANCH   5  17
ATOM     17  C   UNL     1      48.543   9.759  14.008  0.00  0.00    +0.000 C 
BRANCH  17  18
ATOM     18  C   UNL     1      48.243   8.834  12.830  0.00  0.00    +0.000 C 
BRANCH  18  19
ATOM     19  N   UNL     1      46.900   8.998  12.262  0.00  0.00    +0.000 N 
ATOM     20  C   UNL     1      46.240   7.747  12.248  0.00  0.00    +0.000 A 
ATOM     21  C   UNL     1      44.954   7.654  11.722  0.00  0.00    +0.000 A 
ATOM     22  C   UNL     1      44.298   6.419  11.727  0.00  0.00    +0.000 A 
ATOM     23  C   UNL     1      44.949   5.312  12.265  0.00  0.00    +0.000 A 
ATOM     24  C   UNL     1      46.224   5.470  12.758  0.00  0.00    +0.000 A 
ATOM     25  N   UNL     1      46.861   6.659  12.768  0.00  0.00    +0.000 NA
ATOM     26  H   UNL     1      46.926   9.355  11.312  0.00  0.00    +0.000 HD
BRANCH  23  27
ATOM     27  S   UNL     1      44.235   3.717  12.277  0.00  0.00    +0.000 S 
ATOM     28  O   UNL     1      43.368   3.597  13.424  0.00  0.00    +0.000 OA
ATOM     29  O   UNL     1      43.802   3.376  10.942  0.00  0.00    +0.000 OA
BRANCH  27  30
ATOM     30  N   UNL     1      45.560   2.737  12.594  0.00  0.00    +0.000 NA
ATOM     31  H   UNL     1      46.003   2.458  11.717  0.00  0.00    +0.000 HD
ATOM     32  H   UNL     1      46.197   3.203  13.243  0.00  0.00    +0.000 HD
ENDBRANCH  27  30
ENDBRANCH  23  27
ENDBRANCH  18  19
ENDBRANCH  17  18
ENDBRANCH   5  17
TORSDOF 9
ENDMDL
MODEL 4
REMARK VINA RESULT:    -5.852      4.602      7.954
REMARK INTER + INTRA:          -9.843
REMARK INTER:                  -8.228
REMARK INTRA:                  -1.615
REMARK UNBOUND:                -1.253
REMARK  Name = 
REMARK  11 active torsions:
REMARK  status: ('A' for Active; 'I' for Inactive)
REMARK    1  A    between atoms: C_1  and  C_2
REMARK    2  A    between atoms: C_2  and  C_3
REMARK    3  A    between atoms: C_4  and  O_5
REMARK    4  A    between atoms: O_5  and  C_6
REMARK    5  A    between atoms: C_10  and  C_11
REMARK    6  A    between atoms: C_11  and  C_12
REMARK    7  A    between atoms: C_12  and  N_13
REMARK    8  A    between atoms: C_17  and  S_18
REMARK    9  A    between atoms: S_18  and  N_19
REMARK   10  A    between atoms: C_26  and  C_27
REMARK   11  A    between atoms: C_27  and  O_28
REMARK                            x       y       z     vdW  Elec       q    Type
REMARK                         _______ _______ _______ _____ _____    ______ ____
ROOT
ATOM      1  C   UNL     1      46.666   7.424  11.629  0.00  0.00    +0.000 A 
ATOM      2  C   UNL     1      46.013   8.632  11.851  0.00  0.00    +0.000 A 
ATOM      3  C   UNL     1      46.751   9.796  12.068  0.00  0.00    +0.000 A 
ATOM      4  C   UNL     1      48.146   9.751  12.104  0.00  0.00    +0.000 A 
ATOM      5  C   UNL     1      48.823   8.533  11.949  0.00  0.00    +0.000 A 
ATOM      6  C   UNL     1      48.058   7.376  11.694  0.00  0.00    +0.000 A 
ENDROOT
BRANCH   1   7
ATOM      7  O   UNL     1      46.029   6.232  11.359  0.00  0.00    +0.000 OA
BRANCH   7  11
ATOM      8  C   UNL     1      45.154   3.331  11.308  0.00  0.00    +0.000 C 
ATOM      9  C   UNL     1      44.707   4.287  12.407  0.00  0.00    +0.000 C 
ATOM     10  C   UNL     1      43.231   4.051  12.757  0.00  0.00    +0.000 C 
ATOM     11  C   UNL     1      45.021   5.809  12.303  0.00  0.00    +0.000 C 
ATOM     12  O   UNL     1      45.490   5.810  13.687  0.00  0.00    +0.000 OA
ATOM     13  C   UNL     1      45.625   4.359  13.657  0.00  0.00    +0.000 C 
BRANCH  13  14
ATOM     14  C   UNL     1      47.096   3.956  13.552  0.00  0.00    +0.000 C 
BRANCH  14  15
ATOM     15  O   UNL     1      47.432   3.098  14.639  0.00  0.00    +0.000 OA
ATOM     16  H   UNL     1      46.818   3.337  15.360  0.00  0.00    +0.000 HD
ENDBRANCH  14  15
ENDBRANCH  13  14
ENDBRANCH   7  11
ENDBRANCH   1   7
BRANCH   5  17
ATOM     17  C   UNL     1      50.338   8.517  12.091  0.00  0.00    +0.000 C 
BRANCH  17  18
ATOM     18  C   UNL     1      50.805   8.096  13.483  0.00  0.00    +0.000 C 
BRANCH  18  19
ATOM     19  N   UNL     1      50.248   8.903  14.574  0.00  0.00    +0.000 N 
ATOM     20  C   UNL     1      49.662   8.049  15.538  0.00  0.00    +0.000 A 
ATOM     21  C   UNL     1      49.042   8.599  16.657  0.00  0.00    +0.000 A 
ATOM     22  C   UNL     1      48.481   7.752  17.617  0.00  0.00    +0.000 A 
ATOM     23  C   UNL     1      48.563   6.374  17.430  0.00  0.00    +0.000 A 
ATOM     24  C   UNL     1      49.180   5.896  16.297  0.00  0.00    +0.000 A 
ATOM     25  N   UNL     1      49.734   6.705  15.371  0.00  0.00    +0.000 NA
ATOM     26  H   UNL     1      49.536   9.550  14.248  0.00  0.00    +0.000 HD
BRANCH  23  27
ATOM     27  S   UNL     1      47.854   5.231  18.546  0.00  0.00    +0.000 S 
ATOM     28  O   UNL     1      48.856   4.266  18.932  0.00  0.00    +0.000 OA
ATOM     29  O   UNL     1      47.053   5.942  19.515  0.00  0.00    +0.000 OA
BRANCH  27  30
ATOM     30  N   UNL     1      46.768   4.407  17.569  0.00  0.00    +0.000 NA
ATOM     31  H   UNL     1      46.022   4.006  18.140  0.00  0.00    +0.000 HD
ATOM     32  H   UNL     1      46.430   5.017  16.824  0.00  0.00    +0.000 HD
ENDBRANCH  27  30
ENDBRANCH  23  27
ENDBRANCH  18  19
ENDBRANCH  17  18
ENDBRANCH   5  17
TORSDOF 9
ENDMDL
MODEL 5
REMARK VINA RESULT:    -5.557     10.271     12.697
REMARK INTER + INTRA:          -9.409
REMARK INTER:                  -8.027
REMARK INTRA:                  -1.382
REMARK UNBOUND:                -1.253
REMARK  Name = 
REMARK  11 active torsions:
REMARK  status: ('A' for Active; 'I' for Inactive)
REMARK    1  A    between atoms: C_1  and  C_2
REMARK    2  A    between atoms: C_2  and  C_3
REMARK    3  A    between atoms: C_4  and  O_5
REMARK    4  A    between atoms: O_5  and  C_6
REMARK    5  A    between atoms: C_10  and  C_11
REMARK    6  A    between atoms: C_11  and  C_12
REMARK    7  A    between atoms: C_12  and  N_13
REMARK    8  A    between atoms: C_17  and  S_18
REMARK    9  A    between atoms: S_18  and  N_19
REMARK   10  A    between atoms: C_26  and  C_27
REMARK   11  A    between atoms: C_27  and  O_28
REMARK                            x       y       z     vdW  Elec       q    Type
REMARK                         _______ _______ _______ _____ _____    ______ ____
ROOT
ATOM      1  C   UNL     1      40.727  -3.175  14.339  0.00  0.00    +0.000 A 
ATOM      2  C   UNL     1      41.503  -4.279  14.000  0.00  0.00    +0.000 A 
ATOM      3  C   UNL     1      42.022  -5.102  15.001  0.00  0.00    +0.000 A 
ATOM      4  C   UNL     1      41.802  -4.801  16.347  0.00  0.00    +0.000 A 
ATOM      5  C   UNL     1      41.080  -3.657  16.711  0.00  0.00    +0.000 A 
ATOM      6  C   UNL     1      40.533  -2.861  15.684  0.00  0.00    +0.000 A 
ENDROOT
BRANCH   1   7
ATOM      7  O   UNL     1      40.133  -2.331  13.426  0.00  0.00    +0.000 OA
BRANCH   7  11
ATOM      8  C   UNL     1      37.715  -3.685  12.199  0.00  0.00    +0.000 C 
ATOM      9  C   UNL     1      38.905  -3.246  11.356  0.00  0.00    +0.000 C 
ATOM     10  C   UNL     1      39.227  -4.303  10.290  0.00  0.00    +0.000 C 
ATOM     11  C   UNL     1      40.205  -2.725  12.038  0.00  0.00    +0.000 C 
ATOM     12  O   UNL     1      40.236  -1.590  11.118  0.00  0.00    +0.000 OA
ATOM     13  C   UNL     1      38.835  -1.805  10.782  0.00  0.00    +0.000 C 
BRANCH  13  14
ATOM     14  C   UNL     1      37.951  -0.754  11.455  0.00  0.00    +0.000 C 
BRANCH  14  15
ATOM     15  O   UNL     1      38.402   0.548  11.094  0.00  0.00    +0.000 OA
ATOM     16  H   UNL     1      39.336   0.589  11.377  0.00  0.00    +0.000 HD
ENDBRANCH  14  15
ENDBRANCH  13  14
ENDBRANCH   7  11
ENDBRANCH   1   7
BRANCH   5  17
ATOM     17  C   UNL     1      40.946  -3.318  18.190  0.00  0.00    +0.000 C 
BRANCH  17  18
ATOM     18  C   UNL     1      39.525  -2.921  18.585  0.00  0.00    +0.000 C 
BRANCH  18  19
ATOM     19  N   UNL     1      39.456  -1.919  19.655  0.00  0.00    +0.000 N 
ATOM     20  C   UNL     1      39.080  -0.671  19.104  0.00  0.00    +0.000 A 
ATOM     21  C   UNL     1      38.978   0.443  19.934  0.00  0.00    +0.000 A 
ATOM     22  C   UNL     1      38.588   1.671  19.390  0.00  0.00    +0.000 A 
ATOM     23  C   UNL     1      38.305   1.745  18.029  0.00  0.00    +0.000 A 
ATOM     24  C   UNL     1      38.436   0.609  17.264  0.00  0.00    +0.000 A 
ATOM     25  N   UNL     1      38.801  -0.582  17.781  0.00  0.00    +0.000 NA
ATOM     26  H   UNL     1      40.347  -1.802  20.129  0.00  0.00    +0.000 HD
BRANCH  23  27
ATOM     27  S   UNL     1      37.854   3.240  17.243  0.00  0.00    +0.000 S 
ATOM     28  O   UNL     1      37.441   2.956  15.890  0.00  0.00    +0.000 OA
ATOM     29  O   UNL     1      37.051   4.032  18.146  0.00  0.00    +0.000 OA
BRANCH  27  30
ATOM     30  N   UNL     1      39.326   4.035  17.121  0.00  0.00    +0.000 NA
ATOM     31  H   UNL     1      40.091   3.368  17.234  0.00  0.00    +0.000 HD
ATOM     32  H   UNL     1      39.371   4.564  16.249  0.00  0.00    +0.000 HD
ENDBRANCH  27  30
ENDBRANCH  23  27
ENDBRANCH  18  19
ENDBRANCH  17  18
ENDBRANCH   5  17
TORSDOF 9
ENDMDL
MODEL 6
REMARK VINA RESULT:    -5.087      3.944      8.991
REMARK INTER + INTRA:          -8.719
REMARK INTER:                  -8.774
REMARK INTRA:                   0.055
REMARK UNBOUND:                -1.253
REMARK  Name = 
REMARK  11 active torsions:
REMARK  status: ('A' for Active; 'I' for Inactive)
REMARK    1  A    between atoms: C_1  and  C_2
REMARK    2  A    between atoms: C_2  and  C_3
REMARK    3  A    between atoms: C_4  and  O_5
REMARK    4  A    between atoms: O_5  and  C_6
REMARK    5  A    between atoms: C_10  and  C_11
REMARK    6  A    between atoms: C_11  and  C_12
REMARK    7  A    between atoms: C_12  and  N_13
REMARK    8  A    between atoms: C_17  and  S_18
REMARK    9  A    between atoms: S_18  and  N_19
REMARK   10  A    between atoms: C_26  and  C_27
REMARK   11  A    between atoms: C_27  and  O_28
REMARK                            x       y       z     vdW  Elec       q    Type
REMARK                         _______ _______ _______ _____ _____    ______ ____
ROOT
ATOM      1  C   UNL     1      45.561   4.831   9.481  0.00  0.00    +0.000 A 
ATOM      2  C   UNL     1      44.239   4.396   9.480  0.00  0.00    +0.000 A 
ATOM      3  C   UNL     1      43.359   4.830  10.472  0.00  0.00    +0.000 A 
ATOM      4  C   UNL     1      43.806   5.669  11.494  0.00  0.00    +0.000 A 
ATOM      5  C   UNL     1      45.149   6.066  11.553  0.00  0.00    +0.000 A 
ATOM      6  C   UNL     1      46.011   5.647  10.520  0.00  0.00    +0.000 A 
ENDROOT
BRANCH   1   7
ATOM      7  O   UNL     1      46.491   4.498   8.522  0.00  0.00    +0.000 OA
BRANCH   7  11
ATOM      8  C   UNL     1      48.268   2.710   6.840  0.00  0.00    +0.000 C 
ATOM      9  C   UNL     1      46.808   2.958   6.483  0.00  0.00    +0.000 C 
ATOM     10  C   UNL     1      46.647   3.130   4.966  0.00  0.00    +0.000 C 
ATOM     11  C   UNL     1      45.978   4.025   7.258  0.00  0.00    +0.000 C 
ATOM     12  O   UNL     1      44.882   3.069   7.403  0.00  0.00    +0.000 OA
ATOM     13  C   UNL     1      45.782   1.966   7.095  0.00  0.00    +0.000 C 
BRANCH  13  14
ATOM     14  C   UNL     1      46.133   1.185   8.362  0.00  0.00    +0.000 C 
BRANCH  14  15
ATOM     15  O   UNL     1      46.672  -0.084   8.004  0.00  0.00    +0.000 OA
ATOM     16  H   UNL     1      47.317  -0.301   8.704  0.00  0.00    +0.000 HD
ENDBRANCH  14  15
ENDBRANCH  13  14
ENDBRANCH   7  11
ENDBRANCH   1   7
BRANCH   5  17
ATOM     17  C   UNL     1      45.611   6.903  12.738  0.00  0.00    +0.000 C 
BRANCH  17  18
ATOM     18  C   UNL     1      46.823   6.310  13.452  0.00  0.00    +0.000 C 
BRANCH  18  19
ATOM     19  N   UNL     1      46.524   5.122  14.260  0.00  0.00    +0.000 N 
ATOM     20  C   UNL     1      47.462   5.022  15.314  0.00  0.00    +0.000 A 
ATOM     21  C   UNL     1      47.390   3.949  16.199  0.00  0.00    +0.000 A 
ATOM     22  C   UNL     1      48.307   3.864  17.251  0.00  0.00    +0.000 A 
ATOM     23  C   UNL     1      49.267   4.863  17.390  0.00  0.00    +0.000 A 
ATOM     24  C   UNL     1      49.290   5.890  16.475  0.00  0.00    +0.000 A 
ATOM     25  N   UNL     1      48.403   5.987  15.463  0.00  0.00    +0.000 NA
ATOM     26  H   UNL     1      46.567   4.266  13.714  0.00  0.00    +0.000 HD
BRANCH  23  27
ATOM     27  S   UNL     1      50.487   4.826  18.642  0.00  0.00    +0.000 S 
ATOM     28  O   UNL     1      51.517   5.786  18.326  0.00  0.00    +0.000 OA
ATOM     29  O   UNL     1      49.844   4.779  19.935  0.00  0.00    +0.000 OA
BRANCH  27  30
ATOM     30  N   UNL     1      51.179   3.313  18.419  0.00  0.00    +0.000 NA
ATOM     31  H   UNL     1      52.185   3.411  18.274  0.00  0.00    +0.000 HD
ATOM     32  H   UNL     1      50.936   2.696  19.195  0.00  0.00    +0.000 HD
ENDBRANCH  27  30
ENDBRANCH  23  27
ENDBRANCH  18  19
ENDBRANCH  17  18
ENDBRANCH   5  17
TORSDOF 9
ENDMDL
MODEL 7
REMARK VINA RESULT:    -5.060      3.750      8.471
REMARK INTER + INTRA:          -8.680
REMARK INTER:                  -7.572
REMARK INTRA:                  -1.108
REMARK UNBOUND:                -1.253
REMARK  Name = 
REMARK  11 active torsions:
REMARK  status: ('A' for Active; 'I' for Inactive)
REMARK    1  A    between atoms: C_1  and  C_2
REMARK    2  A    between atoms: C_2  and  C_3
REMARK    3  A    between atoms: C_4  and  O_5
REMARK    4  A    between atoms: O_5  and  C_6
REMARK    5  A    between atoms: C_10  and  C_11
REMARK    6  A    between atoms: C_11  and  C_12
REMARK    7  A    between atoms: C_12  and  N_13
REMARK    8  A    between atoms: C_17  and  S_18
REMARK    9  A    between atoms: S_18  and  N_19
REMARK   10  A    between atoms: C_26  and  C_27
REMARK   11  A    between atoms: C_27  and  O_28
REMARK                            x       y       z     vdW  Elec       q    Type
REMARK                         _______ _______ _______ _____ _____    ______ ____
ROOT
ATOM      1  C   UNL     1      45.094   4.088  11.435  0.00  0.00    +0.000 A 
ATOM      2  C   UNL     1      44.017   4.172  12.313  0.00  0.00    +0.000 A 
ATOM      3  C   UNL     1      43.803   5.339  13.048  0.00  0.00    +0.000 A 
ATOM      4  C   UNL     1      44.687   6.414  12.938  0.00  0.00    +0.000 A 
ATOM      5  C   UNL     1      45.815   6.327  12.111  0.00  0.00    +0.000 A 
ATOM      6  C   UNL     1      45.991   5.153  11.350  0.00  0.00    +0.000 A 
ENDROOT
BRANCH   1   7
ATOM      7  O   UNL     1      45.363   3.000  10.634  0.00  0.00    +0.000 OA
BRANCH   7  11
ATOM      8  C   UNL     1      46.169   4.232   7.985  0.00  0.00    +0.000 C 
ATOM      9  C   UNL     1      44.995   3.269   8.100  0.00  0.00    +0.000 C 
ATOM     10  C   UNL     1      43.826   3.741   7.224  0.00  0.00    +0.000 C 
ATOM     11  C   UNL     1      44.493   2.802   9.499  0.00  0.00    +0.000 C 
ATOM     12  O   UNL     1      44.465   1.418   9.029  0.00  0.00    +0.000 OA
ATOM     13  C   UNL     1      45.330   1.765   7.909  0.00  0.00    +0.000 C 
BRANCH  13  14
ATOM     14  C   UNL     1      46.754   1.261   8.150  0.00  0.00    +0.000 C 
BRANCH  14  15
ATOM     15  O   UNL     1      46.793  -0.152   7.977  0.00  0.00    +0.000 OA
ATOM     16  H   UNL     1      46.505  -0.528   8.831  0.00  0.00    +0.000 HD
ENDBRANCH  14  15
ENDBRANCH  13  14
ENDBRANCH   7  11
ENDBRANCH   1   7
BRANCH   5  17
ATOM     17  C   UNL     1      46.801   7.486  12.096  0.00  0.00    +0.000 C 
BRANCH  17  18
ATOM     18  C   UNL     1      48.235   7.056  12.398  0.00  0.00    +0.000 C 
BRANCH  18  19
ATOM     19  N   UNL     1      48.809   7.676  13.597  0.00  0.00    +0.000 N 
ATOM     20  C   UNL     1      48.640   6.808  14.701  0.00  0.00    +0.000 A 
ATOM     21  C   UNL     1      49.087   7.203  15.960  0.00  0.00    +0.000 A 
ATOM     22  C   UNL     1      48.935   6.335  17.045  0.00  0.00    +0.000 A 
ATOM     23  C   UNL     1      48.345   5.091  16.836  0.00  0.00    +0.000 A 
ATOM     24  C   UNL     1      47.917   4.768  15.569  0.00  0.00    +0.000 A 
ATOM     25  N   UNL     1      48.068   5.594  14.514  0.00  0.00    +0.000 NA
ATOM     26  H   UNL     1      48.367   8.563  13.819  0.00  0.00    +0.000 HD
BRANCH  23  27
ATOM     27  S   UNL     1      48.069   3.952  18.133  0.00  0.00    +0.000 S 
ATOM     28  O   UNL     1      49.063   2.908  18.064  0.00  0.00    +0.000 OA
ATOM     29  O   UNL     1      47.790   4.674  19.353  0.00  0.00    +0.000 OA
BRANCH  27  30
ATOM     30  N   UNL     1      46.618   3.241  17.678  0.00  0.00    +0.000 NA
ATOM     31  H   UNL     1      46.519   3.274  16.663  0.00  0.00    +0.000 HD
ATOM     32  H   UNL     1      46.550   2.299  18.066  0.00  0.00    +0.000 HD
ENDBRANCH  27  30
ENDBRANCH  23  27
ENDBRANCH  18  19
ENDBRANCH  17  18
ENDBRANCH   5  17
TORSDOF 9
ENDMDL
