MODEL 1
REMARK VINA RESULT:    -8.540      0.000      0.000
REMARK INTER + INTRA:         -11.843
REMARK INTER:                 -11.036
REMARK INTRA:                  -0.807
REMARK UNBOUND:                -0.807
REMARK  Name = 
REMARK  5 active torsions:
REMARK  status: ('A' for Active; 'I' for Inactive)
REMARK    1  A    between atoms: C_2  and  C_4
REMARK    2  A    between atoms: C_7  and  O_8
REMARK    3  A    between atoms: O_8  and  C_9
REMARK    4  A    between atoms: C_9  and  C_10
REMARK    5  A    between atoms: C_14  and  C_15
REMARK                            x       y       z     vdW  Elec       q    Type
REMARK                         _______ _______ _______ _____ _____    ______ ____
ROOT
ATOM      1  C   UNL     1      43.717   4.256  11.287  0.00  0.00    +0.000 C 
ENDROOT
BRANCH   1   2
ATOM      2  C   UNL     1      44.933   4.742  12.042  0.00  0.00    +0.000 A 
ATOM      3  C   UNL     1      45.618   3.865  12.891  0.00  0.00    +0.000 A 
ATOM      4  C   UNL     1      46.774   4.279  13.546  0.00  0.00    +0.000 A 
ATOM      5  C   UNL     1      47.269   5.570  13.340  0.00  0.00    +0.000 A 
ATOM      6  C   UNL     1      46.636   6.467  12.461  0.00  0.00    +0.000 A 
ATOM      7  C   UNL     1      45.459   6.027  11.828  0.00  0.00    +0.000 A 
BRANCH   6   8
ATOM      8  C   UNL     1      47.213   7.797  12.163  0.00  0.00    +0.000 A 
ATOM      9  C   UNL     1      46.454   8.966  12.317  0.00  0.00    +0.000 A 
ATOM     10  C   UNL     1      47.037  10.199  12.072  0.00  0.00    +0.000 A 
ATOM     11  N   UNL     1      48.321  10.360  11.694  0.00  0.00    +0.000 NA
ATOM     12  C   UNL     1      49.046   9.234  11.548  0.00  0.00    +0.000 A 
ATOM     13  C   UNL     1      48.546   7.957  11.760  0.00  0.00    +0.000 A 
ENDBRANCH   6   8
ENDBRANCH   1   2
BRANCH   1  14
ATOM     14  O   UNL     1      43.757   4.699   9.924  0.00  0.00    +0.000 OA
BRANCH  14  18
ATOM     15  C   UNL     1      46.394   2.440   7.712  0.00  0.00    +0.000 A 
ATOM     16  C   UNL     1      45.554   1.815   8.634  0.00  0.00    +0.000 A 
ATOM     17  C   UNL     1      44.661   2.590   9.377  0.00  0.00    +0.000 A 
ATOM     18  C   UNL     1      44.644   3.962   9.170  0.00  0.00    +0.000 A 
ATOM     19  N   UNL     1      45.447   4.592   8.285  0.00  0.00    +0.000 NA
ATOM     20  C   UNL     1      46.310   3.821   7.584  0.00  0.00    +0.000 A 
BRANCH  15  22
ATOM     21  N   UNL     1      48.452   2.451   6.419  0.00  0.00    +0.000 N 
ATOM     22  C   UNL     1      47.393   1.728   6.893  0.00  0.00    +0.000 C 
ATOM     23  O   UNL     1      47.302   0.527   6.676  0.00  0.00    +0.000 OA
ATOM     24  H   UNL     1      49.179   1.920   5.955  0.00  0.00    +0.000 HD
ATOM     25  H   UNL     1      48.697   3.361   6.778  0.00  0.00    +0.000 HD
ENDBRANCH  15  22
ENDBRANCH  14  18
ENDBRANCH   1  14
TORSDOF 5
ENDMDL
MODEL 2
REMARK VINA RESULT:    -8.309      2.255      3.506
REMARK INTER + INTRA:         -11.544
REMARK INTER:                 -10.863
REMARK INTRA:                  -0.681
REMARK UNBOUND:                -0.807
REMARK  Name = 
REMARK  5 active torsions:
REMARK  status: ('A' for Active; 'I' for Inactive)
REMARK    1  A    between atoms: C_2  and  C_4
REMARK    2  A    between atoms: C_7  and  O_8
REMARK    3  A    between atoms: O_8  and  C_9
REMARK    4  A    between atoms: C_9  and  C_10
REMARK    5  A    between atoms: C_14  and  C_15
REMARK                            x       y       z     vdW  Elec       q    Type
REMARK                         _______ _______ _______ _____ _____    ______ ____
ROOT
ATOM      1  C   UNL     1      44.053   4.471  11.403  0.00  0.00    +0.000 C 
ENDROOT
BRANCH   1   2
ATOM      2  C   UNL     1      45.242   5.215  11.967  0.00  0.00    +0.000 A 
ATOM      3  C   UNL     1      45.646   6.421  11.382  0.00  0.00    +0.000 A 
ATOM      4  C   UNL     1      46.699   7.149  11.927  0.00  0.00    +0.000 A 
ATOM      5  C   UNL     1      47.345   6.689  13.078  0.00  0.00    +0.000 A 
ATOM      6  C   UNL     1      46.941   5.506  13.722  0.00  0.00    +0.000 A 
ATOM      7  C   UNL     1      45.887   4.780  13.137  0.00  0.00    +0.000 A 
BRANCH   6   8
ATOM      8  C   UNL     1      47.556   5.067  14.995  0.00  0.00    +0.000 A 
ATOM      9  C   UNL     1      48.385   5.924  15.731  0.00  0.00    +0.000 A 
ATOM     10  C   UNL     1      48.910   5.498  16.942  0.00  0.00    +0.000 A 
ATOM     11  N   UNL     1      48.665   4.288  17.481  0.00  0.00    +0.000 NA
ATOM     12  C   UNL     1      47.867   3.468  16.770  0.00  0.00    +0.000 A 
ATOM     13  C   UNL     1      47.306   3.803  15.545  0.00  0.00    +0.000 A 
ENDBRANCH   6   8
ENDBRANCH   1   2
BRANCH   1  14
ATOM     14  O   UNL     1      43.896   4.752  10.006  0.00  0.00    +0.000 OA
BRANCH  14  18
ATOM     15  C   UNL     1      46.418   2.426   7.731  0.00  0.00    +0.000 A 
ATOM     16  C   UNL     1      45.614   1.828   8.701  0.00  0.00    +0.000 A 
ATOM     17  C   UNL     1      44.760   2.625   9.466  0.00  0.00    +0.000 A 
ATOM     18  C   UNL     1      44.744   3.992   9.230  0.00  0.00    +0.000 A 
ATOM     19  N   UNL     1      45.513   4.597   8.299  0.00  0.00    +0.000 NA
ATOM     20  C   UNL     1      46.339   3.804   7.577  0.00  0.00    +0.000 A 
BRANCH  15  22
ATOM     21  N   UNL     1      48.469   2.371   6.427  0.00  0.00    +0.000 N 
ATOM     22  C   UNL     1      47.376   1.689   6.884  0.00  0.00    +0.000 C 
ATOM     23  O   UNL     1      47.221   0.502   6.630  0.00  0.00    +0.000 OA
ATOM     24  H   UNL     1      49.166   1.817   5.944  0.00  0.00    +0.000 HD
ATOM     25  H   UNL     1      48.763   3.255   6.814  0.00  0.00    +0.000 HD
ENDBRANCH  15  22
ENDBRANCH  14  18
ENDBRANCH   1  14
TORSDOF 5
ENDMDL
MODEL 3
REMARK VINA RESULT:    -7.993      1.666      2.307
REMARK INTER + INTRA:         -11.136
REMARK INTER:                 -10.380
REMARK INTRA:                  -0.756
REMARK UNBOUND:                -0.807
REMARK  Name = 
REMARK  5 active torsions:
REMARK  status: ('A' for Active; 'I' for Inactive)
REMARK    1  A    between atoms: C_2  and  C_4
REMARK    2  A    between atoms: C_7  and  O_8
REMARK    3  A    between atoms: O_8  and  C_9
REMARK    4  A    between atoms: C_9  and  C_10
REMARK    5  A    between atoms: C_14  and  C_15
REMARK                            x       y       z     vdW  Elec       q    Type
REMARK                         _______ _______ _______ _____ _____    ______ ____
ROOT
ATOM      1  C   UNL     1      44.387   3.251  11.494  0.00  0.00    +0.000 C 
ENDROOT
BRANCH   1   2
ATOM      2  C   UNL     1      44.715   4.725  11.579  0.00  0.00    +0.000 A 
ATOM      3  C   UNL     1      43.705   5.672  11.370  0.00  0.00    +0.000 A 
ATOM      4  C   UNL     1      43.977   7.030  11.505  0.00  0.00    +0.000 A 
ATOM      5  C   UNL     1      45.258   7.453  11.872  0.00  0.00    +0.000 A 
ATOM      6  C   UNL     1      46.287   6.532  12.135  0.00  0.00    +0.000 A 
ATOM      7  C   UNL     1      45.989   5.167  11.971  0.00  0.00    +0.000 A 
BRANCH   6   8
ATOM      8  C   UNL     1      47.615   6.971  12.621  0.00  0.00    +0.000 A 
ATOM      9  C   UNL     1      47.987   6.802  13.961  0.00  0.00    +0.000 A 
ATOM     10  C   UNL     1      49.254   7.184  14.375  0.00  0.00    +0.000 A 
ATOM     11  N   UNL     1      50.183   7.714  13.554  0.00  0.00    +0.000 NA
ATOM     12  C   UNL     1      49.820   7.875  12.266  0.00  0.00    +0.000 A 
ATOM     13  C   UNL     1      48.572   7.532  11.765  0.00  0.00    +0.000 A 
ENDBRANCH   6   8
ENDBRANCH   1   2
BRANCH   1  14
ATOM     14  O   UNL     1      43.787   2.937  10.231  0.00  0.00    +0.000 OA
BRANCH  14  18
ATOM     15  C   UNL     1      46.582   2.532   7.236  0.00  0.00    +0.000 A 
ATOM     16  C   UNL     1      45.886   3.734   7.374  0.00  0.00    +0.000 A 
ATOM     17  C   UNL     1      44.942   3.862   8.395  0.00  0.00    +0.000 A 
ATOM     18  C   UNL     1      44.730   2.781   9.238  0.00  0.00    +0.000 A 
ATOM     19  N   UNL     1      45.388   1.606   9.126  0.00  0.00    +0.000 NA
ATOM     20  C   UNL     1      46.291   1.505   8.123  0.00  0.00    +0.000 A 
BRANCH  15  22
ATOM     21  N   UNL     1      47.659   3.173   5.153  0.00  0.00    +0.000 N 
ATOM     22  C   UNL     1      47.580   2.275   6.180  0.00  0.00    +0.000 C 
ATOM     23  O   UNL     1      48.337   1.315   6.238  0.00  0.00    +0.000 OA
ATOM     24  H   UNL     1      48.424   3.036   4.503  0.00  0.00    +0.000 HD
ATOM     25  H   UNL     1      47.244   4.091   5.197  0.00  0.00    +0.000 HD
ENDBRANCH  15  22
ENDBRANCH  14  18
ENDBRANCH   1  14
TORSDOF 5
ENDMDL
MODEL 4
REMARK VINA RESULT:    -7.761      2.000      2.577
REMARK INTER + INTRA:         -10.837
REMARK INTER:                  -9.962
REMARK INTRA:                  -0.874
REMARK UNBOUND:                -0.807
REMARK  Name = 
REMARK  5 active torsions:
REMARK  status: ('A' for Active; 'I' for Inactive)
REMARK    1  A    between atoms: C_2  and  C_4
REMARK    2  A    between atoms: C_7  and  O_8
REMARK    3  A    between atoms: O_8  and  C_9
REMARK    4  A    between atoms: C_9  and  C_10
REMARK    5  A    between atoms: C_14  and  C_15
REMARK                            x       y       z     vdW  Elec       q    Type
REMARK                         _______ _______ _______ _____ _____    ______ ____
ROOT
ATOM      1  C   UNL     1      44.008   3.903  11.779  0.00  0.00    +0.000 C 
ENDROOT
BRANCH   1   2
ATOM      2  C   UNL     1      44.821   5.156  12.015  0.00  0.00    +0.000 A 
ATOM      3  C   UNL     1      46.151   5.049  12.441  0.00  0.00    +0.000 A 
ATOM      4  C   UNL     1      46.930   6.190  12.604  0.00  0.00    +0.000 A 
ATOM      5  C   UNL     1      46.394   7.449  12.319  0.00  0.00    +0.000 A 
ATOM      6  C   UNL     1      45.078   7.596  11.845  0.00  0.00    +0.000 A 
ATOM      7  C   UNL     1      44.307   6.427  11.710  0.00  0.00    +0.000 A 
BRANCH   6   8
ATOM      8  C   UNL     1      44.541   8.917  11.447  0.00  0.00    +0.000 A 
ATOM      9  C   UNL     1      43.338   9.024  10.736  0.00  0.00    +0.000 A 
ATOM     10  C   UNL     1      42.840  10.278  10.417  0.00  0.00    +0.000 A 
ATOM     11  N   UNL     1      43.442  11.434  10.760  0.00  0.00    +0.000 NA
ATOM     12  C   UNL     1      44.598  11.325  11.443  0.00  0.00    +0.000 A 
ATOM     13  C   UNL     1      45.178  10.115  11.797  0.00  0.00    +0.000 A 
ENDBRANCH   6   8
ENDBRANCH   1   2
BRANCH   1  14
ATOM     14  O   UNL     1      43.504   3.871  10.438  0.00  0.00    +0.000 OA
BRANCH  14  18
ATOM     15  C   UNL     1      46.352   2.665   7.722  0.00  0.00    +0.000 A 
ATOM     16  C   UNL     1      45.969   4.005   7.771  0.00  0.00    +0.000 A 
ATOM     17  C   UNL     1      45.004   4.405   8.698  0.00  0.00    +0.000 A 
ATOM     18  C   UNL     1      44.459   3.446   9.540  0.00  0.00    +0.000 A 
ATOM     19  N   UNL     1      44.811   2.142   9.512  0.00  0.00    +0.000 NA
ATOM     20  C   UNL     1      45.741   1.779   8.599  0.00  0.00    +0.000 A 
BRANCH  15  22
ATOM     21  N   UNL     1      47.550   2.824   5.613  0.00  0.00    +0.000 N 
ATOM     22  C   UNL     1      47.340   2.125   6.768  0.00  0.00    +0.000 C 
ATOM     23  O   UNL     1      47.978   1.110   7.016  0.00  0.00    +0.000 OA
ATOM     24  H   UNL     1      48.310   2.496   5.029  0.00  0.00    +0.000 HD
ATOM     25  H   UNL     1      47.244   3.777   5.487  0.00  0.00    +0.000 HD
ENDBRANCH  15  22
ENDBRANCH  14  18
ENDBRANCH   1  14
TORSDOF 5
ENDMDL
MODEL 5
REMARK VINA RESULT:    -7.476      1.352      2.236
REMARK INTER + INTRA:         -10.468
REMARK INTER:                  -9.701
REMARK INTRA:                  -0.767
REMARK UNBOUND:                -0.807
REMARK  Name = 
REMARK  5 active torsions:
REMARK  status: ('A' for Active; 'I' for Inactive)
REMARK    1  A    between atoms: C_2  and  C_4
REMARK    2  A    between atoms: C_7  and  O_8
REMARK    3  A    between atoms: O_8  and  C_9
REMARK    4  A    between atoms: C_9  and  C_10
REMARK    5  A    between atoms: C_14  and  C_15
REMARK                            x       y       z     vdW  Elec       q    Type
REMARK                         _______ _______ _______ _____ _____    ______ ____
ROOT
ATOM      1  C   UNL     1      45.277   4.985  11.519  0.00  0.00    +0.000 C 
ENDROOT
BRANCH   1   2
ATOM      2  C   UNL     1      45.763   6.387  11.813  0.00  0.00    +0.000 A 
ATOM      3  C   UNL     1      44.937   7.275  12.512  0.00  0.00    +0.000 A 
ATOM      4  C   UNL     1      45.394   8.546  12.844  0.00  0.00    +0.000 A 
ATOM      5  C   UNL     1      46.691   8.936  12.498  0.00  0.00    +0.000 A 
ATOM      6  C   UNL     1      47.568   8.058  11.836  0.00  0.00    +0.000 A 
ATOM      7  C   UNL     1      47.072   6.785  11.495  0.00  0.00    +0.000 A 
BRANCH   6   8
ATOM      8  C   UNL     1      48.974   8.430  11.558  0.00  0.00    +0.000 A 
ATOM      9  C   UNL     1      49.361   9.773  11.458  0.00  0.00    +0.000 A 
ATOM     10  C   UNL     1      50.693  10.088  11.240  0.00  0.00    +0.000 A 
ATOM     11  N   UNL     1      51.672   9.169  11.123  0.00  0.00    +0.000 NA
ATOM     12  C   UNL     1      51.294   7.879  11.220  0.00  0.00    +0.000 A 
ATOM     13  C   UNL     1      49.985   7.468  11.425  0.00  0.00    +0.000 A 
ENDBRANCH   6   8
ENDBRANCH   1   2
BRANCH   1  14
ATOM     14  O   UNL     1      44.571   4.945  10.272  0.00  0.00    +0.000 OA
BRANCH  14  18
ATOM     15  C   UNL     1      46.655   2.828   7.421  0.00  0.00    +0.000 A 
ATOM     16  C   UNL     1      45.874   2.146   8.354  0.00  0.00    +0.000 A 
ATOM     17  C   UNL     1      45.168   2.874   9.315  0.00  0.00    +0.000 A 
ATOM     18  C   UNL     1      45.274   4.257   9.306  0.00  0.00    +0.000 A 
ATOM     19  N   UNL     1      46.024   4.942   8.416  0.00  0.00    +0.000 NA
ATOM     20  C   UNL     1      46.705   4.214   7.500  0.00  0.00    +0.000 A 
BRANCH  15  22
ATOM     21  N   UNL     1      47.801   2.901   5.279  0.00  0.00    +0.000 N 
ATOM     22  C   UNL     1      47.462   2.165   6.380  0.00  0.00    +0.000 C 
ATOM     23  O   UNL     1      47.848   1.011   6.510  0.00  0.00    +0.000 OA
ATOM     24  H   UNL     1      48.446   2.461   4.634  0.00  0.00    +0.000 HD
ATOM     25  H   UNL     1      47.725   3.906   5.249  0.00  0.00    +0.000 HD
ENDBRANCH  15  22
ENDBRANCH  14  18
ENDBRANCH   1  14
TORSDOF 5
ENDMDL
MODEL 6
REMARK VINA RESULT:    -7.466      1.792      2.437
REMARK INTER + INTRA:         -10.455
REMARK INTER:                  -9.729
REMARK INTRA:                  -0.725
REMARK UNBOUND:                -0.807
REMARK  Name = 
REMARK  5 active torsions:
REMARK  status: ('A' for Active; 'I' for Inactive)
REMARK    1  A    between atoms: C_2  and  C_4
REMARK    2  A    between atoms: C_7  and  O_8
REMARK    3  A    between atoms: O_8  and  C_9
REMARK    4  A    between atoms: C_9  and  C_10
REMARK    5  A    between atoms: C_14  and  C_15
REMARK                            x       y       z     vdW  Elec       q    Type
REMARK                         _______ _______ _______ _____ _____    ______ ____
ROOT
ATOM      1  C   UNL     1      44.643   4.519  11.482  0.00  0.00    +0.000 C 
ENDROOT
BRANCH   1   2
ATOM      2  C   UNL     1      45.107   5.929  11.772  0.00  0.00    +0.000 A 
ATOM      3  C   UNL     1      44.365   7.016  11.294  0.00  0.00    +0.000 A 
ATOM      4  C   UNL     1      44.746   8.317  11.605  0.00  0.00    +0.000 A 
ATOM      5  C   UNL     1      45.861   8.545  12.416  0.00  0.00    +0.000 A 
ATOM      6  C   UNL     1      46.606   7.481  12.953  0.00  0.00    +0.000 A 
ATOM      7  C   UNL     1      46.211   6.176  12.606  0.00  0.00    +0.000 A 
BRANCH   6   8
ATOM      8  C   UNL     1      47.726   7.715  13.893  0.00  0.00    +0.000 A 
ATOM      9  C   UNL     1      48.111   9.014  14.251  0.00  0.00    +0.000 A 
ATOM     10  C   UNL     1      49.135   9.198  15.167  0.00  0.00    +0.000 A 
ATOM     11  N   UNL     1      49.800   8.188  15.762  0.00  0.00    +0.000 NA
ATOM     12  C   UNL     1      49.426   6.941  15.414  0.00  0.00    +0.000 A 
ATOM     13  C   UNL     1      48.422   6.660  14.499  0.00  0.00    +0.000 A 
ENDBRANCH   6   8
ENDBRANCH   1   2
BRANCH   1  14
ATOM     14  O   UNL     1      44.054   4.438  10.178  0.00  0.00    +0.000 OA
BRANCH  14  18
ATOM     15  C   UNL     1      46.615   2.684   7.473  0.00  0.00    +0.000 A 
ATOM     16  C   UNL     1      45.915   1.887   8.379  0.00  0.00    +0.000 A 
ATOM     17  C   UNL     1      45.047   2.492   9.290  0.00  0.00    +0.000 A 
ATOM     18  C   UNL     1      44.913   3.872   9.260  0.00  0.00    +0.000 A 
ATOM     19  N   UNL     1      45.580   4.668   8.396  0.00  0.00    +0.000 NA
ATOM     20  C   UNL     1      46.422   4.059   7.529  0.00  0.00    +0.000 A 
BRANCH  15  22
ATOM     21  N   UNL     1      47.844   2.934   5.391  0.00  0.00    +0.000 N 
ATOM     22  C   UNL     1      47.577   2.160   6.485  0.00  0.00    +0.000 C 
ATOM     23  O   UNL     1      48.145   1.089   6.653  0.00  0.00    +0.000 OA
ATOM     24  H   UNL     1      48.587   2.606   4.786  0.00  0.00    +0.000 HD
ATOM     25  H   UNL     1      47.601   3.912   5.341  0.00  0.00    +0.000 HD
ENDBRANCH  15  22
ENDBRANCH  14  18
ENDBRANCH   1  14
TORSDOF 5
ENDMDL
MODEL 7
REMARK VINA RESULT:    -6.794      3.716      7.401
REMARK INTER + INTRA:          -9.587
REMARK INTER:                  -9.006
REMARK INTRA:                  -0.580
REMARK UNBOUND:                -0.807
REMARK  Name = 
REMARK  5 active torsions:
REMARK  status: ('A' for Active; 'I' for Inactive)
REMARK    1  A    between atoms: C_2  and  C_4
REMARK    2  A    between atoms: C_7  and  O_8
REMARK    3  A    between atoms: O_8  and  C_9
REMARK    4  A    between atoms: C_9  and  C_10
REMARK    5  A    between atoms: C_14  and  C_15
REMARK                            x       y       z     vdW  Elec       q    Type
REMARK                         _______ _______ _______ _____ _____    ______ ____
ROOT
ATOM      1  C   UNL     1      45.849   6.867  12.908  0.00  0.00    +0.000 C 
ENDROOT
BRANCH   1   2
ATOM      2  C   UNL     1      45.025   5.854  12.146  0.00  0.00    +0.000 A 
ATOM      3  C   UNL     1      43.660   5.717  12.430  0.00  0.00    +0.000 A 
ATOM      4  C   UNL     1      42.876   4.833  11.696  0.00  0.00    +0.000 A 
ATOM      5  C   UNL     1      43.443   4.093  10.655  0.00  0.00    +0.000 A 
ATOM      6  C   UNL     1      44.799   4.235  10.309  0.00  0.00    +0.000 A 
ATOM      7  C   UNL     1      45.573   5.120  11.081  0.00  0.00    +0.000 A 
BRANCH   6   8
ATOM      8  C   UNL     1      45.379   3.529   9.144  0.00  0.00    +0.000 A 
ATOM      9  C   UNL     1      45.912   4.238   8.059  0.00  0.00    +0.000 A 
ATOM     10  C   UNL     1      46.488   3.547   7.004  0.00  0.00    +0.000 A 
ATOM     11  N   UNL     1      46.582   2.204   6.950  0.00  0.00    +0.000 NA
ATOM     12  C   UNL     1      46.068   1.526   7.996  0.00  0.00    +0.000 A 
ATOM     13  C   UNL     1      45.464   2.131   9.089  0.00  0.00    +0.000 A 
ENDBRANCH   6   8
ENDBRANCH   1   2
BRANCH   1  14
ATOM     14  O   UNL     1      47.227   6.472  12.948  0.00  0.00    +0.000 OA
BRANCH  14  18
ATOM     15  C   UNL     1      48.171   4.707  16.546  0.00  0.00    +0.000 A 
ATOM     16  C   UNL     1      47.227   4.110  15.710  0.00  0.00    +0.000 A 
ATOM     17  C   UNL     1      46.916   4.715  14.491  0.00  0.00    +0.000 A 
ATOM     18  C   UNL     1      47.561   5.896  14.155  0.00  0.00    +0.000 A 
ATOM     19  N   UNL     1      48.478   6.496  14.946  0.00  0.00    +0.000 NA
ATOM     20  C   UNL     1      48.755   5.895  16.126  0.00  0.00    +0.000 A 
BRANCH  15  22
ATOM     21  N   UNL     1      47.738   3.240  18.435  0.00  0.00    +0.000 N 
ATOM     22  C   UNL     1      48.558   4.174  17.866  0.00  0.00    +0.000 C 
ATOM     23  O   UNL     1      49.594   4.523  18.416  0.00  0.00    +0.000 OA
ATOM     24  H   UNL     1      48.081   2.808  19.284  0.00  0.00    +0.000 HD
ATOM     25  H   UNL     1      47.029   2.746  17.915  0.00  0.00    +0.000 HD
ENDBRANCH  15  22
ENDBRANCH  14  18
ENDBRANCH   1  14
TORSDOF 5
ENDMDL
MODEL 8
REMARK VINA RESULT:    -6.780      2.823      7.252
REMARK INTER + INTRA:          -9.569
REMARK INTER:                  -8.871
REMARK INTRA:                  -0.698
REMARK UNBOUND:                -0.807
REMARK  Name = 
REMARK  5 active torsions:
REMARK  status: ('A' for Active; 'I' for Inactive)
REMARK    1  A    between atoms: C_2  and  C_4
REMARK    2  A    between atoms: C_7  and  O_8
REMARK    3  A    between atoms: O_8  and  C_9
REMARK    4  A    between atoms: C_9  and  C_10
REMARK    5  A    between atoms: C_14  and  C_15
REMARK                            x       y       z     vdW  Elec       q    Type
REMARK                         _______ _______ _______ _____ _____    ______ ____
ROOT
ATOM      1  C   UNL     1      44.368   6.551  11.509  0.00  0.00    +0.000 C 
ENDROOT
BRANCH   1   2
ATOM      2  C   UNL     1      44.317   5.091  11.116  0.00  0.00    +0.000 A 
ATOM      3  C   UNL     1      43.426   4.230  11.767  0.00  0.00    +0.000 A 
ATOM      4  C   UNL     1      43.323   2.899  11.374  0.00  0.00    +0.000 A 
ATOM      5  C   UNL     1      44.094   2.421  10.311  0.00  0.00    +0.000 A 
ATOM      6  C   UNL     1      44.967   3.265   9.602  0.00  0.00    +0.000 A 
ATOM      7  C   UNL     1      45.066   4.601  10.033  0.00  0.00    +0.000 A 
BRANCH   6   8
ATOM      8  C   UNL     1      45.710   2.789   8.413  0.00  0.00    +0.000 A 
ATOM      9  C   UNL     1      46.007   3.654   7.351  0.00  0.00    +0.000 A 
ATOM     10  C   UNL     1      46.742   3.188   6.272  0.00  0.00    +0.000 A 
ATOM     11  N   UNL     1      47.213   1.929   6.173  0.00  0.00    +0.000 NA
ATOM     12  C   UNL     1      46.925   1.102   7.197  0.00  0.00    +0.000 A 
ATOM     13  C   UNL     1      46.187   1.475   8.311  0.00  0.00    +0.000 A 
ENDBRANCH   6   8
ENDBRANCH   1   2
BRANCH   1  14
ATOM     14  O   UNL     1      45.628   7.129  11.144  0.00  0.00    +0.000 OA
BRANCH  14  18
ATOM     15  C   UNL     1      48.105   7.619  14.396  0.00  0.00    +0.000 A 
ATOM     16  C   UNL     1      47.215   8.635  14.046  0.00  0.00    +0.000 A 
ATOM     17  C   UNL     1      46.377   8.458  12.943  0.00  0.00    +0.000 A 
ATOM     18  C   UNL     1      46.463   7.270  12.231  0.00  0.00    +0.000 A 
ATOM     19  N   UNL     1      47.316   6.271  12.547  0.00  0.00    +0.000 NA
ATOM     20  C   UNL     1      48.124   6.471  13.615  0.00  0.00    +0.000 A 
BRANCH  15  22
ATOM     21  N   UNL     1      48.535   7.690  16.787  0.00  0.00    +0.000 N 
ATOM     22  C   UNL     1      49.053   7.706  15.523  0.00  0.00    +0.000 C 
ATOM     23  O   UNL     1      50.262   7.753  15.337  0.00  0.00    +0.000 OA
ATOM     24  H   UNL     1      49.209   7.638  17.541  0.00  0.00    +0.000 HD
ATOM     25  H   UNL     1      47.589   7.401  16.987  0.00  0.00    +0.000 HD
ENDBRANCH  15  22
ENDBRANCH  14  18
ENDBRANCH   1  14
TORSDOF 5
ENDMDL
MODEL 9
REMARK VINA RESULT:    -6.717      5.426      7.957
REMARK INTER + INTRA:          -9.487
REMARK INTER:                  -8.770
REMARK INTRA:                  -0.716
REMARK UNBOUND:                -0.807
REMARK  Name = 
REMARK  5 active torsions:
REMARK  status: ('A' for Active; 'I' for Inactive)
REMARK    1  A    between atoms: C_2  and  C_4
REMARK    2  A    between atoms: C_7  and  O_8
REMARK    3  A    between atoms: O_8  and  C_9
REMARK    4  A    between atoms: C_9  and  C_10
REMARK    5  A    between atoms: C_14  and  C_15
REMARK                            x       y       z     vdW  Elec       q    Type
REMARK                         _______ _______ _______ _____ _____    ______ ____
ROOT
ATOM      1  C   UNL     1      48.557   6.030  15.749  0.00  0.00    +0.000 C 
ENDROOT
BRANCH   1   2
ATOM      2  C   UNL     1      47.997   6.271  14.365  0.00  0.00    +0.000 A 
ATOM      3  C   UNL     1      48.603   7.216  13.527  0.00  0.00    +0.000 A 
ATOM      4  C   UNL     1      48.137   7.405  12.230  0.00  0.00    +0.000 A 
ATOM      5  C   UNL     1      47.074   6.635  11.749  0.00  0.00    +0.000 A 
ATOM      6  C   UNL     1      46.468   5.645  12.543  0.00  0.00    +0.000 A 
ATOM      7  C   UNL     1      46.946   5.490  13.857  0.00  0.00    +0.000 A 
BRANCH   6   8
ATOM      8  C   UNL     1      45.410   4.760  12.004  0.00  0.00    +0.000 A 
ATOM      9  C   UNL     1      44.742   3.846  12.830  0.00  0.00    +0.000 A 
ATOM     10  C   UNL     1      43.727   3.063  12.304  0.00  0.00    +0.000 A 
ATOM     11  N   UNL     1      43.318   3.126  11.021  0.00  0.00    +0.000 NA
ATOM     12  C   UNL     1      43.964   4.007  10.232  0.00  0.00    +0.000 A 
ATOM     13  C   UNL     1      44.998   4.823  10.666  0.00  0.00    +0.000 A 
ENDBRANCH   6   8
ENDBRANCH   1   2
BRANCH   1  14
ATOM     14  O   UNL     1      48.023   4.823  16.308  0.00  0.00    +0.000 OA
BRANCH  14  18
ATOM     15  C   UNL     1      51.034   2.226  17.376  0.00  0.00    +0.000 A 
ATOM     16  C   UNL     1      51.101   3.562  17.771  0.00  0.00    +0.000 A 
ATOM     17  C   UNL     1      50.074   4.434  17.406  0.00  0.00    +0.000 A 
ATOM     18  C   UNL     1      49.018   3.935  16.658  0.00  0.00    +0.000 A 
ATOM     19  N   UNL     1      48.928   2.647  16.260  0.00  0.00    +0.000 NA
ATOM     20  C   UNL     1      49.941   1.824  16.619  0.00  0.00    +0.000 A 
BRANCH  15  22
ATOM     21  N   UNL     1      51.664   0.039  18.228  0.00  0.00    +0.000 N 
ATOM     22  C   UNL     1      52.072   1.222  17.680  0.00  0.00    +0.000 C 
ATOM     23  O   UNL     1      53.250   1.424  17.418  0.00  0.00    +0.000 OA
ATOM     24  H   UNL     1      52.378  -0.674  18.324  0.00  0.00    +0.000 HD
ATOM     25  H   UNL     1      50.702  -0.264  18.223  0.00  0.00    +0.000 HD
ENDBRANCH  15  22
ENDBRANCH  14  18
ENDBRANCH   1  14
TORSDOF 5
ENDMDL
