MODEL 1
REMARK VINA RESULT:    -8.486      0.000      0.000
REMARK INTER + INTRA:         -11.579
REMARK INTER:                 -11.463
REMARK INTRA:                  -0.116
REMARK UNBOUND:                -0.116
REMARK  Name = 
REMARK  8 active torsions:
REMARK  status: ('A' for Active; 'I' for Inactive)
REMARK    1  A    between atoms: C_1  and  C_2
REMARK    2  A    between atoms: C_2  and  N_3
REMARK    3  A    between atoms: C_2  and  C_16
REMARK    4  A    between atoms: C_4  and  C_6
REMARK    5  A    between atoms: C_19  and  C_20
REMARK    6  A    between atoms: C_20  and  N_21
REMARK    7  A    between atoms: N_21  and  C_22
REMARK    8  A    between atoms: C_23  and  C_25
REMARK                            x       y       z     vdW  Elec       q    Type
REMARK                         _______ _______ _______ _____ _____    ______ ____
ROOT
ATOM      1  C   UNL     1      46.913   9.357  13.916  0.00  0.00    +0.000 C 
ATOM      2  C   UNL     1      47.587   8.000  13.671  0.00  0.00    +0.000 C 
ENDROOT
BRANCH   2   3
ATOM      3  C   UNL     1      46.716   7.133  12.768  0.00  0.00    +0.000 A 
ATOM      4  C   UNL     1      45.743   7.717  11.946  0.00  0.00    +0.000 A 
ATOM      5  C   UNL     1      44.928   6.924  11.128  0.00  0.00    +0.000 A 
ATOM      6  C   UNL     1      45.048   5.526  11.119  0.00  0.00    +0.000 A 
ATOM      7  C   UNL     1      46.042   4.942  11.914  0.00  0.00    +0.000 A 
ATOM      8  C   UNL     1      46.863   5.736  12.729  0.00  0.00    +0.000 A 
BRANCH   6   9
ATOM      9  C   UNL     1      44.061   4.687  10.335  0.00  0.00    +0.000 C 
BRANCH   9  10
ATOM     10  N   UNL     1      44.651   3.623   9.518  0.00  0.00    +0.000 N 
ATOM     11  C   UNL     1      44.127   2.282   9.722  0.00  0.00    +0.000 C 
ATOM     12  C   UNL     1      45.513   3.985   8.485  0.00  0.00    +0.000 C 
ATOM     13  O   UNL     1      45.905   5.148   8.356  0.00  0.00    +0.000 OA
BRANCH  12  14
ATOM     14  C   UNL     1      45.896   2.931   7.432  0.00  0.00    +0.000 C 
ATOM     15  C   UNL     1      46.569   1.718   8.093  0.00  0.00    +0.000 C 
ATOM     16  C   UNL     1      47.100   0.751   7.043  0.00  0.00    +0.000 C 
ATOM     17  O   UNL     1      48.012   1.412   6.168  0.00  0.00    +0.000 OA
ATOM     18  C   UNL     1      47.395   2.478   5.449  0.00  0.00    +0.000 C 
ATOM     19  C   UNL     1      46.853   3.543   6.398  0.00  0.00    +0.000 C 
ENDBRANCH  12  14
ENDBRANCH   9  10
ENDBRANCH   6   9
ENDBRANCH   2   3
BRANCH   2  20
ATOM     20  N   UNL     1      47.869   7.277  14.904  0.00  0.00    +0.000 N 
ATOM     21  C   UNL     1      49.115   6.805  15.230  0.00  0.00    +0.000 C 
ATOM     22  O   UNL     1      50.109   7.010  14.538  0.00  0.00    +0.000 OA
ATOM     23  H   UNL     1      47.071   6.811  15.325  0.00  0.00    +0.000 HD
BRANCH  21  24
ATOM     24  C   UNL     1      49.225   6.087  16.506  0.00  0.00    +0.000 A 
ATOM     25  C   UNL     1      50.151   6.507  17.450  0.00  0.00    +0.000 A 
ATOM     26  S   UNL     1      50.146   5.573  18.877  0.00  0.00    +0.000 S 
ATOM     27  C   UNL     1      48.937   4.546  18.264  0.00  0.00    +0.000 A 
ATOM     28  N   UNL     1      48.493   3.479  18.981  0.00  0.00    +0.000 NA
ATOM     29  C   UNL     1      47.602   2.767  18.381  0.00  0.00    +0.000 A 
ATOM     30  N   UNL     1      47.100   3.032  17.130  0.00  0.00    +0.000 N 
ATOM     31  C   UNL     1      47.484   4.123  16.389  0.00  0.00    +0.000 A 
ATOM     32  O   UNL     1      46.960   4.382  15.311  0.00  0.00    +0.000 OA
ATOM     33  C   UNL     1      48.514   4.933  17.004  0.00  0.00    +0.000 A 
ATOM     34  H   UNL     1      46.387   2.444  16.724  0.00  0.00    +0.000 HD
ENDBRANCH  21  24
ENDBRANCH   2  20
TORSDOF 6
ENDMDL
MODEL 2
REMARK VINA RESULT:    -7.988      2.456      4.279
REMARK INTER + INTRA:         -10.906
REMARK INTER:                 -10.242
REMARK INTRA:                  -0.664
REMARK UNBOUND:                -0.116
REMARK  Name = 
REMARK  8 active torsions:
REMARK  status: ('A' for Active; 'I' for Inactive)
REMARK    1  A    between atoms: C_1  and  C_2
REMARK    2  A    between atoms: C_2  and  N_3
REMARK    3  A    between atoms: C_2  and  C_16
REMARK    4  A    between atoms: C_4  and  C_6
REMARK    5  A    between atoms: C_19  and  C_20
REMARK    6  A    between atoms: C_20  and  N_21
REMARK    7  A    between atoms: N_21  and  C_22
REMARK    8  A    between atoms: C_23  and  C_25
REMARK                            x       y       z     vdW  Elec       q    Type
REMARK                         _______ _______ _______ _____ _____    ______ ____
ROOT
ATOM      1  C   UNL     1      47.652   4.334  15.790  0.00  0.00    +0.000 C 
ATOM      2  C   UNL     1      47.400   5.634  15.013  0.00  0.00    +0.000 C 
ENDROOT
BRANCH   2   3
ATOM      3  C   UNL     1      46.493   5.367  13.816  0.00  0.00    +0.000 A 
ATOM      4  C   UNL     1      46.106   4.060  13.496  0.00  0.00    +0.000 A 
ATOM      5  C   UNL     1      45.287   3.807  12.387  0.00  0.00    +0.000 A 
ATOM      6  C   UNL     1      44.847   4.849  11.557  0.00  0.00    +0.000 A 
ATOM      7  C   UNL     1      45.205   6.160  11.895  0.00  0.00    +0.000 A 
ATOM      8  C   UNL     1      46.019   6.415  13.009  0.00  0.00    +0.000 A 
BRANCH   6   9
ATOM      9  C   UNL     1      44.084   4.534  10.287  0.00  0.00    +0.000 C 
BRANCH   9  10
ATOM     10  N   UNL     1      44.695   3.520   9.423  0.00  0.00    +0.000 N 
ATOM     11  C   UNL     1      44.191   2.163   9.558  0.00  0.00    +0.000 C 
ATOM     12  C   UNL     1      45.557   3.946   8.413  0.00  0.00    +0.000 C 
ATOM     13  O   UNL     1      45.931   5.120   8.345  0.00  0.00    +0.000 OA
BRANCH  12  14
ATOM     14  C   UNL     1      45.962   2.951   7.313  0.00  0.00    +0.000 C 
ATOM     15  C   UNL     1      46.640   1.713   7.918  0.00  0.00    +0.000 C 
ATOM     16  C   UNL     1      47.192   0.806   6.826  0.00  0.00    +0.000 C 
ATOM     17  O   UNL     1      48.106   1.520   5.996  0.00  0.00    +0.000 OA
ATOM     18  C   UNL     1      47.486   2.615   5.326  0.00  0.00    +0.000 C 
ATOM     19  C   UNL     1      46.923   3.625   6.322  0.00  0.00    +0.000 C 
ENDBRANCH  12  14
ENDBRANCH   9  10
ENDBRANCH   6   9
ENDBRANCH   2   3
BRANCH   2  20
ATOM     20  N   UNL     1      48.629   6.265  14.553  0.00  0.00    +0.000 N 
ATOM     21  C   UNL     1      49.304   7.214  15.278  0.00  0.00    +0.000 C 
ATOM     22  O   UNL     1      48.961   7.562  16.404  0.00  0.00    +0.000 OA
ATOM     23  H   UNL     1      48.765   6.266  13.546  0.00  0.00    +0.000 HD
BRANCH  21  24
ATOM     24  C   UNL     1      50.521   7.758  14.663  0.00  0.00    +0.000 A 
ATOM     25  C   UNL     1      51.719   7.720  15.364  0.00  0.00    +0.000 A 
ATOM     26  S   UNL     1      53.035   8.383  14.508  0.00  0.00    +0.000 S 
ATOM     27  C   UNL     1      52.042   8.787  13.187  0.00  0.00    +0.000 A 
ATOM     28  N   UNL     1      52.545   9.440  12.106  0.00  0.00    +0.000 NA
ATOM     29  C   UNL     1      51.674   9.715  11.197  0.00  0.00    +0.000 A 
ATOM     30  N   UNL     1      50.343   9.383  11.262  0.00  0.00    +0.000 N 
ATOM     31  C   UNL     1      49.800   8.684  12.312  0.00  0.00    +0.000 A 
ATOM     32  O   UNL     1      48.626   8.329  12.308  0.00  0.00    +0.000 OA
ATOM     33  C   UNL     1      50.732   8.387  13.380  0.00  0.00    +0.000 A 
ATOM     34  H   UNL     1      49.715   9.611  10.505  0.00  0.00    +0.000 HD
ENDBRANCH  21  24
ENDBRANCH   2  20
TORSDOF 6
ENDMDL
MODEL 3
REMARK VINA RESULT:    -7.899      3.598      5.143
REMARK INTER + INTRA:         -10.786
REMARK INTER:                 -10.354
REMARK INTRA:                  -0.432
REMARK UNBOUND:                -0.116
REMARK  Name = 
REMARK  8 active torsions:
REMARK  status: ('A' for Active; 'I' for Inactive)
REMARK    1  A    between atoms: C_1  and  C_2
REMARK    2  A    between atoms: C_2  and  N_3
REMARK    3  A    between atoms: C_2  and  C_16
REMARK    4  A    between atoms: C_4  and  C_6
REMARK    5  A    between atoms: C_19  and  C_20
REMARK    6  A    between atoms: C_20  and  N_21
REMARK    7  A    between atoms: N_21  and  C_22
REMARK    8  A    between atoms: C_23  and  C_25
REMARK                            x       y       z     vdW  Elec       q    Type
REMARK                         _______ _______ _______ _____ _____    ______ ____
ROOT
ATOM      1  C   UNL     1      48.436   6.286  15.376  0.00  0.00    +0.000 C 
ATOM      2  C   UNL     1      48.317   7.112  14.088  0.00  0.00    +0.000 C 
ENDROOT
BRANCH   2   3
ATOM      3  C   UNL     1      47.204   6.558  13.205  0.00  0.00    +0.000 A 
ATOM      4  C   UNL     1      46.858   5.202  13.265  0.00  0.00    +0.000 A 
ATOM      5  C   UNL     1      45.849   4.684  12.443  0.00  0.00    +0.000 A 
ATOM      6  C   UNL     1      45.170   5.498  11.526  0.00  0.00    +0.000 A 
ATOM      7  C   UNL     1      45.490   6.861  11.487  0.00  0.00    +0.000 A 
ATOM      8  C   UNL     1      46.496   7.383  12.314  0.00  0.00    +0.000 A 
BRANCH   6   9
ATOM      9  C   UNL     1      44.186   4.884  10.552  0.00  0.00    +0.000 C 
BRANCH   9  10
ATOM     10  N   UNL     1      44.715   3.791   9.731  0.00  0.00    +0.000 N 
ATOM     11  C   UNL     1      44.175   2.466   9.988  0.00  0.00    +0.000 C 
ATOM     12  C   UNL     1      45.533   4.115   8.649  0.00  0.00    +0.000 C 
ATOM     13  O   UNL     1      45.941   5.267   8.478  0.00  0.00    +0.000 OA
BRANCH  12  14
ATOM     14  C   UNL     1      45.844   3.032   7.602  0.00  0.00    +0.000 C 
ATOM     15  C   UNL     1      46.453   1.788   8.267  0.00  0.00    +0.000 C 
ATOM     16  C   UNL     1      46.917   0.784   7.220  0.00  0.00    +0.000 C 
ATOM     17  O   UNL     1      47.855   1.385   6.329  0.00  0.00    +0.000 OA
ATOM     18  C   UNL     1      47.293   2.478   5.607  0.00  0.00    +0.000 C 
ATOM     19  C   UNL     1      46.822   3.580   6.553  0.00  0.00    +0.000 C 
ENDBRANCH  12  14
ENDBRANCH   9  10
ENDBRANCH   6   9
ENDBRANCH   2   3
BRANCH   2  20
ATOM     20  N   UNL     1      49.558   7.157  13.326  0.00  0.00    +0.000 N 
ATOM     21  C   UNL     1      49.993   8.275  12.663  0.00  0.00    +0.000 C 
ATOM     22  O   UNL     1      49.403   9.351  12.709  0.00  0.00    +0.000 OA
ATOM     23  H   UNL     1      49.893   6.258  12.992  0.00  0.00    +0.000 HD
BRANCH  21  24
ATOM     24  C   UNL     1      51.261   8.146  11.933  0.00  0.00    +0.000 A 
ATOM     25  C   UNL     1      51.267   7.585  10.664  0.00  0.00    +0.000 A 
ATOM     26  S   UNL     1      52.815   7.516   9.953  0.00  0.00    +0.000 S 
ATOM     27  C   UNL     1      53.539   8.191  11.336  0.00  0.00    +0.000 A 
ATOM     28  N   UNL     1      54.886   8.364  11.408  0.00  0.00    +0.000 NA
ATOM     29  C   UNL     1      55.301   8.851  12.527  0.00  0.00    +0.000 A 
ATOM     30  N   UNL     1      54.490   9.196  13.580  0.00  0.00    +0.000 N 
ATOM     31  C   UNL     1      53.121   9.083  13.535  0.00  0.00    +0.000 A 
ATOM     32  O   UNL     1      52.415   9.475  14.457  0.00  0.00    +0.000 OA
ATOM     33  C   UNL     1      52.609   8.501  12.312  0.00  0.00    +0.000 A 
ATOM     34  H   UNL     1      54.878   9.593  14.423  0.00  0.00    +0.000 HD
ENDBRANCH  21  24
ENDBRANCH   2  20
TORSDOF 6
ENDMDL
MODEL 4
REMARK VINA RESULT:    -7.796      3.107      4.623
REMARK INTER + INTRA:         -10.646
REMARK INTER:                  -9.790
REMARK INTRA:                  -0.857
REMARK UNBOUND:                -0.116
REMARK  Name = 
REMARK  8 active torsions:
REMARK  status: ('A' for Active; 'I' for Inactive)
REMARK    1  A    between atoms: C_1  and  C_2
REMARK    2  A    between atoms: C_2  and  N_3
REMARK    3  A    between atoms: C_2  and  C_16
REMARK    4  A    between atoms: C_4  and  C_6
REMARK    5  A    between atoms: C_19  and  C_20
REMARK    6  A    between atoms: C_20  and  N_21
REMARK    7  A    between atoms: N_21  and  C_22
REMARK    8  A    between atoms: C_23  and  C_25
REMARK                            x       y       z     vdW  Elec       q    Type
REMARK                         _______ _______ _______ _____ _____    ______ ____
ROOT
ATOM      1  C   UNL     1      48.336   5.616  16.057  0.00  0.00    +0.000 C 
ATOM      2  C   UNL     1      48.245   6.700  14.974  0.00  0.00    +0.000 C 
ENDROOT
BRANCH   2   3
ATOM      3  C   UNL     1      47.333   6.240  13.842  0.00  0.00    +0.000 A 
ATOM      4  C   UNL     1      47.005   7.111  12.795  0.00  0.00    +0.000 A 
ATOM      5  C   UNL     1      46.153   6.699  11.762  0.00  0.00    +0.000 A 
ATOM      6  C   UNL     1      45.589   5.415  11.754  0.00  0.00    +0.000 A 
ATOM      7  C   UNL     1      45.941   4.531  12.781  0.00  0.00    +0.000 A 
ATOM      8  C   UNL     1      46.800   4.940  13.813  0.00  0.00    +0.000 A 
BRANCH   6   9
ATOM      9  C   UNL     1      44.560   5.047  10.704  0.00  0.00    +0.000 C 
BRANCH   9  10
ATOM     10  N   UNL     1      44.931   3.933   9.826  0.00  0.00    +0.000 N 
ATOM     11  C   UNL     1      44.280   2.659  10.085  0.00  0.00    +0.000 C 
ATOM     12  C   UNL     1      45.712   4.208   8.705  0.00  0.00    +0.000 C 
ATOM     13  O   UNL     1      46.220   5.320   8.536  0.00  0.00    +0.000 OA
BRANCH  12  14
ATOM     14  C   UNL     1      45.853   3.132   7.615  0.00  0.00    +0.000 C 
ATOM     15  C   UNL     1      46.523   1.869   8.178  0.00  0.00    +0.000 C 
ATOM     16  C   UNL     1      46.817   0.869   7.068  0.00  0.00    +0.000 C 
ATOM     17  O   UNL     1      47.635   1.462   6.062  0.00  0.00    +0.000 OA
ATOM     18  C   UNL     1      47.001   2.574   5.435  0.00  0.00    +0.000 C 
ATOM     19  C   UNL     1      46.688   3.674   6.446  0.00  0.00    +0.000 C 
ENDBRANCH  12  14
ENDBRANCH   9  10
ENDBRANCH   6   9
ENDBRANCH   2   3
BRANCH   2  20
ATOM     20  N   UNL     1      49.545   7.063  14.426  0.00  0.00    +0.000 N 
ATOM     21  C   UNL     1      50.062   8.332  14.495  0.00  0.00    +0.000 C 
ATOM     22  O   UNL     1      49.498   9.251  15.082  0.00  0.00    +0.000 OA
ATOM     23  H   UNL     1      49.883   6.463  13.679  0.00  0.00    +0.000 HD
BRANCH  21  24
ATOM     24  C   UNL     1      51.381   8.530  13.882  0.00  0.00    +0.000 A 
ATOM     25  C   UNL     1      52.448   8.938  14.670  0.00  0.00    +0.000 A 
ATOM     26  S   UNL     1      53.909   9.114  13.808  0.00  0.00    +0.000 S 
ATOM     27  C   UNL     1      53.155   8.697  12.341  0.00  0.00    +0.000 A 
ATOM     28  N   UNL     1      53.849   8.698  11.171  0.00  0.00    +0.000 NA
ATOM     29  C   UNL     1      53.145   8.398  10.134  0.00  0.00    +0.000 A 
ATOM     30  N   UNL     1      51.810   8.079  10.160  0.00  0.00    +0.000 N 
ATOM     31  C   UNL     1      51.080   8.018  11.322  0.00  0.00    +0.000 A 
ATOM     32  O   UNL     1      49.910   7.651  11.327  0.00  0.00    +0.000 OA
ATOM     33  C   UNL     1      51.817   8.388  12.512  0.00  0.00    +0.000 A 
ATOM     34  H   UNL     1      51.320   7.832   9.312  0.00  0.00    +0.000 HD
ENDBRANCH  21  24
ENDBRANCH   2  20
TORSDOF 6
ENDMDL
MODEL 5
REMARK VINA RESULT:    -7.565      2.527      3.714
REMARK INTER + INTRA:         -10.334
REMARK INTER:                  -9.765
REMARK INTRA:                  -0.569
REMARK UNBOUND:                -0.116
REMARK  Name = 
REMARK  8 active torsions:
REMARK  status: ('A' for Active; 'I' for Inactive)
REMARK    1  A    between atoms: C_1  and  C_2
REMARK    2  A    between atoms: C_2  and  N_3
REMARK    3  A    between atoms: C_2  and  C_16
REMARK    4  A    between atoms: C_4  and  C_6
REMARK    5  A    between atoms: C_19  and  C_20
REMARK    6  A    between atoms: C_20  and  N_21
REMARK    7  A    between atoms: N_21  and  C_22
REMARK    8  A    between atoms: C_23  and  C_25
REMARK                            x       y       z     vdW  Elec       q    Type
REMARK                         _______ _______ _______ _____ _____    ______ ____
ROOT
ATOM      1  C   UNL     1      47.611   3.742  15.797  0.00  0.00    +0.000 C 
ATOM      2  C   UNL     1      47.324   5.161  15.288  0.00  0.00    +0.000 C 
ENDROOT
BRANCH   2   3
ATOM      3  C   UNL     1      46.503   5.106  14.004  0.00  0.00    +0.000 A 
ATOM      4  C   UNL     1      45.559   4.090  13.808  0.00  0.00    +0.000 A 
ATOM      5  C   UNL     1      44.814   4.025  12.623  0.00  0.00    +0.000 A 
ATOM      6  C   UNL     1      45.003   4.959  11.594  0.00  0.00    +0.000 A 
ATOM      7  C   UNL     1      45.921   5.995  11.802  0.00  0.00    +0.000 A 
ATOM      8  C   UNL     1      46.663   6.066  12.990  0.00  0.00    +0.000 A 
BRANCH   6   9
ATOM      9  C   UNL     1      44.289   4.781  10.270  0.00  0.00    +0.000 C 
BRANCH   9  10
ATOM     10  N   UNL     1      44.813   3.713   9.413  0.00  0.00    +0.000 N 
ATOM     11  C   UNL     1      44.189   2.407   9.550  0.00  0.00    +0.000 C 
ATOM     12  C   UNL     1      45.716   4.056   8.408  0.00  0.00    +0.000 C 
ATOM     13  O   UNL     1      46.193   5.192   8.338  0.00  0.00    +0.000 OA
BRANCH  12  14
ATOM     14  C   UNL     1      46.038   3.024   7.314  0.00  0.00    +0.000 C 
ATOM     15  C   UNL     1      46.700   1.777   7.917  0.00  0.00    +0.000 C 
ATOM     16  C   UNL     1      47.172   0.829   6.823  0.00  0.00    +0.000 C 
ATOM     17  O   UNL     1      48.071   1.492   5.937  0.00  0.00    +0.000 OA
ATOM     18  C   UNL     1      47.459   2.593   5.270  0.00  0.00    +0.000 C 
ATOM     19  C   UNL     1      46.975   3.643   6.266  0.00  0.00    +0.000 C 
ENDBRANCH  12  14
ENDBRANCH   9  10
ENDBRANCH   6   9
ENDBRANCH   2   3
BRANCH   2  20
ATOM     20  N   UNL     1      48.536   5.933  15.051  0.00  0.00    +0.000 N 
ATOM     21  C   UNL     1      49.134   6.709  16.011  0.00  0.00    +0.000 C 
ATOM     22  O   UNL     1      48.731   6.765  17.170  0.00  0.00    +0.000 OA
ATOM     23  H   UNL     1      48.709   6.179  14.080  0.00  0.00    +0.000 HD
BRANCH  21  24
ATOM     24  C   UNL     1      50.344   7.432  15.602  0.00  0.00    +0.000 A 
ATOM     25  C   UNL     1      50.229   8.572  14.818  0.00  0.00    +0.000 A 
ATOM     26  S   UNL     1      51.725   9.296  14.438  0.00  0.00    +0.000 S 
ATOM     27  C   UNL     1      52.583   8.084  15.268  0.00  0.00    +0.000 A 
ATOM     28  N   UNL     1      53.943   8.080  15.293  0.00  0.00    +0.000 NA
ATOM     29  C   UNL     1      54.461   7.084  15.927  0.00  0.00    +0.000 A 
ATOM     30  N   UNL     1      53.742   6.096  16.554  0.00  0.00    +0.000 N 
ATOM     31  C   UNL     1      52.369   6.085  16.595  0.00  0.00    +0.000 A 
ATOM     32  O   UNL     1      51.753   5.236  17.231  0.00  0.00    +0.000 OA
ATOM     33  C   UNL     1      51.739   7.162  15.861  0.00  0.00    +0.000 A 
ATOM     34  H   UNL     1      54.210   5.353  17.052  0.00  0.00    +0.000 HD
ENDBRANCH  21  24
ENDBRANCH   2  20
TORSDOF 6
ENDMDL
MODEL 6
REMARK VINA RESULT:    -6.530      2.146      3.534
REMARK INTER + INTRA:          -8.936
REMARK INTER:                  -9.131
REMARK INTRA:                   0.195
REMARK UNBOUND:                -0.116
REMARK  Name = 
REMARK  8 active torsions:
REMARK  status: ('A' for Active; 'I' for Inactive)
REMARK    1  A    between atoms: C_1  and  C_2
REMARK    2  A    between atoms: C_2  and  N_3
REMARK    3  A    between atoms: C_2  and  C_16
REMARK    4  A    between atoms: C_4  and  C_6
REMARK    5  A    between atoms: C_19  and  C_20
REMARK    6  A    between atoms: C_20  and  N_21
REMARK    7  A    between atoms: N_21  and  C_22
REMARK    8  A    between atoms: C_23  and  C_25
REMARK                            x       y       z     vdW  Elec       q    Type
REMARK                         _______ _______ _______ _____ _____    ______ ____
ROOT
ATOM      1  C   UNL     1      48.068   2.893  15.615  0.00  0.00    +0.000 C 
ATOM      2  C   UNL     1      47.178   4.143  15.656  0.00  0.00    +0.000 C 
ENDROOT
BRANCH   2   3
ATOM      3  C   UNL     1      46.663   4.471  14.259  0.00  0.00    +0.000 A 
ATOM      4  C   UNL     1      46.942   5.712  13.672  0.00  0.00    +0.000 A 
ATOM      5  C   UNL     1      46.457   6.026  12.396  0.00  0.00    +0.000 A 
ATOM      6  C   UNL     1      45.664   5.119  11.677  0.00  0.00    +0.000 A 
ATOM      7  C   UNL     1      45.411   3.865  12.247  0.00  0.00    +0.000 A 
ATOM      8  C   UNL     1      45.903   3.547  13.522  0.00  0.00    +0.000 A 
BRANCH   6   9
ATOM      9  C   UNL     1      45.035   5.539  10.365  0.00  0.00    +0.000 C 
BRANCH   9  10
ATOM     10  N   UNL     1      45.525   4.829   9.179  0.00  0.00    +0.000 N 
ATOM     11  C   UNL     1      46.804   5.266   8.644  0.00  0.00    +0.000 C 
ATOM     12  C   UNL     1      44.849   3.681   8.771  0.00  0.00    +0.000 C 
ATOM     13  O   UNL     1      43.774   3.355   9.282  0.00  0.00    +0.000 OA
BRANCH  12  14
ATOM     14  C   UNL     1      45.512   2.756   7.735  0.00  0.00    +0.000 C 
ATOM     15  C   UNL     1      46.149   1.538   8.420  0.00  0.00    +0.000 C 
ATOM     16  C   UNL     1      46.949   0.710   7.423  0.00  0.00    +0.000 C 
ATOM     17  O   UNL     1      47.948   1.509   6.795  0.00  0.00    +0.000 OA
ATOM     18  C   UNL     1      47.389   2.591   6.053  0.00  0.00    +0.000 C 
ATOM     19  C   UNL     1      46.589   3.525   6.957  0.00  0.00    +0.000 C 
ENDBRANCH  12  14
ENDBRANCH   9  10
ENDBRANCH   6   9
ENDBRANCH   2   3
BRANCH   2  20
ATOM     20  N   UNL     1      47.861   5.307  16.203  0.00  0.00    +0.000 N 
ATOM     21  C   UNL     1      47.909   5.590  17.544  0.00  0.00    +0.000 C 
ATOM     22  O   UNL     1      47.434   4.849  18.400  0.00  0.00    +0.000 OA
ATOM     23  H   UNL     1      47.972   6.086  15.559  0.00  0.00    +0.000 HD
BRANCH  21  24
ATOM     24  C   UNL     1      48.630   6.810  17.925  0.00  0.00    +0.000 A 
ATOM     25  C   UNL     1      47.953   7.831  18.578  0.00  0.00    +0.000 A 
ATOM     26  S   UNL     1      48.935   9.172  18.957  0.00  0.00    +0.000 S 
ATOM     27  C   UNL     1      50.290   8.456  18.220  0.00  0.00    +0.000 A 
ATOM     28  N   UNL     1      51.479   9.113  18.150  0.00  0.00    +0.000 NA
ATOM     29  C   UNL     1      52.408   8.468  17.532  0.00  0.00    +0.000 A 
ATOM     30  N   UNL     1      52.264   7.215  16.989  0.00  0.00    +0.000 N 
ATOM     31  C   UNL     1      51.097   6.495  17.076  0.00  0.00    +0.000 A 
ATOM     32  O   UNL     1      51.019   5.346  16.655  0.00  0.00    +0.000 OA
ATOM     33  C   UNL     1      50.009   7.195  17.726  0.00  0.00    +0.000 A 
ATOM     34  H   UNL     1      53.039   6.756  16.535  0.00  0.00    +0.000 HD
ENDBRANCH  21  24
ENDBRANCH   2  20
TORSDOF 6
ENDMDL
MODEL 7
REMARK VINA RESULT:    -6.393      4.542      9.192
REMARK INTER + INTRA:          -8.751
REMARK INTER:                  -7.639
REMARK INTRA:                  -1.112
REMARK UNBOUND:                -0.116
REMARK  Name = 
REMARK  8 active torsions:
REMARK  status: ('A' for Active; 'I' for Inactive)
REMARK    1  A    between atoms: C_1  and  C_2
REMARK    2  A    between atoms: C_2  and  N_3
REMARK    3  A    between atoms: C_2  and  C_16
REMARK    4  A    between atoms: C_4  and  C_6
REMARK    5  A    between atoms: C_19  and  C_20
REMARK    6  A    between atoms: C_20  and  N_21
REMARK    7  A    between atoms: N_21  and  C_22
REMARK    8  A    between atoms: C_23  and  C_25
REMARK                            x       y       z     vdW  Elec       q    Type
REMARK                         _______ _______ _______ _____ _____    ______ ____
ROOT
ATOM      1  C   UNL     1      46.316   4.441  13.831  0.00  0.00    +0.000 C 
ATOM      2  C   UNL     1      47.267   5.626  13.610  0.00  0.00    +0.000 C 
ENDROOT
BRANCH   2   3
ATOM      3  C   UNL     1      48.065   5.906  14.879  0.00  0.00    +0.000 A 
ATOM      4  C   UNL     1      49.003   6.946  14.913  0.00  0.00    +0.000 A 
ATOM      5  C   UNL     1      49.752   7.196  16.070  0.00  0.00    +0.000 A 
ATOM      6  C   UNL     1      49.600   6.406  17.218  0.00  0.00    +0.000 A 
ATOM      7  C   UNL     1      48.640   5.387  17.198  0.00  0.00    +0.000 A 
ATOM      8  C   UNL     1      47.884   5.140  16.042  0.00  0.00    +0.000 A 
BRANCH   6   9
ATOM      9  C   UNL     1      50.523   6.607  18.403  0.00  0.00    +0.000 C 
BRANCH   9  10
ATOM     10  N   UNL     1      51.200   5.400  18.883  0.00  0.00    +0.000 N 
ATOM     11  C   UNL     1      50.708   4.831  20.127  0.00  0.00    +0.000 C 
ATOM     12  C   UNL     1      52.116   4.776  18.038  0.00  0.00    +0.000 C 
ATOM     13  O   UNL     1      52.478   5.306  16.984  0.00  0.00    +0.000 OA
BRANCH  12  14
ATOM     14  C   UNL     1      52.602   3.358  18.384  0.00  0.00    +0.000 C 
ATOM     15  C   UNL     1      54.089   3.190  18.035  0.00  0.00    +0.000 C 
ATOM     16  C   UNL     1      54.530   1.744  18.218  0.00  0.00    +0.000 C 
ATOM     17  O   UNL     1      53.729   0.871  17.425  0.00  0.00    +0.000 OA
ATOM     18  C   UNL     1      52.353   0.914  17.794  0.00  0.00    +0.000 C 
ATOM     19  C   UNL     1      51.777   2.317  17.615  0.00  0.00    +0.000 C 
ENDBRANCH  12  14
ENDBRANCH   9  10
ENDBRANCH   6   9
ENDBRANCH   2   3
BRANCH   2  20
ATOM     20  N   UNL     1      46.575   6.840  13.199  0.00  0.00    +0.000 N 
ATOM     21  C   UNL     1      47.028   7.663  12.201  0.00  0.00    +0.000 C 
ATOM     22  O   UNL     1      48.023   7.410  11.528  0.00  0.00    +0.000 OA
ATOM     23  H   UNL     1      45.970   7.252  13.904  0.00  0.00    +0.000 HD
BRANCH  21  24
ATOM     24  C   UNL     1      46.216   8.853  11.921  0.00  0.00    +0.000 A 
ATOM     25  C   UNL     1      46.772  10.115  12.077  0.00  0.00    +0.000 A 
ATOM     26  S   UNL     1      45.700  11.388  11.704  0.00  0.00    +0.000 S 
ATOM     27  C   UNL     1      44.439  10.297  11.365  0.00  0.00    +0.000 A 
ATOM     28  N   UNL     1      43.201  10.743  11.021  0.00  0.00    +0.000 NA
ATOM     29  C   UNL     1      42.334   9.809  10.828  0.00  0.00    +0.000 A 
ATOM     30  N   UNL     1      42.595   8.464  10.932  0.00  0.00    +0.000 N 
ATOM     31  C   UNL     1      43.841   7.968  11.229  0.00  0.00    +0.000 A 
ATOM     32  O   UNL     1      44.066   6.762  11.234  0.00  0.00    +0.000 OA
ATOM     33  C   UNL     1      44.841   8.980  11.496  0.00  0.00    +0.000 A 
ATOM     34  H   UNL     1      41.874   7.782  10.747  0.00  0.00    +0.000 HD
ENDBRANCH  21  24
ENDBRANCH   2  20
TORSDOF 6
ENDMDL
MODEL 8
REMARK VINA RESULT:    -6.283      4.878      5.960
REMARK INTER + INTRA:          -8.603
REMARK INTER:                  -7.484
REMARK INTRA:                  -1.119
REMARK UNBOUND:                -0.116
REMARK  Name = 
REMARK  8 active torsions:
REMARK  status: ('A' for Active; 'I' for Inactive)
REMARK    1  A    between atoms: C_1  and  C_2
REMARK    2  A    between atoms: C_2  and  N_3
REMARK    3  A    between atoms: C_2  and  C_16
REMARK    4  A    between atoms: C_4  and  C_6
REMARK    5  A    between atoms: C_19  and  C_20
REMARK    6  A    between atoms: C_20  and  N_21
REMARK    7  A    between atoms: N_21  and  C_22
REMARK    8  A    between atoms: C_23  and  C_25
REMARK                            x       y       z     vdW  Elec       q    Type
REMARK                         _______ _______ _______ _____ _____    ______ ____
ROOT
ATOM      1  C   UNL     1      47.185   7.027  11.600  0.00  0.00    +0.000 C 
ATOM      2  C   UNL     1      48.083   7.805  12.572  0.00  0.00    +0.000 C 
ENDROOT
BRANCH   2   3
ATOM      3  C   UNL     1      49.351   8.270  11.862  0.00  0.00    +0.000 A 
ATOM      4  C   UNL     1      50.259   7.337  11.347  0.00  0.00    +0.000 A 
ATOM      5  C   UNL     1      51.434   7.759  10.711  0.00  0.00    +0.000 A 
ATOM      6  C   UNL     1      51.744   9.121  10.586  0.00  0.00    +0.000 A 
ATOM      7  C   UNL     1      50.821  10.057  11.070  0.00  0.00    +0.000 A 
ATOM      8  C   UNL     1      49.641   9.636  11.702  0.00  0.00    +0.000 A 
BRANCH   6   9
ATOM      9  C   UNL     1      53.085   9.544  10.023  0.00  0.00    +0.000 C 
BRANCH   9  10
ATOM     10  N   UNL     1      53.853   8.481   9.368  0.00  0.00    +0.000 N 
ATOM     11  C   UNL     1      54.734   7.698  10.219  0.00  0.00    +0.000 C 
ATOM     12  C   UNL     1      53.550   8.167   8.044  0.00  0.00    +0.000 C 
ATOM     13  O   UNL     1      52.776   8.864   7.382  0.00  0.00    +0.000 OA
BRANCH  12  14
ATOM     14  C   UNL     1      54.114   6.870   7.439  0.00  0.00    +0.000 C 
ATOM     15  C   UNL     1      54.509   7.080   5.970  0.00  0.00    +0.000 C 
ATOM     16  C   UNL     1      54.909   5.762   5.321  0.00  0.00    +0.000 C 
ATOM     17  O   UNL     1      53.852   4.811   5.423  0.00  0.00    +0.000 OA
ATOM     18  C   UNL     1      53.529   4.503   6.777  0.00  0.00    +0.000 C 
ATOM     19  C   UNL     1      53.070   5.748   7.531  0.00  0.00    +0.000 C 
ENDBRANCH  12  14
ENDBRANCH   9  10
ENDBRANCH   6   9
ENDBRANCH   2   3
BRANCH   2  20
ATOM     20  N   UNL     1      48.448   7.031  13.750  0.00  0.00    +0.000 N 
ATOM     21  C   UNL     1      48.517   7.567  15.010  0.00  0.00    +0.000 C 
ATOM     22  O   UNL     1      48.215   8.731  15.258  0.00  0.00    +0.000 OA
ATOM     23  H   UNL     1      49.003   6.200  13.566  0.00  0.00    +0.000 HD
BRANCH  21  24
ATOM     24  C   UNL     1      48.912   6.649  16.086  0.00  0.00    +0.000 A 
ATOM     25  C   UNL     1      49.906   7.026  16.978  0.00  0.00    +0.000 A 
ATOM     26  S   UNL     1      50.239   5.853  18.169  0.00  0.00    +0.000 S 
ATOM     27  C   UNL     1      49.099   4.779  17.506  0.00  0.00    +0.000 A 
ATOM     28  N   UNL     1      48.915   3.539  18.033  0.00  0.00    +0.000 NA
ATOM     29  C   UNL     1      48.047   2.818  17.409  0.00  0.00    +0.000 A 
ATOM     30  N   UNL     1      47.332   3.230  16.311  0.00  0.00    +0.000 N 
ATOM     31  C   UNL     1      47.451   4.488  15.773  0.00  0.00    +0.000 A 
ATOM     32  O   UNL     1      46.742   4.857  14.843  0.00  0.00    +0.000 OA
ATOM     33  C   UNL     1      48.445   5.322  16.415  0.00  0.00    +0.000 A 
ATOM     34  H   UNL     1      46.651   2.622  15.880  0.00  0.00    +0.000 HD
ENDBRANCH  21  24
ENDBRANCH   2  20
TORSDOF 6
ENDMDL
MODEL 9
REMARK VINA RESULT:    -5.995      4.229      9.769
REMARK INTER + INTRA:          -8.214
REMARK INTER:                  -6.905
REMARK INTRA:                  -1.310
REMARK UNBOUND:                -0.116
REMARK  Name = 
REMARK  8 active torsions:
REMARK  status: ('A' for Active; 'I' for Inactive)
REMARK    1  A    between atoms: C_1  and  C_2
REMARK    2  A    between atoms: C_2  and  N_3
REMARK    3  A    between atoms: C_2  and  C_16
REMARK    4  A    between atoms: C_4  and  C_6
REMARK    5  A    between atoms: C_19  and  C_20
REMARK    6  A    between atoms: C_20  and  N_21
REMARK    7  A    between atoms: N_21  and  C_22
REMARK    8  A    between atoms: C_23  and  C_25
REMARK                            x       y       z     vdW  Elec       q    Type
REMARK                         _______ _______ _______ _____ _____    ______ ____
ROOT
ATOM      1  C   UNL     1      46.139   3.870  13.252  0.00  0.00    +0.000 C 
ATOM      2  C   UNL     1      47.063   5.078  13.460  0.00  0.00    +0.000 C 
ENDROOT
BRANCH   2   3
ATOM      3  C   UNL     1      47.513   5.154  14.915  0.00  0.00    +0.000 A 
ATOM      4  C   UNL     1      48.287   6.232  15.364  0.00  0.00    +0.000 A 
ATOM      5  C   UNL     1      48.718   6.298  16.695  0.00  0.00    +0.000 A 
ATOM      6  C   UNL     1      48.406   5.282  17.611  0.00  0.00    +0.000 A 
ATOM      7  C   UNL     1      47.604   4.220  17.173  0.00  0.00    +0.000 A 
ATOM      8  C   UNL     1      47.166   4.157  15.842  0.00  0.00    +0.000 A 
BRANCH   6   9
ATOM      9  C   UNL     1      49.004   5.307  19.002  0.00  0.00    +0.000 C 
BRANCH   9  10
ATOM     10  N   UNL     1      50.468   5.250  19.057  0.00  0.00    +0.000 N 
ATOM     11  C   UNL     1      51.094   4.080  18.460  0.00  0.00    +0.000 C 
ATOM     12  C   UNL     1      51.158   6.382  19.486  0.00  0.00    +0.000 C 
ATOM     13  O   UNL     1      50.562   7.351  19.966  0.00  0.00    +0.000 OA
BRANCH  12  14
ATOM     14  C   UNL     1      52.678   6.456  19.262  0.00  0.00    +0.000 C 
ATOM     15  C   UNL     1      53.361   7.232  20.399  0.00  0.00    +0.000 C 
ATOM     16  C   UNL     1      54.836   7.453  20.096  0.00  0.00    +0.000 C 
ATOM     17  O   UNL     1      54.997   8.140  18.857  0.00  0.00    +0.000 OA
ATOM     18  C   UNL     1      54.475   7.399  17.756  0.00  0.00    +0.000 C 
ATOM     19  C   UNL     1      52.978   7.146  17.922  0.00  0.00    +0.000 C 
ENDBRANCH  12  14
ENDBRANCH   9  10
ENDBRANCH   6   9
ENDBRANCH   2   3
BRANCH   2  20
ATOM     20  N   UNL     1      46.441   6.340  13.083  0.00  0.00    +0.000 N 
ATOM     21  C   UNL     1      47.040   7.257  12.258  0.00  0.00    +0.000 C 
ATOM     22  O   UNL     1      48.125   7.060  11.718  0.00  0.00    +0.000 OA
ATOM     23  H   UNL     1      45.737   6.686  13.729  0.00  0.00    +0.000 HD
BRANCH  21  24
ATOM     24  C   UNL     1      46.280   8.483  11.987  0.00  0.00    +0.000 A 
ATOM     25  C   UNL     1      46.881   9.719  12.179  0.00  0.00    +0.000 A 
ATOM     26  S   UNL     1      45.867  11.039  11.814  0.00  0.00    +0.000 S 
ATOM     27  C   UNL     1      44.571  10.006  11.430  0.00  0.00    +0.000 A 
ATOM     28  N   UNL     1      43.357  10.506  11.075  0.00  0.00    +0.000 NA
ATOM     29  C   UNL     1      42.458   9.611  10.847  0.00  0.00    +0.000 A 
ATOM     30  N   UNL     1      42.665   8.255  10.928  0.00  0.00    +0.000 N 
ATOM     31  C   UNL     1      43.885   7.705  11.237  0.00  0.00    +0.000 A 
ATOM     32  O   UNL     1      44.063   6.492  11.221  0.00  0.00    +0.000 OA
ATOM     33  C   UNL     1      44.919   8.671  11.542  0.00  0.00    +0.000 A 
ATOM     34  H   UNL     1      41.922   7.605  10.717  0.00  0.00    +0.000 HD
ENDBRANCH  21  24
ENDBRANCH   2  20
TORSDOF 6
ENDMDL
