MODEL 1
REMARK VINA RESULT:    -8.968      0.000      0.000
REMARK INTER + INTRA:         -11.586
REMARK INTER:                 -11.589
REMARK INTRA:                   0.003
REMARK UNBOUND:                 0.003
REMARK  Name = 
REMARK  7 active torsions:
REMARK  status: ('A' for Active; 'I' for Inactive)
REMARK    1  A    between atoms: C_1  and  C_2
REMARK    2  A    between atoms: C_2  and  C_3
REMARK    3  A    between atoms: C_2  and  N_4
REMARK    4  A    between atoms: C_2  and  C_17
REMARK    5  A    between atoms: C_5  and  C_7
REMARK    6  A    between atoms: C_20  and  O_21
REMARK    7  A    between atoms: O_21  and  C_22
REMARK                            x       y       z     vdW  Elec       q    Type
REMARK                         _______ _______ _______ _____ _____    ______ ____
ROOT
ATOM      1  C   UNL     1      45.426   8.778  12.846  0.00  0.00    +0.000 C 
ATOM      2  C   UNL     1      46.594   7.784  12.694  0.00  0.00    +0.000 C 
ATOM      3  C   UNL     1      47.771   8.462  11.957  0.00  0.00    +0.000 C 
ENDROOT
BRANCH   2   4
ATOM      4  C   UNL     1      46.040   6.579  11.893  0.00  0.00    +0.000 A 
ATOM      5  C   UNL     1      45.353   5.533  12.532  0.00  0.00    +0.000 A 
ATOM      6  C   UNL     1      44.847   4.446  11.813  0.00  0.00    +0.000 A 
ATOM      7  C   UNL     1      44.982   4.392  10.427  0.00  0.00    +0.000 A 
ATOM      8  C   UNL     1      45.719   5.380   9.778  0.00  0.00    +0.000 A 
ATOM      9  C   UNL     1      46.251   6.455  10.504  0.00  0.00    +0.000 A 
BRANCH   7  10
ATOM     10  O   UNL     1      44.497   3.363   9.651  0.00  0.00    +0.000 OA
BRANCH  10  11
ATOM     11  C   UNL     1      45.339   2.807   8.691  0.00  0.00    +0.000 A 
ATOM     12  C   UNL     1      45.673   3.616   7.615  0.00  0.00    +0.000 A 
ATOM     13  C   UNL     1      46.535   3.102   6.648  0.00  0.00    +0.000 A 
ATOM     14  C   UNL     1      47.024   1.807   6.787  0.00  0.00    +0.000 A 
ATOM     15  C   UNL     1      46.610   1.065   7.880  0.00  0.00    +0.000 A 
ATOM     16  N   UNL     1      45.766   1.529   8.823  0.00  0.00    +0.000 NA
ENDBRANCH  10  11
ENDBRANCH   7  10
ENDBRANCH   2   4
BRANCH   2  17
ATOM     17  N   UNL     1      47.083   7.318  14.002  0.00  0.00    +0.000 N 
ATOM     18  C   UNL     1      48.225   6.582  14.204  0.00  0.00    +0.000 C 
ATOM     19  O   UNL     1      48.990   6.267  13.298  0.00  0.00    +0.000 OA
ATOM     20  H   UNL     1      46.369   7.260  14.721  0.00  0.00    +0.000 HD
BRANCH  18  21
ATOM     21  C   UNL     1      48.539   6.236  15.597  0.00  0.00    +0.000 A 
ATOM     22  C   UNL     1      49.308   7.108  16.358  0.00  0.00    +0.000 A 
ATOM     23  S   UNL     1      49.533   6.596  17.967  0.00  0.00    +0.000 S 
ATOM     24  C   UNL     1      48.657   5.163  17.691  0.00  0.00    +0.000 A 
ATOM     25  N   UNL     1      48.490   4.246  18.681  0.00  0.00    +0.000 NA
ATOM     26  C   UNL     1      47.837   3.190  18.323  0.00  0.00    +0.000 A 
ATOM     27  N   UNL     1      47.331   2.974  17.067  0.00  0.00    +0.000 N 
ATOM     28  C   UNL     1      47.446   3.885  16.048  0.00  0.00    +0.000 A 
ATOM     29  O   UNL     1      46.944   3.686  14.949  0.00  0.00    +0.000 OA
ATOM     30  C   UNL     1      48.186   5.086  16.393  0.00  0.00    +0.000 A 
ATOM     31  H   UNL     1      46.823   2.127  16.853  0.00  0.00    +0.000 HD
ENDBRANCH  18  21
ENDBRANCH   2  17
TORSDOF 5
ENDMDL
MODEL 2
REMARK VINA RESULT:    -8.339      1.335      2.043
REMARK INTER + INTRA:         -10.773
REMARK INTER:                 -10.571
REMARK INTRA:                  -0.201
REMARK UNBOUND:                 0.003
REMARK  Name = 
REMARK  7 active torsions:
REMARK  status: ('A' for Active; 'I' for Inactive)
REMARK    1  A    between atoms: C_1  and  C_2
REMARK    2  A    between atoms: C_2  and  C_3
REMARK    3  A    between atoms: C_2  and  N_4
REMARK    4  A    between atoms: C_2  and  C_17
REMARK    5  A    between atoms: C_5  and  C_7
REMARK    6  A    between atoms: C_20  and  O_21
REMARK    7  A    between atoms: O_21  and  C_22
REMARK                            x       y       z     vdW  Elec       q    Type
REMARK                         _______ _______ _______ _____ _____    ______ ____
ROOT
ATOM      1  C   UNL     1      45.200   8.344  12.719  0.00  0.00    +0.000 C 
ATOM      2  C   UNL     1      46.362   7.339  12.593  0.00  0.00    +0.000 C 
ATOM      3  C   UNL     1      47.614   8.047  12.029  0.00  0.00    +0.000 C 
ENDROOT
BRANCH   2   4
ATOM      4  C   UNL     1      45.868   6.217  11.645  0.00  0.00    +0.000 A 
ATOM      5  C   UNL     1      45.153   5.110  12.136  0.00  0.00    +0.000 A 
ATOM      6  C   UNL     1      44.701   4.099  11.284  0.00  0.00    +0.000 A 
ATOM      7  C   UNL     1      44.919   4.182   9.910  0.00  0.00    +0.000 A 
ATOM      8  C   UNL     1      45.686   5.232   9.407  0.00  0.00    +0.000 A 
ATOM      9  C   UNL     1      46.163   6.231  10.266  0.00  0.00    +0.000 A 
BRANCH   7  10
ATOM     10  O   UNL     1      44.492   3.234   9.008  0.00  0.00    +0.000 OA
BRANCH  10  11
ATOM     11  C   UNL     1      45.442   2.613   8.201  0.00  0.00    +0.000 A 
ATOM     12  C   UNL     1      45.869   3.321   7.087  0.00  0.00    +0.000 A 
ATOM     13  C   UNL     1      46.838   2.743   6.272  0.00  0.00    +0.000 A 
ATOM     14  C   UNL     1      47.340   1.486   6.592  0.00  0.00    +0.000 A 
ATOM     15  C   UNL     1      46.831   0.843   7.707  0.00  0.00    +0.000 A 
ATOM     16  N   UNL     1      45.882   1.370   8.506  0.00  0.00    +0.000 NA
ENDBRANCH  10  11
ENDBRANCH   7  10
ENDBRANCH   2   4
BRANCH   2  17
ATOM     17  N   UNL     1      46.718   6.755  13.897  0.00  0.00    +0.000 N 
ATOM     18  C   UNL     1      47.734   5.858  14.113  0.00  0.00    +0.000 C 
ATOM     19  O   UNL     1      48.491   5.475  13.226  0.00  0.00    +0.000 OA
ATOM     20  H   UNL     1      45.968   6.769  14.582  0.00  0.00    +0.000 HD
BRANCH  18  21
ATOM     21  C   UNL     1      47.929   5.414  15.500  0.00  0.00    +0.000 A 
ATOM     22  C   UNL     1      47.495   4.149  15.876  0.00  0.00    +0.000 A 
ATOM     23  S   UNL     1      47.845   3.760  17.497  0.00  0.00    +0.000 S 
ATOM     24  C   UNL     1      48.541   5.288  17.771  0.00  0.00    +0.000 A 
ATOM     25  N   UNL     1      49.033   5.622  18.994  0.00  0.00    +0.000 NA
ATOM     26  C   UNL     1      49.498   6.825  19.070  0.00  0.00    +0.000 A 
ATOM     27  N   UNL     1      49.523   7.720  18.031  0.00  0.00    +0.000 N 
ATOM     28  C   UNL     1      49.070   7.415  16.772  0.00  0.00    +0.000 A 
ATOM     29  O   UNL     1      49.146   8.218  15.851  0.00  0.00    +0.000 OA
ATOM     30  C   UNL     1      48.521   6.078  16.636  0.00  0.00    +0.000 A 
ATOM     31  H   UNL     1      49.907   8.646  18.155  0.00  0.00    +0.000 HD
ENDBRANCH  18  21
ENDBRANCH   2  17
TORSDOF 5
ENDMDL
MODEL 3
REMARK VINA RESULT:    -8.299      1.858      2.685
REMARK INTER + INTRA:         -10.721
REMARK INTER:                 -10.639
REMARK INTRA:                  -0.082
REMARK UNBOUND:                 0.003
REMARK  Name = 
REMARK  7 active torsions:
REMARK  status: ('A' for Active; 'I' for Inactive)
REMARK    1  A    between atoms: C_1  and  C_2
REMARK    2  A    between atoms: C_2  and  C_3
REMARK    3  A    between atoms: C_2  and  N_4
REMARK    4  A    between atoms: C_2  and  C_17
REMARK    5  A    between atoms: C_5  and  C_7
REMARK    6  A    between atoms: C_20  and  O_21
REMARK    7  A    between atoms: O_21  and  C_22
REMARK                            x       y       z     vdW  Elec       q    Type
REMARK                         _______ _______ _______ _____ _____    ______ ____
ROOT
ATOM      1  C   UNL     1      43.720   3.165  13.352  0.00  0.00    +0.000 C 
ATOM      2  C   UNL     1      44.102   4.602  12.944  0.00  0.00    +0.000 C 
ATOM      3  C   UNL     1      42.891   5.543  13.132  0.00  0.00    +0.000 C 
ENDROOT
BRANCH   2   4
ATOM      4  C   UNL     1      44.543   4.531  11.461  0.00  0.00    +0.000 A 
ATOM      5  C   UNL     1      44.130   3.478  10.626  0.00  0.00    +0.000 A 
ATOM      6  C   UNL     1      44.523   3.413   9.287  0.00  0.00    +0.000 A 
ATOM      7  C   UNL     1      45.311   4.419   8.732  0.00  0.00    +0.000 A 
ATOM      8  C   UNL     1      45.792   5.436   9.554  0.00  0.00    +0.000 A 
ATOM      9  C   UNL     1      45.421   5.485  10.905  0.00  0.00    +0.000 A 
BRANCH   7  10
ATOM     10  O   UNL     1      45.723   4.431   7.418  0.00  0.00    +0.000 OA
BRANCH  10  11
ATOM     11  C   UNL     1      46.459   3.347   6.946  0.00  0.00    +0.000 A 
ATOM     12  C   UNL     1      46.875   3.407   5.624  0.00  0.00    +0.000 A 
ATOM     13  C   UNL     1      47.635   2.353   5.125  0.00  0.00    +0.000 A 
ATOM     14  C   UNL     1      47.947   1.281   5.955  0.00  0.00    +0.000 A 
ATOM     15  C   UNL     1      47.462   1.296   7.251  0.00  0.00    +0.000 A 
ATOM     16  N   UNL     1      46.711   2.295   7.758  0.00  0.00    +0.000 NA
ENDBRANCH  10  11
ENDBRANCH   7  10
ENDBRANCH   2   4
BRANCH   2  17
ATOM     17  N   UNL     1      45.212   5.120  13.761  0.00  0.00    +0.000 N 
ATOM     18  C   UNL     1      46.362   4.432  14.063  0.00  0.00    +0.000 C 
ATOM     19  O   UNL     1      46.601   3.306  13.639  0.00  0.00    +0.000 OA
ATOM     20  H   UNL     1      44.955   5.877  14.387  0.00  0.00    +0.000 HD
BRANCH  18  21
ATOM     21  C   UNL     1      47.352   5.146  14.882  0.00  0.00    +0.000 A 
ATOM     22  C   UNL     1      48.081   6.183  14.315  0.00  0.00    +0.000 A 
ATOM     23  S   UNL     1      49.143   6.948  15.406  0.00  0.00    +0.000 S 
ATOM     24  C   UNL     1      48.705   5.886  16.661  0.00  0.00    +0.000 A 
ATOM     25  N   UNL     1      49.278   5.985  17.891  0.00  0.00    +0.000 NA
ATOM     26  C   UNL     1      48.880   5.093  18.737  0.00  0.00    +0.000 A 
ATOM     27  N   UNL     1      47.956   4.117  18.465  0.00  0.00    +0.000 N 
ATOM     28  C   UNL     1      47.327   4.001  17.251  0.00  0.00    +0.000 A 
ATOM     29  O   UNL     1      46.472   3.147  17.050  0.00  0.00    +0.000 OA
ATOM     30  C   UNL     1      47.750   4.971  16.257  0.00  0.00    +0.000 A 
ATOM     31  H   UNL     1      47.683   3.452  19.174  0.00  0.00    +0.000 HD
ENDBRANCH  18  21
ENDBRANCH   2  17
TORSDOF 5
ENDMDL
MODEL 4
REMARK VINA RESULT:    -7.749      1.834      2.429
REMARK INTER + INTRA:         -10.011
REMARK INTER:                  -9.116
REMARK INTRA:                  -0.895
REMARK UNBOUND:                 0.003
REMARK  Name = 
REMARK  7 active torsions:
REMARK  status: ('A' for Active; 'I' for Inactive)
REMARK    1  A    between atoms: C_1  and  C_2
REMARK    2  A    between atoms: C_2  and  C_3
REMARK    3  A    between atoms: C_2  and  N_4
REMARK    4  A    between atoms: C_2  and  C_17
REMARK    5  A    between atoms: C_5  and  C_7
REMARK    6  A    between atoms: C_20  and  O_21
REMARK    7  A    between atoms: O_21  and  C_22
REMARK                            x       y       z     vdW  Elec       q    Type
REMARK                         _______ _______ _______ _____ _____    ______ ____
ROOT
ATOM      1  C   UNL     1      47.910   9.490  13.427  0.00  0.00    +0.000 C 
ATOM      2  C   UNL     1      48.189   8.001  13.711  0.00  0.00    +0.000 C 
ATOM      3  C   UNL     1      49.604   7.626  13.217  0.00  0.00    +0.000 C 
ENDROOT
BRANCH   2   4
ATOM      4  C   UNL     1      47.094   7.201  12.961  0.00  0.00    +0.000 A 
ATOM      5  C   UNL     1      46.159   7.846  12.132  0.00  0.00    +0.000 A 
ATOM      6  C   UNL     1      45.173   7.128  11.451  0.00  0.00    +0.000 A 
ATOM      7  C   UNL     1      45.115   5.739  11.548  0.00  0.00    +0.000 A 
ATOM      8  C   UNL     1      45.985   5.083  12.417  0.00  0.00    +0.000 A 
ATOM      9  C   UNL     1      46.956   5.807  13.123  0.00  0.00    +0.000 A 
BRANCH   7  10
ATOM     10  O   UNL     1      44.184   4.963  10.895  0.00  0.00    +0.000 OA
BRANCH  10  11
ATOM     11  C   UNL     1      44.634   4.048   9.947  0.00  0.00    +0.000 A 
ATOM     12  C   UNL     1      45.319   4.568   8.858  0.00  0.00    +0.000 A 
ATOM     13  C   UNL     1      45.807   3.681   7.902  0.00  0.00    +0.000 A 
ATOM     14  C   UNL     1      45.592   2.316   8.064  0.00  0.00    +0.000 A 
ATOM     15  C   UNL     1      44.872   1.893   9.167  0.00  0.00    +0.000 A 
ATOM     16  N   UNL     1      44.374   2.729  10.101  0.00  0.00    +0.000 NA
ENDBRANCH  10  11
ENDBRANCH   7  10
ENDBRANCH   2   4
BRANCH   2  17
ATOM     17  N   UNL     1      48.114   7.701  15.150  0.00  0.00    +0.000 N 
ATOM     18  C   UNL     1      48.835   8.336  16.131  0.00  0.00    +0.000 C 
ATOM     19  O   UNL     1      49.602   9.267  15.903  0.00  0.00    +0.000 OA
ATOM     20  H   UNL     1      47.769   6.771  15.368  0.00  0.00    +0.000 HD
BRANCH  18  21
ATOM     21  C   UNL     1      48.595   7.890  17.510  0.00  0.00    +0.000 A 
ATOM     22  C   UNL     1      48.206   8.820  18.467  0.00  0.00    +0.000 A 
ATOM     23  S   UNL     1      47.908   8.139  20.000  0.00  0.00    +0.000 S 
ATOM     24  C   UNL     1      48.339   6.586  19.454  0.00  0.00    +0.000 A 
ATOM     25  N   UNL     1      48.322   5.520  20.299  0.00  0.00    +0.000 NA
ATOM     26  C   UNL     1      48.708   4.410  19.762  0.00  0.00    +0.000 A 
ATOM     27  N   UNL     1      49.101   4.269  18.456  0.00  0.00    +0.000 N 
ATOM     28  C   UNL     1      49.101   5.309  17.560  0.00  0.00    +0.000 A 
ATOM     29  O   UNL     1      49.413   5.145  16.387  0.00  0.00    +0.000 OA
ATOM     30  C   UNL     1      48.690   6.585  18.116  0.00  0.00    +0.000 A 
ATOM     31  H   UNL     1      49.386   3.370  18.096  0.00  0.00    +0.000 HD
ENDBRANCH  18  21
ENDBRANCH   2  17
TORSDOF 5
ENDMDL
MODEL 5
REMARK VINA RESULT:    -7.464      4.122      8.420
REMARK INTER + INTRA:          -9.642
REMARK INTER:                  -9.413
REMARK INTRA:                  -0.229
REMARK UNBOUND:                 0.003
REMARK  Name = 
REMARK  7 active torsions:
REMARK  status: ('A' for Active; 'I' for Inactive)
REMARK    1  A    between atoms: C_1  and  C_2
REMARK    2  A    between atoms: C_2  and  C_3
REMARK    3  A    between atoms: C_2  and  N_4
REMARK    4  A    between atoms: C_2  and  C_17
REMARK    5  A    between atoms: C_5  and  C_7
REMARK    6  A    between atoms: C_20  and  O_21
REMARK    7  A    between atoms: O_21  and  C_22
REMARK                            x       y       z     vdW  Elec       q    Type
REMARK                         _______ _______ _______ _____ _____    ______ ____
ROOT
ATOM      1  C   UNL     1      49.523   6.586  17.993  0.00  0.00    +0.000 C 
ATOM      2  C   UNL     1      48.590   5.400  17.677  0.00  0.00    +0.000 C 
ATOM      3  C   UNL     1      47.551   5.231  18.808  0.00  0.00    +0.000 C 
ENDROOT
BRANCH   2   4
ATOM      4  C   UNL     1      49.499   4.152  17.549  0.00  0.00    +0.000 A 
ATOM      5  C   UNL     1      48.986   2.917  17.115  0.00  0.00    +0.000 A 
ATOM      6  C   UNL     1      49.804   1.791  16.994  0.00  0.00    +0.000 A 
ATOM      7  C   UNL     1      51.167   1.874  17.267  0.00  0.00    +0.000 A 
ATOM      8  C   UNL     1      51.688   3.067  17.766  0.00  0.00    +0.000 A 
ATOM      9  C   UNL     1      50.861   4.189  17.915  0.00  0.00    +0.000 A 
BRANCH   7  10
ATOM     10  O   UNL     1      52.038   0.813  17.155  0.00  0.00    +0.000 OA
BRANCH  10  11
ATOM     11  C   UNL     1      53.298   0.927  17.737  0.00  0.00    +0.000 A 
ATOM     12  C   UNL     1      54.176   1.821  17.143  0.00  0.00    +0.000 A 
ATOM     13  C   UNL     1      55.437   1.982  17.712  0.00  0.00    +0.000 A 
ATOM     14  C   UNL     1      55.775   1.246  18.844  0.00  0.00    +0.000 A 
ATOM     15  C   UNL     1      54.842   0.357  19.348  0.00  0.00    +0.000 A 
ATOM     16  N   UNL     1      53.621   0.168  18.810  0.00  0.00    +0.000 NA
ENDBRANCH  10  11
ENDBRANCH   7  10
ENDBRANCH   2   4
BRANCH   2  17
ATOM     17  N   UNL     1      47.860   5.606  16.416  0.00  0.00    +0.000 N 
ATOM     18  C   UNL     1      48.412   6.073  15.248  0.00  0.00    +0.000 C 
ATOM     19  O   UNL     1      49.606   6.333  15.127  0.00  0.00    +0.000 OA
ATOM     20  H   UNL     1      46.857   5.721  16.524  0.00  0.00    +0.000 HD
BRANCH  18  21
ATOM     21  C   UNL     1      47.505   6.187  14.098  0.00  0.00    +0.000 A 
ATOM     22  C   UNL     1      47.253   7.439  13.553  0.00  0.00    +0.000 A 
ATOM     23  S   UNL     1      46.231   7.400  12.190  0.00  0.00    +0.000 S 
ATOM     24  C   UNL     1      46.045   5.713  12.312  0.00  0.00    +0.000 A 
ATOM     25  N   UNL     1      45.255   5.033  11.437  0.00  0.00    +0.000 NA
ATOM     26  C   UNL     1      45.175   3.764  11.668  0.00  0.00    +0.000 A 
ATOM     27  N   UNL     1      45.820   3.114  12.689  0.00  0.00    +0.000 N 
ATOM     28  C   UNL     1      46.653   3.753  13.573  0.00  0.00    +0.000 A 
ATOM     29  O   UNL     1      47.252   3.140  14.448  0.00  0.00    +0.000 OA
ATOM     30  C   UNL     1      46.766   5.186  13.368  0.00  0.00    +0.000 A 
ATOM     31  H   UNL     1      45.720   2.117  12.812  0.00  0.00    +0.000 HD
ENDBRANCH  18  21
ENDBRANCH   2  17
TORSDOF 5
ENDMDL
MODEL 6
REMARK VINA RESULT:    -7.390      3.398      5.287
REMARK INTER + INTRA:          -9.547
REMARK INTER:                  -8.764
REMARK INTRA:                  -0.783
REMARK UNBOUND:                 0.003
REMARK  Name = 
REMARK  7 active torsions:
REMARK  status: ('A' for Active; 'I' for Inactive)
REMARK    1  A    between atoms: C_1  and  C_2
REMARK    2  A    between atoms: C_2  and  C_3
REMARK    3  A    between atoms: C_2  and  N_4
REMARK    4  A    between atoms: C_2  and  C_17
REMARK    5  A    between atoms: C_5  and  C_7
REMARK    6  A    between atoms: C_20  and  O_21
REMARK    7  A    between atoms: O_21  and  C_22
REMARK                            x       y       z     vdW  Elec       q    Type
REMARK                         _______ _______ _______ _____ _____    ______ ____
ROOT
ATOM      1  C   UNL     1      47.672   5.858  18.773  0.00  0.00    +0.000 C 
ATOM      2  C   UNL     1      48.803   6.071  17.747  0.00  0.00    +0.000 C 
ATOM      3  C   UNL     1      49.275   7.542  17.779  0.00  0.00    +0.000 C 
ENDROOT
BRANCH   2   4
ATOM      4  C   UNL     1      48.214   5.692  16.365  0.00  0.00    +0.000 A 
ATOM      5  C   UNL     1      47.567   4.461  16.160  0.00  0.00    +0.000 A 
ATOM      6  C   UNL     1      47.030   4.118  14.916  0.00  0.00    +0.000 A 
ATOM      7  C   UNL     1      47.093   5.012  13.849  0.00  0.00    +0.000 A 
ATOM      8  C   UNL     1      47.791   6.208  14.005  0.00  0.00    +0.000 A 
ATOM      9  C   UNL     1      48.354   6.539  15.246  0.00  0.00    +0.000 A 
BRANCH   7  10
ATOM     10  O   UNL     1      46.574   4.751  12.600  0.00  0.00    +0.000 OA
BRANCH  10  11
ATOM     11  C   UNL     1      45.215   4.968  12.391  0.00  0.00    +0.000 A 
ATOM     12  C   UNL     1      44.873   6.063  11.612  0.00  0.00    +0.000 A 
ATOM     13  C   UNL     1      43.524   6.297  11.359  0.00  0.00    +0.000 A 
ATOM     14  C   UNL     1      42.570   5.437  11.894  0.00  0.00    +0.000 A 
ATOM     15  C   UNL     1      43.005   4.388  12.684  0.00  0.00    +0.000 A 
ATOM     16  N   UNL     1      44.302   4.145  12.959  0.00  0.00    +0.000 NA
ENDBRANCH  10  11
ENDBRANCH   7  10
ENDBRANCH   2   4
BRANCH   2  17
ATOM     17  N   UNL     1      49.964   5.213  18.035  0.00  0.00    +0.000 N 
ATOM     18  C   UNL     1      51.185   5.296  17.411  0.00  0.00    +0.000 C 
ATOM     19  O   UNL     1      51.447   6.140  16.559  0.00  0.00    +0.000 OA
ATOM     20  H   UNL     1      49.733   4.324  18.469  0.00  0.00    +0.000 HD
BRANCH  18  21
ATOM     21  C   UNL     1      52.215   4.351  17.864  0.00  0.00    +0.000 A 
ATOM     22  C   UNL     1      53.386   4.842  18.429  0.00  0.00    +0.000 A 
ATOM     23  S   UNL     1      54.452   3.624  18.959  0.00  0.00    +0.000 S 
ATOM     24  C   UNL     1      53.412   2.396  18.404  0.00  0.00    +0.000 A 
ATOM     25  N   UNL     1      53.749   1.085  18.533  0.00  0.00    +0.000 NA
ATOM     26  C   UNL     1      52.885   0.262  18.037  0.00  0.00    +0.000 A 
ATOM     27  N   UNL     1      51.712   0.634  17.430  0.00  0.00    +0.000 N 
ATOM     28  C   UNL     1      51.316   1.941  17.308  0.00  0.00    +0.000 A 
ATOM     29  O   UNL     1      50.242   2.242  16.803  0.00  0.00    +0.000 OA
ATOM     30  C   UNL     1      52.259   2.910  17.837  0.00  0.00    +0.000 A 
ATOM     31  H   UNL     1      51.076  -0.062  17.067  0.00  0.00    +0.000 HD
ENDBRANCH  18  21
ENDBRANCH   2  17
TORSDOF 5
ENDMDL
MODEL 7
REMARK VINA RESULT:    -7.326      3.955      9.174
REMARK INTER + INTRA:          -9.465
REMARK INTER:                  -9.088
REMARK INTRA:                  -0.377
REMARK UNBOUND:                 0.003
REMARK  Name = 
REMARK  7 active torsions:
REMARK  status: ('A' for Active; 'I' for Inactive)
REMARK    1  A    between atoms: C_1  and  C_2
REMARK    2  A    between atoms: C_2  and  C_3
REMARK    3  A    between atoms: C_2  and  N_4
REMARK    4  A    between atoms: C_2  and  C_17
REMARK    5  A    between atoms: C_5  and  C_7
REMARK    6  A    between atoms: C_20  and  O_21
REMARK    7  A    between atoms: O_21  and  C_22
REMARK                            x       y       z     vdW  Elec       q    Type
REMARK                         _______ _______ _______ _____ _____    ______ ____
ROOT
ATOM      1  C   UNL     1      47.207   5.243  18.517  0.00  0.00    +0.000 C 
ATOM      2  C   UNL     1      47.615   4.362  17.319  0.00  0.00    +0.000 C 
ATOM      3  C   UNL     1      46.905   2.992  17.406  0.00  0.00    +0.000 C 
ENDROOT
BRANCH   2   4
ATOM      4  C   UNL     1      49.155   4.211  17.393  0.00  0.00    +0.000 A 
ATOM      5  C   UNL     1      50.001   5.332  17.338  0.00  0.00    +0.000 A 
ATOM      6  C   UNL     1      51.390   5.201  17.409  0.00  0.00    +0.000 A 
ATOM      7  C   UNL     1      51.974   3.946  17.573  0.00  0.00    +0.000 A 
ATOM      8  C   UNL     1      51.163   2.813  17.559  0.00  0.00    +0.000 A 
ATOM      9  C   UNL     1      49.770   2.944  17.459  0.00  0.00    +0.000 A 
BRANCH   7  10
ATOM     10  O   UNL     1      53.332   3.739  17.666  0.00  0.00    +0.000 OA
BRANCH  10  11
ATOM     11  C   UNL     1      53.843   3.228  18.856  0.00  0.00    +0.000 A 
ATOM     12  C   UNL     1      54.541   2.032  18.769  0.00  0.00    +0.000 A 
ATOM     13  C   UNL     1      55.089   1.504  19.935  0.00  0.00    +0.000 A 
ATOM     14  C   UNL     1      54.917   2.179  21.139  0.00  0.00    +0.000 A 
ATOM     15  C   UNL     1      54.179   3.350  21.132  0.00  0.00    +0.000 A 
ATOM     16  N   UNL     1      53.624   3.878  20.023  0.00  0.00    +0.000 NA
ENDBRANCH  10  11
ENDBRANCH   7  10
ENDBRANCH   2   4
BRANCH   2  17
ATOM     17  N   UNL     1      47.246   4.986  16.038  0.00  0.00    +0.000 N 
ATOM     18  C   UNL     1      47.273   4.361  14.815  0.00  0.00    +0.000 C 
ATOM     19  O   UNL     1      47.576   3.181  14.672  0.00  0.00    +0.000 OA
ATOM     20  H   UNL     1      47.300   6.000  16.032  0.00  0.00    +0.000 HD
BRANCH  18  21
ATOM     21  C   UNL     1      46.847   5.165  13.661  0.00  0.00    +0.000 A 
ATOM     22  C   UNL     1      47.275   6.483  13.556  0.00  0.00    +0.000 A 
ATOM     23  S   UNL     1      46.747   7.262  12.137  0.00  0.00    +0.000 S 
ATOM     24  C   UNL     1      45.882   5.885  11.637  0.00  0.00    +0.000 A 
ATOM     25  N   UNL     1      45.167   5.891  10.480  0.00  0.00    +0.000 NA
ATOM     26  C   UNL     1      44.530   4.792  10.242  0.00  0.00    +0.000 A 
ATOM     27  N   UNL     1      44.550   3.687  11.053  0.00  0.00    +0.000 N 
ATOM     28  C   UNL     1      45.284   3.623  12.211  0.00  0.00    +0.000 A 
ATOM     29  O   UNL     1      45.320   2.606  12.893  0.00  0.00    +0.000 OA
ATOM     30  C   UNL     1      46.008   4.839  12.534  0.00  0.00    +0.000 A 
ATOM     31  H   UNL     1      44.034   2.855  10.806  0.00  0.00    +0.000 HD
ENDBRANCH  18  21
ENDBRANCH   2  17
TORSDOF 5
ENDMDL
MODEL 8
REMARK VINA RESULT:    -6.880      3.749      8.817
REMARK INTER + INTRA:          -8.887
REMARK INTER:                  -8.712
REMARK INTRA:                  -0.175
REMARK UNBOUND:                 0.003
REMARK  Name = 
REMARK  7 active torsions:
REMARK  status: ('A' for Active; 'I' for Inactive)
REMARK    1  A    between atoms: C_1  and  C_2
REMARK    2  A    between atoms: C_2  and  C_3
REMARK    3  A    between atoms: C_2  and  N_4
REMARK    4  A    between atoms: C_2  and  C_17
REMARK    5  A    between atoms: C_5  and  C_7
REMARK    6  A    between atoms: C_20  and  O_21
REMARK    7  A    between atoms: O_21  and  C_22
REMARK                            x       y       z     vdW  Elec       q    Type
REMARK                         _______ _______ _______ _____ _____    ______ ____
ROOT
ATOM      1  C   UNL     1      47.151   5.196  18.528  0.00  0.00    +0.000 C 
ATOM      2  C   UNL     1      47.653   4.358  17.335  0.00  0.00    +0.000 C 
ATOM      3  C   UNL     1      46.985   2.964  17.351  0.00  0.00    +0.000 C 
ENDROOT
BRANCH   2   4
ATOM      4  C   UNL     1      49.191   4.254  17.491  0.00  0.00    +0.000 A 
ATOM      5  C   UNL     1      49.986   5.401  17.659  0.00  0.00    +0.000 A 
ATOM      6  C   UNL     1      51.373   5.311  17.805  0.00  0.00    +0.000 A 
ATOM      7  C   UNL     1      52.003   4.068  17.822  0.00  0.00    +0.000 A 
ATOM      8  C   UNL     1      51.247   2.921  17.587  0.00  0.00    +0.000 A 
ATOM      9  C   UNL     1      49.859   3.015  17.412  0.00  0.00    +0.000 A 
BRANCH   7  10
ATOM     10  O   UNL     1      53.361   3.900  17.977  0.00  0.00    +0.000 OA
BRANCH  10  11
ATOM     11  C   UNL     1      54.192   4.992  17.743  0.00  0.00    +0.000 A 
ATOM     12  C   UNL     1      54.409   5.335  16.417  0.00  0.00    +0.000 A 
ATOM     13  C   UNL     1      55.214   6.438  16.145  0.00  0.00    +0.000 A 
ATOM     14  C   UNL     1      55.775   7.151  17.200  0.00  0.00    +0.000 A 
ATOM     15  C   UNL     1      55.526   6.716  18.490  0.00  0.00    +0.000 A 
ATOM     16  N   UNL     1      54.764   5.643  18.783  0.00  0.00    +0.000 NA
ENDBRANCH  10  11
ENDBRANCH   7  10
ENDBRANCH   2   4
BRANCH   2  17
ATOM     17  N   UNL     1      47.334   5.001  16.049  0.00  0.00    +0.000 N 
ATOM     18  C   UNL     1      47.324   4.370  14.829  0.00  0.00    +0.000 C 
ATOM     19  O   UNL     1      47.545   3.171  14.692  0.00  0.00    +0.000 OA
ATOM     20  H   UNL     1      47.459   6.008  16.041  0.00  0.00    +0.000 HD
BRANCH  18  21
ATOM     21  C   UNL     1      46.960   5.198  13.671  0.00  0.00    +0.000 A 
ATOM     22  C   UNL     1      47.496   6.474  13.552  0.00  0.00    +0.000 A 
ATOM     23  S   UNL     1      47.028   7.283  12.128  0.00  0.00    +0.000 S 
ATOM     24  C   UNL     1      46.048   5.978  11.644  0.00  0.00    +0.000 A 
ATOM     25  N   UNL     1      45.329   6.035  10.491  0.00  0.00    +0.000 NA
ATOM     26  C   UNL     1      44.602   4.992  10.265  0.00  0.00    +0.000 A 
ATOM     27  N   UNL     1      44.534   3.895  11.086  0.00  0.00    +0.000 N 
ATOM     28  C   UNL     1      45.266   3.780  12.241  0.00  0.00    +0.000 A 
ATOM     29  O   UNL     1      45.221   2.769  12.931  0.00  0.00    +0.000 OA
ATOM     30  C   UNL     1      46.091   4.934  12.550  0.00  0.00    +0.000 A 
ATOM     31  H   UNL     1      43.948   3.107  10.849  0.00  0.00    +0.000 HD
ENDBRANCH  18  21
ENDBRANCH   2  17
TORSDOF 5
ENDMDL
MODEL 9
REMARK VINA RESULT:    -6.603      3.787      5.801
REMARK INTER + INTRA:          -8.530
REMARK INTER:                  -8.185
REMARK INTRA:                  -0.345
REMARK UNBOUND:                 0.003
REMARK  Name = 
REMARK  7 active torsions:
REMARK  status: ('A' for Active; 'I' for Inactive)
REMARK    1  A    between atoms: C_1  and  C_2
REMARK    2  A    between atoms: C_2  and  C_3
REMARK    3  A    between atoms: C_2  and  N_4
REMARK    4  A    between atoms: C_2  and  C_17
REMARK    5  A    between atoms: C_5  and  C_7
REMARK    6  A    between atoms: C_20  and  O_21
REMARK    7  A    between atoms: O_21  and  C_22
REMARK                            x       y       z     vdW  Elec       q    Type
REMARK                         _______ _______ _______ _____ _____    ______ ____
ROOT
ATOM      1  C   UNL     1      47.772   2.885  17.889  0.00  0.00    +0.000 C 
ATOM      2  C   UNL     1      48.339   4.311  17.745  0.00  0.00    +0.000 C 
ATOM      3  C   UNL     1      47.748   5.227  18.841  0.00  0.00    +0.000 C 
ENDROOT
BRANCH   2   4
ATOM      4  C   UNL     1      47.948   4.795  16.327  0.00  0.00    +0.000 A 
ATOM      5  C   UNL     1      47.113   4.026  15.498  0.00  0.00    +0.000 A 
ATOM      6  C   UNL     1      46.754   4.462  14.220  0.00  0.00    +0.000 A 
ATOM      7  C   UNL     1      47.191   5.697  13.745  0.00  0.00    +0.000 A 
ATOM      8  C   UNL     1      48.076   6.446  14.518  0.00  0.00    +0.000 A 
ATOM      9  C   UNL     1      48.459   5.995  15.789  0.00  0.00    +0.000 A 
BRANCH   7  10
ATOM     10  O   UNL     1      46.867   6.199  12.505  0.00  0.00    +0.000 OA
BRANCH  10  11
ATOM     11  C   UNL     1      45.630   5.865  11.960  0.00  0.00    +0.000 A 
ATOM     12  C   UNL     1      45.647   5.168  10.761  0.00  0.00    +0.000 A 
ATOM     13  C   UNL     1      44.429   4.794  10.199  0.00  0.00    +0.000 A 
ATOM     14  C   UNL     1      43.245   5.132  10.847  0.00  0.00    +0.000 A 
ATOM     15  C   UNL     1      43.327   5.855  12.024  0.00  0.00    +0.000 A 
ATOM     16  N   UNL     1      44.490   6.244  12.584  0.00  0.00    +0.000 NA
ENDBRANCH  10  11
ENDBRANCH   7  10
ENDBRANCH   2   4
BRANCH   2  17
ATOM     17  N   UNL     1      49.805   4.327  17.881  0.00  0.00    +0.000 N 
ATOM     18  C   UNL     1      50.663   3.412  17.320  0.00  0.00    +0.000 C 
ATOM     19  O   UNL     1      50.285   2.492  16.601  0.00  0.00    +0.000 OA
ATOM     20  H   UNL     1      50.147   4.836  18.690  0.00  0.00    +0.000 HD
BRANCH  18  21
ATOM     21  C   UNL     1      52.096   3.624  17.568  0.00  0.00    +0.000 A 
ATOM     22  C   UNL     1      52.615   4.911  17.493  0.00  0.00    +0.000 A 
ATOM     23  S   UNL     1      54.275   5.001  17.864  0.00  0.00    +0.000 S 
ATOM     24  C   UNL     1      54.372   3.317  18.085  0.00  0.00    +0.000 A 
ATOM     25  N   UNL     1      55.553   2.722  18.405  0.00  0.00    +0.000 NA
ATOM     26  C   UNL     1      55.491   1.435  18.506  0.00  0.00    +0.000 A 
ATOM     27  N   UNL     1      54.352   0.692  18.324  0.00  0.00    +0.000 N 
ATOM     28  C   UNL     1      53.133   1.252  18.035  0.00  0.00    +0.000 A 
ATOM     29  O   UNL     1      52.124   0.568  17.923  0.00  0.00    +0.000 OA
ATOM     30  C   UNL     1      53.150   2.697  17.894  0.00  0.00    +0.000 A 
ATOM     31  H   UNL     1      54.370  -0.313  18.424  0.00  0.00    +0.000 HD
ENDBRANCH  18  21
ENDBRANCH   2  17
TORSDOF 5
ENDMDL
