MODEL 1
REMARK VINA RESULT:    -8.705      0.000      0.000
REMARK INTER + INTRA:         -13.701
REMARK INTER:                 -12.521
REMARK INTRA:                  -1.179
REMARK UNBOUND:                -1.179
REMARK  Name = 
REMARK  8 active torsions:
REMARK  status: ('A' for Active; 'I' for Inactive)
REMARK    1  A    between atoms: C_2  and  C_21
REMARK    2  A    between atoms: N_3  and  C_4
REMARK    3  A    between atoms: C_4  and  C_5
REMARK    4  A    between atoms: C_8  and  C_9
REMARK    5  A    between atoms: C_9  and  O_10
REMARK    6  A    between atoms: C_9  and  C_11
REMARK    7  A    between atoms: C_11  and  O_12
REMARK    8  A    between atoms: O_12  and  C_13
REMARK                            x       y       z     vdW  Elec       q    Type
REMARK                         _______ _______ _______ _____ _____    ______ ____
ROOT
ATOM      1  C   UNL     1      46.024   6.979  12.461  0.00  0.00    +0.000 A 
ATOM      2  C   UNL     1      45.080   6.267  13.203  0.00  0.00    +0.000 A 
ATOM      3  C   UNL     1      44.331   5.248  12.613  0.00  0.00    +0.000 A 
ATOM      4  C   UNL     1      44.524   4.895  11.268  0.00  0.00    +0.000 A 
ATOM      5  C   UNL     1      45.472   5.618  10.526  0.00  0.00    +0.000 A 
ATOM      6  C   UNL     1      46.217   6.645  11.115  0.00  0.00    +0.000 A 
ENDROOT
BRANCH   1   7
ATOM      7  C   UNL     1      46.865   8.034  13.131  0.00  0.00    +0.000 C 
BRANCH   7  10
ATOM      8  O   UNL     1      48.998   6.212  13.439  0.00  0.00    +0.000 OA
ATOM      9  C   UNL     1      48.487   6.708  14.439  0.00  0.00    +0.000 C 
ATOM     10  N   UNL     1      47.401   7.545  14.373  0.00  0.00    +0.000 N 
ATOM     11  H   UNL     1      47.159   8.088  15.194  0.00  0.00    +0.000 HD
BRANCH   9  12
ATOM     12  C   UNL     1      48.973   6.389  15.786  0.00  0.00    +0.000 A 
ATOM     13  C   UNL     1      49.971   7.164  16.362  0.00  0.00    +0.000 A 
ATOM     14  S   UNL     1      50.437   6.632  17.915  0.00  0.00    +0.000 S 
ATOM     15  C   UNL     1      49.285   5.379  17.894  0.00  0.00    +0.000 A 
ATOM     16  N   UNL     1      49.140   4.543  18.958  0.00  0.00    +0.000 NA
ATOM     17  C   UNL     1      48.198   3.670  18.823  0.00  0.00    +0.000 A 
ATOM     18  N   UNL     1      47.399   3.545  17.718  0.00  0.00    +0.000 N 
ATOM     19  C   UNL     1      47.560   4.316  16.593  0.00  0.00    +0.000 A 
ATOM     20  O   UNL     1      46.913   4.094  15.575  0.00  0.00    +0.000 OA
ATOM     21  C   UNL     1      48.574   5.348  16.708  0.00  0.00    +0.000 A 
ATOM     22  H   UNL     1      46.699   2.821  17.665  0.00  0.00    +0.000 HD
ENDBRANCH   9  12
ENDBRANCH   7  10
ENDBRANCH   1   7
BRANCH   4  23
ATOM     23  C   UNL     1      43.777   3.756  10.591  0.00  0.00    +0.000 C 
BRANCH  23  24
ATOM     24  O   UNL     1      42.658   3.394  11.410  0.00  0.00    +0.000 OA
ATOM     25  H   UNL     1      42.218   2.640  10.981  0.00  0.00    +0.000 HD
ENDBRANCH  23  24
BRANCH  23  26
ATOM     26  C   UNL     1      44.637   2.508  10.313  0.00  0.00    +0.000 C 
BRANCH  26  27
ATOM     27  O   UNL     1      44.466   2.059   8.965  0.00  0.00    +0.000 OA
BRANCH  27  28
ATOM     28  C   UNL     1      45.533   2.276   8.131  0.00  0.00    +0.000 A 
ATOM     29  C   UNL     1      45.810   3.465   7.449  0.00  0.00    +0.000 A 
ATOM     30  C   UNL     1      46.939   3.561   6.631  0.00  0.00    +0.000 A 
ATOM     31  C   UNL     1      47.794   2.472   6.490  0.00  0.00    +0.000 A 
ATOM     32  C   UNL     1      47.518   1.282   7.160  0.00  0.00    +0.000 A 
ATOM     33  C   UNL     1      46.390   1.186   7.976  0.00  0.00    +0.000 A 
ENDBRANCH  27  28
ENDBRANCH  26  27
ENDBRANCH  23  26
ENDBRANCH   4  23
TORSDOF 8
ENDMDL
MODEL 2
REMARK VINA RESULT:    -8.650      1.425      1.788
REMARK INTER + INTRA:         -13.621
REMARK INTER:                 -12.533
REMARK INTRA:                  -1.088
REMARK UNBOUND:                -1.179
REMARK  Name = 
REMARK  8 active torsions:
REMARK  status: ('A' for Active; 'I' for Inactive)
REMARK    1  A    between atoms: C_2  and  C_21
REMARK    2  A    between atoms: N_3  and  C_4
REMARK    3  A    between atoms: C_4  and  C_5
REMARK    4  A    between atoms: C_8  and  C_9
REMARK    5  A    between atoms: C_9  and  O_10
REMARK    6  A    between atoms: C_9  and  C_11
REMARK    7  A    between atoms: C_11  and  O_12
REMARK    8  A    between atoms: O_12  and  C_13
REMARK                            x       y       z     vdW  Elec       q    Type
REMARK                         _______ _______ _______ _____ _____    ______ ____
ROOT
ATOM      1  C   UNL     1      46.882   5.819  12.780  0.00  0.00    +0.000 A 
ATOM      2  C   UNL     1      46.471   4.643  13.410  0.00  0.00    +0.000 A 
ATOM      3  C   UNL     1      45.464   3.852  12.856  0.00  0.00    +0.000 A 
ATOM      4  C   UNL     1      44.855   4.204  11.640  0.00  0.00    +0.000 A 
ATOM      5  C   UNL     1      45.270   5.390  11.014  0.00  0.00    +0.000 A 
ATOM      6  C   UNL     1      46.275   6.186  11.573  0.00  0.00    +0.000 A 
ENDROOT
BRANCH   1   7
ATOM      7  C   UNL     1      48.012   6.626  13.362  0.00  0.00    +0.000 C 
BRANCH   7  10
ATOM      8  O   UNL     1      50.206   6.790  15.128  0.00  0.00    +0.000 OA
ATOM      9  C   UNL     1      49.069   6.768  15.590  0.00  0.00    +0.000 C 
ATOM     10  N   UNL     1      47.957   6.617  14.800  0.00  0.00    +0.000 N 
ATOM     11  H   UNL     1      47.048   6.818  15.201  0.00  0.00    +0.000 HD
BRANCH   9  12
ATOM     12  C   UNL     1      48.826   6.842  17.035  0.00  0.00    +0.000 A 
ATOM     13  C   UNL     1      48.490   8.056  17.618  0.00  0.00    +0.000 A 
ATOM     14  S   UNL     1      48.277   7.967  19.308  0.00  0.00    +0.000 S 
ATOM     15  C   UNL     1      48.576   6.292  19.314  0.00  0.00    +0.000 A 
ATOM     16  N   UNL     1      48.523   5.574  20.470  0.00  0.00    +0.000 NA
ATOM     17  C   UNL     1      48.724   4.308  20.319  0.00  0.00    +0.000 A 
ATOM     18  N   UNL     1      48.989   3.695  19.124  0.00  0.00    +0.000 N 
ATOM     19  C   UNL     1      49.127   4.388  17.947  0.00  0.00    +0.000 A 
ATOM     20  O   UNL     1      49.490   3.825  16.919  0.00  0.00    +0.000 OA
ATOM     21  C   UNL     1      48.862   5.811  18.049  0.00  0.00    +0.000 A 
ATOM     22  H   UNL     1      49.167   2.703  19.080  0.00  0.00    +0.000 HD
ENDBRANCH   9  12
ENDBRANCH   7  10
ENDBRANCH   1   7
BRANCH   4  23
ATOM     23  C   UNL     1      43.794   3.349  10.962  0.00  0.00    +0.000 C 
BRANCH  23  24
ATOM     24  O   UNL     1      43.579   2.175  11.756  0.00  0.00    +0.000 OA
ATOM     25  H   UNL     1      43.356   1.451  11.146  0.00  0.00    +0.000 HD
ENDBRANCH  23  24
BRANCH  23  26
ATOM     26  C   UNL     1      44.136   2.938   9.517  0.00  0.00    +0.000 C 
BRANCH  26  27
ATOM     27  O   UNL     1      45.311   2.122   9.483  0.00  0.00    +0.000 OA
BRANCH  27  28
ATOM     28  C   UNL     1      46.025   2.163   8.313  0.00  0.00    +0.000 A 
ATOM     29  C   UNL     1      46.761   1.108   7.766  0.00  0.00    +0.000 A 
ATOM     30  C   UNL     1      47.441   1.276   6.557  0.00  0.00    +0.000 A 
ATOM     31  C   UNL     1      47.391   2.497   5.891  0.00  0.00    +0.000 A 
ATOM     32  C   UNL     1      46.666   3.555   6.436  0.00  0.00    +0.000 A 
ATOM     33  C   UNL     1      45.987   3.386   7.643  0.00  0.00    +0.000 A 
ENDBRANCH  27  28
ENDBRANCH  26  27
ENDBRANCH  23  26
ENDBRANCH   4  23
TORSDOF 8
ENDMDL
MODEL 3
REMARK VINA RESULT:    -8.168      2.194      2.853
REMARK INTER + INTRA:         -12.928
REMARK INTER:                 -11.717
REMARK INTRA:                  -1.212
REMARK UNBOUND:                -1.179
REMARK  Name = 
REMARK  8 active torsions:
REMARK  status: ('A' for Active; 'I' for Inactive)
REMARK    1  A    between atoms: C_2  and  C_21
REMARK    2  A    between atoms: N_3  and  C_4
REMARK    3  A    between atoms: C_4  and  C_5
REMARK    4  A    between atoms: C_8  and  C_9
REMARK    5  A    between atoms: C_9  and  O_10
REMARK    6  A    between atoms: C_9  and  C_11
REMARK    7  A    between atoms: C_11  and  O_12
REMARK    8  A    between atoms: O_12  and  C_13
REMARK                            x       y       z     vdW  Elec       q    Type
REMARK                         _______ _______ _______ _____ _____    ______ ____
ROOT
ATOM      1  C   UNL     1      46.983   6.197  13.009  0.00  0.00    +0.000 A 
ATOM      2  C   UNL     1      46.653   6.431  11.673  0.00  0.00    +0.000 A 
ATOM      3  C   UNL     1      45.685   5.657  11.033  0.00  0.00    +0.000 A 
ATOM      4  C   UNL     1      45.001   4.641  11.719  0.00  0.00    +0.000 A 
ATOM      5  C   UNL     1      45.341   4.408  13.062  0.00  0.00    +0.000 A 
ATOM      6  C   UNL     1      46.317   5.179  13.702  0.00  0.00    +0.000 A 
ENDROOT
BRANCH   1   7
ATOM      7  C   UNL     1      47.987   7.082  13.700  0.00  0.00    +0.000 C 
BRANCH   7  10
ATOM      8  O   UNL     1      50.124   6.429  15.423  0.00  0.00    +0.000 OA
ATOM      9  C   UNL     1      49.019   6.662  15.903  0.00  0.00    +0.000 C 
ATOM     10  N   UNL     1      47.916   6.915  15.127  0.00  0.00    +0.000 N 
ATOM     11  H   UNL     1      47.093   7.307  15.569  0.00  0.00    +0.000 HD
BRANCH   9  12
ATOM     12  C   UNL     1      48.790   6.625  17.353  0.00  0.00    +0.000 A 
ATOM     13  C   UNL     1      49.092   5.476  18.071  0.00  0.00    +0.000 A 
ATOM     14  S   UNL     1      48.733   5.598  19.734  0.00  0.00    +0.000 S 
ATOM     15  C   UNL     1      48.211   7.208  19.563  0.00  0.00    +0.000 A 
ATOM     16  N   UNL     1      47.786   7.926  20.638  0.00  0.00    +0.000 NA
ATOM     17  C   UNL     1      47.465   9.147  20.369  0.00  0.00    +0.000 A 
ATOM     18  N   UNL     1      47.514   9.713  19.123  0.00  0.00    +0.000 N 
ATOM     19  C   UNL     1      47.863   9.006  17.999  0.00  0.00    +0.000 A 
ATOM     20  O   UNL     1      47.774   9.507  16.883  0.00  0.00    +0.000 OA
ATOM     21  C   UNL     1      48.282   7.639  18.250  0.00  0.00    +0.000 A 
ATOM     22  H   UNL     1      47.220  10.666  18.977  0.00  0.00    +0.000 HD
ENDBRANCH   9  12
ENDBRANCH   7  10
ENDBRANCH   1   7
BRANCH   4  23
ATOM     23  C   UNL     1      43.897   3.805  11.087  0.00  0.00    +0.000 C 
BRANCH  23  24
ATOM     24  O   UNL     1      43.822   2.551  11.778  0.00  0.00    +0.000 OA
ATOM     25  H   UNL     1      44.726   2.318  12.051  0.00  0.00    +0.000 HD
ENDBRANCH  23  24
BRANCH  23  26
ATOM     26  C   UNL     1      44.075   3.553   9.578  0.00  0.00    +0.000 C 
BRANCH  26  27
ATOM     27  O   UNL     1      44.649   2.264   9.341  0.00  0.00    +0.000 OA
BRANCH  27  28
ATOM     28  C   UNL     1      45.625   2.219   8.379  0.00  0.00    +0.000 A 
ATOM     29  C   UNL     1      46.460   1.131   8.108  0.00  0.00    +0.000 A 
ATOM     30  C   UNL     1      47.414   1.210   7.091  0.00  0.00    +0.000 A 
ATOM     31  C   UNL     1      47.540   2.376   6.341  0.00  0.00    +0.000 A 
ATOM     32  C   UNL     1      46.717   3.467   6.611  0.00  0.00    +0.000 A 
ATOM     33  C   UNL     1      45.764   3.387   7.627  0.00  0.00    +0.000 A 
ENDBRANCH  27  28
ENDBRANCH  26  27
ENDBRANCH  23  26
ENDBRANCH   4  23
TORSDOF 8
ENDMDL
MODEL 4
REMARK VINA RESULT:    -7.835      1.583      2.288
REMARK INTER + INTRA:         -12.450
REMARK INTER:                 -11.337
REMARK INTRA:                  -1.113
REMARK UNBOUND:                -1.179
REMARK  Name = 
REMARK  8 active torsions:
REMARK  status: ('A' for Active; 'I' for Inactive)
REMARK    1  A    between atoms: C_2  and  C_21
REMARK    2  A    between atoms: N_3  and  C_4
REMARK    3  A    between atoms: C_4  and  C_5
REMARK    4  A    between atoms: C_8  and  C_9
REMARK    5  A    between atoms: C_9  and  O_10
REMARK    6  A    between atoms: C_9  and  C_11
REMARK    7  A    between atoms: C_11  and  O_12
REMARK    8  A    between atoms: O_12  and  C_13
REMARK                            x       y       z     vdW  Elec       q    Type
REMARK                         _______ _______ _______ _____ _____    ______ ____
ROOT
ATOM      1  C   UNL     1      47.640   6.680  12.831  0.00  0.00    +0.000 A 
ATOM      2  C   UNL     1      46.852   7.546  12.072  0.00  0.00    +0.000 A 
ATOM      3  C   UNL     1      45.518   7.242  11.799  0.00  0.00    +0.000 A 
ATOM      4  C   UNL     1      44.926   6.071  12.299  0.00  0.00    +0.000 A 
ATOM      5  C   UNL     1      45.725   5.201  13.059  0.00  0.00    +0.000 A 
ATOM      6  C   UNL     1      47.065   5.503  13.327  0.00  0.00    +0.000 A 
ENDROOT
BRANCH   1   7
ATOM      7  C   UNL     1      49.059   7.054  13.166  0.00  0.00    +0.000 C 
BRANCH   7  10
ATOM      8  O   UNL     1      48.181   8.919  15.093  0.00  0.00    +0.000 OA
ATOM      9  C   UNL     1      48.763   7.904  15.466  0.00  0.00    +0.000 C 
ATOM     10  N   UNL     1      49.282   6.988  14.586  0.00  0.00    +0.000 N 
ATOM     11  H   UNL     1      49.557   6.079  14.940  0.00  0.00    +0.000 HD
BRANCH   9  12
ATOM     12  C   UNL     1      48.995   7.633  16.889  0.00  0.00    +0.000 A 
ATOM     13  C   UNL     1      49.347   8.670  17.742  0.00  0.00    +0.000 A 
ATOM     14  S   UNL     1      49.610   8.170  19.352  0.00  0.00    +0.000 S 
ATOM     15  C   UNL     1      49.213   6.559  18.977  0.00  0.00    +0.000 A 
ATOM     16  N   UNL     1      49.215   5.595  19.938  0.00  0.00    +0.000 NA
ATOM     17  C   UNL     1      48.848   4.429  19.522  0.00  0.00    +0.000 A 
ATOM     18  N   UNL     1      48.495   4.134  18.232  0.00  0.00    +0.000 N 
ATOM     19  C   UNL     1      48.552   5.056  17.216  0.00  0.00    +0.000 A 
ATOM     20  O   UNL     1      48.352   4.727  16.051  0.00  0.00    +0.000 OA
ATOM     21  C   UNL     1      48.911   6.398  17.637  0.00  0.00    +0.000 A 
ATOM     22  H   UNL     1      48.246   3.193  17.967  0.00  0.00    +0.000 HD
ENDBRANCH   9  12
ENDBRANCH   7  10
ENDBRANCH   1   7
BRANCH   4  23
ATOM     23  C   UNL     1      43.462   5.719  12.081  0.00  0.00    +0.000 C 
BRANCH  23  24
ATOM     24  O   UNL     1      42.847   5.514  13.359  0.00  0.00    +0.000 OA
ATOM     25  H   UNL     1      42.538   4.592  13.386  0.00  0.00    +0.000 HD
ENDBRANCH  23  24
BRANCH  23  26
ATOM     26  C   UNL     1      43.231   4.481  11.194  0.00  0.00    +0.000 C 
BRANCH  26  27
ATOM     27  O   UNL     1      43.583   4.754   9.834  0.00  0.00    +0.000 OA
BRANCH  27  28
ATOM     28  C   UNL     1      44.431   3.848   9.250  0.00  0.00    +0.000 A 
ATOM     29  C   UNL     1      44.455   2.472   9.495  0.00  0.00    +0.000 A 
ATOM     30  C   UNL     1      45.367   1.653   8.825  0.00  0.00    +0.000 A 
ATOM     31  C   UNL     1      46.260   2.204   7.910  0.00  0.00    +0.000 A 
ATOM     32  C   UNL     1      46.246   3.576   7.668  0.00  0.00    +0.000 A 
ATOM     33  C   UNL     1      45.335   4.394   8.338  0.00  0.00    +0.000 A 
ENDBRANCH  27  28
ENDBRANCH  26  27
ENDBRANCH  23  26
ENDBRANCH   4  23
TORSDOF 8
ENDMDL
MODEL 5
REMARK VINA RESULT:    -7.283      1.781      2.381
REMARK INTER + INTRA:         -11.655
REMARK INTER:                 -10.353
REMARK INTRA:                  -1.302
REMARK UNBOUND:                -1.179
REMARK  Name = 
REMARK  8 active torsions:
REMARK  status: ('A' for Active; 'I' for Inactive)
REMARK    1  A    between atoms: C_2  and  C_21
REMARK    2  A    between atoms: N_3  and  C_4
REMARK    3  A    between atoms: C_4  and  C_5
REMARK    4  A    between atoms: C_8  and  C_9
REMARK    5  A    between atoms: C_9  and  O_10
REMARK    6  A    between atoms: C_9  and  C_11
REMARK    7  A    between atoms: C_11  and  O_12
REMARK    8  A    between atoms: O_12  and  C_13
REMARK                            x       y       z     vdW  Elec       q    Type
REMARK                         _______ _______ _______ _____ _____    ______ ____
ROOT
ATOM      1  C   UNL     1      47.502   7.402  12.867  0.00  0.00    +0.000 A 
ATOM      2  C   UNL     1      46.264   8.018  12.674  0.00  0.00    +0.000 A 
ATOM      3  C   UNL     1      45.097   7.258  12.584  0.00  0.00    +0.000 A 
ATOM      4  C   UNL     1      45.133   5.860  12.709  0.00  0.00    +0.000 A 
ATOM      5  C   UNL     1      46.382   5.246  12.898  0.00  0.00    +0.000 A 
ATOM      6  C   UNL     1      47.553   6.007  12.982  0.00  0.00    +0.000 A 
ENDROOT
BRANCH   1   7
ATOM      7  C   UNL     1      48.742   8.243  13.023  0.00  0.00    +0.000 C 
BRANCH   7  10
ATOM      8  O   UNL     1      49.392   8.852  15.700  0.00  0.00    +0.000 OA
ATOM      9  C   UNL     1      49.924   7.886  15.161  0.00  0.00    +0.000 C 
ATOM     10  N   UNL     1      49.714   7.570  13.843  0.00  0.00    +0.000 N 
ATOM     11  H   UNL     1      50.001   6.656  13.512  0.00  0.00    +0.000 HD
BRANCH   9  12
ATOM     12  C   UNL     1      50.875   7.033  15.884  0.00  0.00    +0.000 A 
ATOM     13  C   UNL     1      52.232   7.323  15.843  0.00  0.00    +0.000 A 
ATOM     14  S   UNL     1      53.194   6.210  16.709  0.00  0.00    +0.000 S 
ATOM     15  C   UNL     1      51.826   5.332  17.212  0.00  0.00    +0.000 A 
ATOM     16  N   UNL     1      51.950   4.244  18.020  0.00  0.00    +0.000 NA
ATOM     17  C   UNL     1      50.828   3.704  18.360  0.00  0.00    +0.000 A 
ATOM     18  N   UNL     1      49.595   4.141  17.955  0.00  0.00    +0.000 N 
ATOM     19  C   UNL     1      49.426   5.186  17.081  0.00  0.00    +0.000 A 
ATOM     20  O   UNL     1      48.318   5.470  16.639  0.00  0.00    +0.000 OA
ATOM     21  C   UNL     1      50.654   5.862  16.704  0.00  0.00    +0.000 A 
ATOM     22  H   UNL     1      48.757   3.654  18.234  0.00  0.00    +0.000 HD
ENDBRANCH   9  12
ENDBRANCH   7  10
ENDBRANCH   1   7
BRANCH   4  23
ATOM     23  C   UNL     1      43.886   4.988  12.676  0.00  0.00    +0.000 C 
BRANCH  23  24
ATOM     24  O   UNL     1      44.227   3.686  13.168  0.00  0.00    +0.000 OA
ATOM     25  H   UNL     1      44.691   3.810  14.014  0.00  0.00    +0.000 HD
ENDBRANCH  23  24
BRANCH  23  26
ATOM     26  C   UNL     1      43.237   4.859  11.284  0.00  0.00    +0.000 C 
BRANCH  26  27
ATOM     27  O   UNL     1      43.361   3.525  10.785  0.00  0.00    +0.000 OA
BRANCH  27  28
ATOM     28  C   UNL     1      44.293   3.349   9.793  0.00  0.00    +0.000 A 
ATOM     29  C   UNL     1      44.872   4.364   9.025  0.00  0.00    +0.000 A 
ATOM     30  C   UNL     1      45.820   4.054   8.047  0.00  0.00    +0.000 A 
ATOM     31  C   UNL     1      46.192   2.730   7.830  0.00  0.00    +0.000 A 
ATOM     32  C   UNL     1      45.611   1.714   8.586  0.00  0.00    +0.000 A 
ATOM     33  C   UNL     1      44.664   2.024   9.563  0.00  0.00    +0.000 A 
ENDBRANCH  27  28
ENDBRANCH  26  27
ENDBRANCH  23  26
ENDBRANCH   4  23
TORSDOF 8
ENDMDL
MODEL 6
REMARK VINA RESULT:    -7.068      3.426      8.373
REMARK INTER + INTRA:         -11.347
REMARK INTER:                  -9.701
REMARK INTRA:                  -1.646
REMARK UNBOUND:                -1.179
REMARK  Name = 
REMARK  8 active torsions:
REMARK  status: ('A' for Active; 'I' for Inactive)
REMARK    1  A    between atoms: C_2  and  C_21
REMARK    2  A    between atoms: N_3  and  C_4
REMARK    3  A    between atoms: C_4  and  C_5
REMARK    4  A    between atoms: C_8  and  C_9
REMARK    5  A    between atoms: C_9  and  O_10
REMARK    6  A    between atoms: C_9  and  C_11
REMARK    7  A    between atoms: C_11  and  O_12
REMARK    8  A    between atoms: O_12  and  C_13
REMARK                            x       y       z     vdW  Elec       q    Type
REMARK                         _______ _______ _______ _____ _____    ______ ____
ROOT
ATOM      1  C   UNL     1      48.246   7.968  13.199  0.00  0.00    +0.000 A 
ATOM      2  C   UNL     1      49.281   7.122  13.603  0.00  0.00    +0.000 A 
ATOM      3  C   UNL     1      49.800   7.198  14.895  0.00  0.00    +0.000 A 
ATOM      4  C   UNL     1      49.282   8.108  15.831  0.00  0.00    +0.000 A 
ATOM      5  C   UNL     1      48.244   8.959  15.417  0.00  0.00    +0.000 A 
ATOM      6  C   UNL     1      47.728   8.888  14.119  0.00  0.00    +0.000 A 
ENDROOT
BRANCH   1   7
ATOM      7  C   UNL     1      47.659   7.829  11.820  0.00  0.00    +0.000 C 
BRANCH   7  10
ATOM      8  O   UNL     1      44.859   7.544  12.028  0.00  0.00    +0.000 OA
ATOM      9  C   UNL     1      45.541   6.561  11.752  0.00  0.00    +0.000 C 
ATOM     10  N   UNL     1      46.911   6.605  11.705  0.00  0.00    +0.000 N 
ATOM     11  H   UNL     1      47.406   5.835  11.269  0.00  0.00    +0.000 HD
BRANCH   9  12
ATOM     12  C   UNL     1      44.931   5.248  11.512  0.00  0.00    +0.000 A 
ATOM     13  C   UNL     1      44.172   4.646  12.506  0.00  0.00    +0.000 A 
ATOM     14  S   UNL     1      43.568   3.112  12.069  0.00  0.00    +0.000 S 
ATOM     15  C   UNL     1      44.256   3.220  10.516  0.00  0.00    +0.000 A 
ATOM     16  N   UNL     1      44.090   2.223   9.605  0.00  0.00    +0.000 NA
ATOM     17  C   UNL     1      44.625   2.459   8.455  0.00  0.00    +0.000 A 
ATOM     18  N   UNL     1      45.325   3.592   8.136  0.00  0.00    +0.000 N 
ATOM     19  C   UNL     1      45.582   4.588   9.045  0.00  0.00    +0.000 A 
ATOM     20  O   UNL     1      46.319   5.528   8.764  0.00  0.00    +0.000 OA
ATOM     21  C   UNL     1      44.960   4.397  10.343  0.00  0.00    +0.000 A 
ATOM     22  H   UNL     1      45.745   3.701   7.225  0.00  0.00    +0.000 HD
ENDBRANCH   9  12
ENDBRANCH   7  10
ENDBRANCH   1   7
BRANCH   4  23
ATOM     23  C   UNL     1      49.771   8.193  17.269  0.00  0.00    +0.000 C 
BRANCH  23  24
ATOM     24  O   UNL     1      51.188   7.976  17.282  0.00  0.00    +0.000 OA
ATOM     25  H   UNL     1      51.465   7.939  18.214  0.00  0.00    +0.000 HD
ENDBRANCH  23  24
BRANCH  23  26
ATOM     26  C   UNL     1      49.089   7.202  18.233  0.00  0.00    +0.000 C 
BRANCH  26  27
ATOM     27  O   UNL     1      49.862   6.006  18.366  0.00  0.00    +0.000 OA
BRANCH  27  28
ATOM     28  C   UNL     1      49.330   4.889  17.774  0.00  0.00    +0.000 A 
ATOM     29  C   UNL     1      48.089   4.814  17.133  0.00  0.00    +0.000 A 
ATOM     30  C   UNL     1      47.664   3.614  16.559  0.00  0.00    +0.000 A 
ATOM     31  C   UNL     1      48.474   2.483  16.623  0.00  0.00    +0.000 A 
ATOM     32  C   UNL     1      49.707   2.550  17.268  0.00  0.00    +0.000 A 
ATOM     33  C   UNL     1      50.131   3.749  17.841  0.00  0.00    +0.000 A 
ENDBRANCH  27  28
ENDBRANCH  26  27
ENDBRANCH  23  26
ENDBRANCH   4  23
TORSDOF 8
ENDMDL
MODEL 7
REMARK VINA RESULT:    -6.938      3.710      8.077
REMARK INTER + INTRA:         -11.159
REMARK INTER:                  -9.572
REMARK INTRA:                  -1.587
REMARK UNBOUND:                -1.179
REMARK  Name = 
REMARK  8 active torsions:
REMARK  status: ('A' for Active; 'I' for Inactive)
REMARK    1  A    between atoms: C_2  and  C_21
REMARK    2  A    between atoms: N_3  and  C_4
REMARK    3  A    between atoms: C_4  and  C_5
REMARK    4  A    between atoms: C_8  and  C_9
REMARK    5  A    between atoms: C_9  and  O_10
REMARK    6  A    between atoms: C_9  and  C_11
REMARK    7  A    between atoms: C_11  and  O_12
REMARK    8  A    between atoms: O_12  and  C_13
REMARK                            x       y       z     vdW  Elec       q    Type
REMARK                         _______ _______ _______ _____ _____    ______ ____
ROOT
ATOM      1  C   UNL     1      48.572   8.037  13.504  0.00  0.00    +0.000 A 
ATOM      2  C   UNL     1      48.020   9.049  14.292  0.00  0.00    +0.000 A 
ATOM      3  C   UNL     1      48.185   9.043  15.677  0.00  0.00    +0.000 A 
ATOM      4  C   UNL     1      48.930   8.036  16.313  0.00  0.00    +0.000 A 
ATOM      5  C   UNL     1      49.478   7.019  15.515  0.00  0.00    +0.000 A 
ATOM      6  C   UNL     1      49.307   7.021  14.127  0.00  0.00    +0.000 A 
ENDROOT
BRANCH   1   7
ATOM      7  C   UNL     1      48.434   8.093  12.005  0.00  0.00    +0.000 C 
BRANCH   7  10
ATOM      8  O   UNL     1      45.623   7.924  11.836  0.00  0.00    +0.000 OA
ATOM      9  C   UNL     1      46.304   6.996  11.409  0.00  0.00    +0.000 C 
ATOM     10  N   UNL     1      47.671   6.973  11.522  0.00  0.00    +0.000 N 
ATOM     11  H   UNL     1      48.192   6.300  10.971  0.00  0.00    +0.000 HD
BRANCH   9  12
ATOM     12  C   UNL     1      45.689   5.811  10.798  0.00  0.00    +0.000 A 
ATOM     13  C   UNL     1      45.892   5.545   9.451  0.00  0.00    +0.000 A 
ATOM     14  S   UNL     1      45.078   4.151   8.901  0.00  0.00    +0.000 S 
ATOM     15  C   UNL     1      44.468   3.824  10.455  0.00  0.00    +0.000 A 
ATOM     16  N   UNL     1      43.694   2.729  10.689  0.00  0.00    +0.000 NA
ATOM     17  C   UNL     1      43.342   2.580  11.922  0.00  0.00    +0.000 A 
ATOM     18  N   UNL     1      43.677   3.432  12.940  0.00  0.00    +0.000 N 
ATOM     19  C   UNL     1      44.391   4.587  12.737  0.00  0.00    +0.000 A 
ATOM     20  O   UNL     1      44.565   5.392  13.647  0.00  0.00    +0.000 OA
ATOM     21  C   UNL     1      44.857   4.780  11.376  0.00  0.00    +0.000 A 
ATOM     22  H   UNL     1      43.343   3.273  13.878  0.00  0.00    +0.000 HD
ENDBRANCH   9  12
ENDBRANCH   7  10
ENDBRANCH   1   7
BRANCH   4  23
ATOM     23  C   UNL     1      49.190   8.014  17.812  0.00  0.00    +0.000 C 
BRANCH  23  24
ATOM     24  O   UNL     1      50.577   7.723  18.029  0.00  0.00    +0.000 OA
ATOM     25  H   UNL     1      50.623   6.869  18.492  0.00  0.00    +0.000 HD
ENDBRANCH  23  24
BRANCH  23  26
ATOM     26  C   UNL     1      48.324   7.006  18.592  0.00  0.00    +0.000 C 
BRANCH  26  27
ATOM     27  O   UNL     1      49.101   5.878  19.006  0.00  0.00    +0.000 OA
BRANCH  27  28
ATOM     28  C   UNL     1      48.951   4.746  18.245  0.00  0.00    +0.000 A 
ATOM     29  C   UNL     1      49.952   3.815  17.956  0.00  0.00    +0.000 A 
ATOM     30  C   UNL     1      49.668   2.694  17.172  0.00  0.00    +0.000 A 
ATOM     31  C   UNL     1      48.384   2.500  16.672  0.00  0.00    +0.000 A 
ATOM     32  C   UNL     1      47.384   3.429  16.948  0.00  0.00    +0.000 A 
ATOM     33  C   UNL     1      47.669   4.549  17.731  0.00  0.00    +0.000 A 
ENDBRANCH  27  28
ENDBRANCH  26  27
ENDBRANCH  23  26
ENDBRANCH   4  23
TORSDOF 8
ENDMDL
MODEL 8
REMARK VINA RESULT:    -6.623      3.999      8.406
REMARK INTER + INTRA:         -10.706
REMARK INTER:                  -8.696
REMARK INTRA:                  -2.011
REMARK UNBOUND:                -1.179
REMARK  Name = 
REMARK  8 active torsions:
REMARK  status: ('A' for Active; 'I' for Inactive)
REMARK    1  A    between atoms: C_2  and  C_21
REMARK    2  A    between atoms: N_3  and  C_4
REMARK    3  A    between atoms: C_4  and  C_5
REMARK    4  A    between atoms: C_8  and  C_9
REMARK    5  A    between atoms: C_9  and  O_10
REMARK    6  A    between atoms: C_9  and  C_11
REMARK    7  A    between atoms: C_11  and  O_12
REMARK    8  A    between atoms: O_12  and  C_13
REMARK                            x       y       z     vdW  Elec       q    Type
REMARK                         _______ _______ _______ _____ _____    ______ ____
ROOT
ATOM      1  C   UNL     1      48.729   8.550  15.764  0.00  0.00    +0.000 A 
ATOM      2  C   UNL     1      49.814   7.681  15.889  0.00  0.00    +0.000 A 
ATOM      3  C   UNL     1      50.295   7.318  17.147  0.00  0.00    +0.000 A 
ATOM      4  C   UNL     1      49.687   7.795  18.319  0.00  0.00    +0.000 A 
ATOM      5  C   UNL     1      48.598   8.672  18.187  0.00  0.00    +0.000 A 
ATOM      6  C   UNL     1      48.120   9.042  16.925  0.00  0.00    +0.000 A 
ENDROOT
BRANCH   1   7
ATOM      7  C   UNL     1      48.186   8.882  14.399  0.00  0.00    +0.000 C 
BRANCH   7  10
ATOM      8  O   UNL     1      48.705   6.815  12.549  0.00  0.00    +0.000 OA
ATOM      9  C   UNL     1      47.611   6.859  13.104  0.00  0.00    +0.000 C 
ATOM     10  N   UNL     1      47.259   7.873  13.959  0.00  0.00    +0.000 N 
ATOM     11  H   UNL     1      46.442   7.750  14.547  0.00  0.00    +0.000 HD
BRANCH   9  12
ATOM     12  C   UNL     1      46.576   5.852  12.840  0.00  0.00    +0.000 A 
ATOM     13  C   UNL     1      46.790   4.530  13.206  0.00  0.00    +0.000 A 
ATOM     14  S   UNL     1      45.500   3.492  12.795  0.00  0.00    +0.000 S 
ATOM     15  C   UNL     1      44.589   4.781  12.160  0.00  0.00    +0.000 A 
ATOM     16  N   UNL     1      43.343   4.576  11.654  0.00  0.00    +0.000 NA
ATOM     17  C   UNL     1      42.749   5.650  11.251  0.00  0.00    +0.000 A 
ATOM     18  N   UNL     1      43.292   6.906  11.291  0.00  0.00    +0.000 N 
ATOM     19  C   UNL     1      44.573   7.149  11.723  0.00  0.00    +0.000 A 
ATOM     20  O   UNL     1      45.072   8.265  11.627  0.00  0.00    +0.000 OA
ATOM     21  C   UNL     1      45.270   5.983  12.235  0.00  0.00    +0.000 A 
ATOM     22  H   UNL     1      42.785   7.700  10.932  0.00  0.00    +0.000 HD
ENDBRANCH   9  12
ENDBRANCH   7  10
ENDBRANCH   1   7
BRANCH   4  23
ATOM     23  C   UNL     1      50.133   7.386  19.715  0.00  0.00    +0.000 C 
BRANCH  23  24
ATOM     24  O   UNL     1      51.444   7.918  19.948  0.00  0.00    +0.000 OA
ATOM     25  H   UNL     1      51.437   8.844  19.652  0.00  0.00    +0.000 HD
ENDBRANCH  23  24
BRANCH  23  26
ATOM     26  C   UNL     1      50.143   5.865  19.960  0.00  0.00    +0.000 C 
BRANCH  26  27
ATOM     27  O   UNL     1      48.826   5.320  19.837  0.00  0.00    +0.000 OA
BRANCH  27  28
ATOM     28  C   UNL     1      48.610   4.540  18.729  0.00  0.00    +0.000 A 
ATOM     29  C   UNL     1      49.453   3.527  18.264  0.00  0.00    +0.000 A 
ATOM     30  C   UNL     1      49.114   2.797  17.122  0.00  0.00    +0.000 A 
ATOM     31  C   UNL     1      47.933   3.076  16.440  0.00  0.00    +0.000 A 
ATOM     32  C   UNL     1      47.093   4.091  16.894  0.00  0.00    +0.000 A 
ATOM     33  C   UNL     1      47.433   4.820  18.034  0.00  0.00    +0.000 A 
ENDBRANCH  27  28
ENDBRANCH  26  27
ENDBRANCH  23  26
ENDBRANCH   4  23
TORSDOF 8
ENDMDL
MODEL 9
REMARK VINA RESULT:    -6.409      2.458      3.405
REMARK INTER + INTRA:         -10.399
REMARK INTER:                  -9.821
REMARK INTRA:                  -0.577
REMARK UNBOUND:                -1.179
REMARK  Name = 
REMARK  8 active torsions:
REMARK  status: ('A' for Active; 'I' for Inactive)
REMARK    1  A    between atoms: C_2  and  C_21
REMARK    2  A    between atoms: N_3  and  C_4
REMARK    3  A    between atoms: C_4  and  C_5
REMARK    4  A    between atoms: C_8  and  C_9
REMARK    5  A    between atoms: C_9  and  O_10
REMARK    6  A    between atoms: C_9  and  C_11
REMARK    7  A    between atoms: C_11  and  O_12
REMARK    8  A    between atoms: O_12  and  C_13
REMARK                            x       y       z     vdW  Elec       q    Type
REMARK                         _______ _______ _______ _____ _____    ______ ____
ROOT
ATOM      1  C   UNL     1      46.578   4.723  14.083  0.00  0.00    +0.000 A 
ATOM      2  C   UNL     1      46.982   5.724  13.198  0.00  0.00    +0.000 A 
ATOM      3  C   UNL     1      46.342   5.890  11.970  0.00  0.00    +0.000 A 
ATOM      4  C   UNL     1      45.261   5.073  11.601  0.00  0.00    +0.000 A 
ATOM      5  C   UNL     1      44.862   4.065  12.494  0.00  0.00    +0.000 A 
ATOM      6  C   UNL     1      45.509   3.894  13.722  0.00  0.00    +0.000 A 
ENDROOT
BRANCH   1   7
ATOM      7  C   UNL     1      47.241   4.598  15.429  0.00  0.00    +0.000 C 
BRANCH   7  10
ATOM      8  O   UNL     1      48.156   5.566  17.917  0.00  0.00    +0.000 OA
ATOM      9  C   UNL     1      48.618   6.042  16.884  0.00  0.00    +0.000 C 
ATOM     10  N   UNL     1      48.172   5.675  15.640  0.00  0.00    +0.000 N 
ATOM     11  H   UNL     1      48.726   5.933  14.831  0.00  0.00    +0.000 HD
BRANCH   9  12
ATOM     12  C   UNL     1      49.647   7.088  16.917  0.00  0.00    +0.000 A 
ATOM     13  C   UNL     1      50.882   6.861  16.323  0.00  0.00    +0.000 A 
ATOM     14  S   UNL     1      51.966   8.168  16.484  0.00  0.00    +0.000 S 
ATOM     15  C   UNL     1      50.807   9.104  17.307  0.00  0.00    +0.000 A 
ATOM     16  N   UNL     1      51.089  10.371  17.715  0.00  0.00    +0.000 NA
ATOM     17  C   UNL     1      50.103  10.979  18.284  0.00  0.00    +0.000 A 
ATOM     18  N   UNL     1      48.865  10.433  18.496  0.00  0.00    +0.000 N 
ATOM     19  C   UNL     1      48.559   9.135  18.170  0.00  0.00    +0.000 A 
ATOM     20  O   UNL     1      47.484   8.638  18.489  0.00  0.00    +0.000 OA
ATOM     21  C   UNL     1      49.617   8.419  17.482  0.00  0.00    +0.000 A 
ATOM     22  H   UNL     1      48.146  10.954  18.975  0.00  0.00    +0.000 HD
ENDBRANCH   9  12
ENDBRANCH   7  10
ENDBRANCH   1   7
BRANCH   4  23
ATOM     23  C   UNL     1      44.491   5.247  10.300  0.00  0.00    +0.000 C 
BRANCH  23  24
ATOM     24  O   UNL     1      43.315   6.023  10.568  0.00  0.00    +0.000 OA
ATOM     25  H   UNL     1      42.613   5.694   9.980  0.00  0.00    +0.000 HD
ENDBRANCH  23  24
BRANCH  23  26
ATOM     26  C   UNL     1      44.092   3.926   9.615  0.00  0.00    +0.000 C 
BRANCH  26  27
ATOM     27  O   UNL     1      45.159   2.976   9.678  0.00  0.00    +0.000 OA
BRANCH  27  28
ATOM     28  C   UNL     1      45.797   2.725   8.490  0.00  0.00    +0.000 A 
ATOM     29  C   UNL     1      46.037   3.657   7.476  0.00  0.00    +0.000 A 
ATOM     30  C   UNL     1      46.708   3.276   6.312  0.00  0.00    +0.000 A 
ATOM     31  C   UNL     1      47.140   1.962   6.153  0.00  0.00    +0.000 A 
ATOM     32  C   UNL     1      46.897   1.026   7.157  0.00  0.00    +0.000 A 
ATOM     33  C   UNL     1      46.226   1.408   8.319  0.00  0.00    +0.000 A 
ENDBRANCH  27  28
ENDBRANCH  26  27
ENDBRANCH  23  26
ENDBRANCH   4  23
TORSDOF 8
ENDMDL
