MODEL 1
REMARK VINA RESULT:    -8.611      0.000      0.000
REMARK INTER + INTRA:         -10.989
REMARK INTER:                 -10.625
REMARK INTRA:                  -0.364
REMARK UNBOUND:                -0.364
REMARK  Name = 
REMARK  4 active torsions:
REMARK  status: ('A' for Active; 'I' for Inactive)
REMARK    1  A    between atoms: C_2  and  C_4
REMARK    2  A    between atoms: N_8  and  C_9
REMARK    3  A    between atoms: C_9  and  C_10
REMARK    4  A    between atoms: C_14  and  C_15
REMARK                            x       y       z     vdW  Elec       q    Type
REMARK                         _______ _______ _______ _____ _____    ______ ____
ROOT
ATOM      1  C   UNL     1      46.535   2.781   7.297  0.00  0.00    +0.000 A 
ATOM      2  C   UNL     1      46.080   3.978   7.836  0.00  0.00    +0.000 A 
ATOM      3  C   UNL     1      45.359   3.952   9.029  0.00  0.00    +0.000 A 
ATOM      4  C   UNL     1      45.106   2.739   9.662  0.00  0.00    +0.000 A 
ATOM      5  N   UNL     1      44.381   2.629  10.816  0.00  0.00    +0.000 N 
ATOM      6  N   UNL     1      45.541   1.575   9.146  0.00  0.00    +0.000 NA
ATOM      7  C   UNL     1      46.230   1.611   7.973  0.00  0.00    +0.000 A 
ATOM      8  H   UNL     1      44.350   1.691  11.194  0.00  0.00    +0.000 HD
ENDROOT
BRANCH   1  10
ATOM      9  N   UNL     1      48.641   2.466   6.138  0.00  0.00    +0.000 N 
ATOM     10  C   UNL     1      47.302   2.723   6.037  0.00  0.00    +0.000 C 
ATOM     11  O   UNL     1      46.761   2.868   4.950  0.00  0.00    +0.000 OA
ATOM     12  H   UNL     1      49.145   2.332   5.271  0.00  0.00    +0.000 HD
ATOM     13  H   UNL     1      49.062   2.106   6.984  0.00  0.00    +0.000 HD
ENDBRANCH   1  10
BRANCH   5  14
ATOM     14  C   UNL     1      43.752   3.719  11.529  0.00  0.00    +0.000 C 
BRANCH  14  15
ATOM     15  C   UNL     1      44.759   4.644  12.183  0.00  0.00    +0.000 A 
ATOM     16  C   UNL     1      44.952   5.931  11.690  0.00  0.00    +0.000 A 
ATOM     17  C   UNL     1      45.919   6.734  12.276  0.00  0.00    +0.000 A 
ATOM     18  C   UNL     1      46.662   6.237  13.343  0.00  0.00    +0.000 A 
ATOM     19  C   UNL     1      46.417   4.945  13.811  0.00  0.00    +0.000 A 
ATOM     20  N   UNL     1      45.473   4.150  13.230  0.00  0.00    +0.000 NA
BRANCH  19  21
ATOM     21  C   UNL     1      47.149   4.375  14.967  0.00  0.00    +0.000 A 
ATOM     22  C   UNL     1      47.496   5.149  16.078  0.00  0.00    +0.000 A 
ATOM     23  C   UNL     1      48.224   4.573  17.116  0.00  0.00    +0.000 A 
ATOM     24  C   UNL     1      48.586   3.237  17.033  0.00  0.00    +0.000 A 
ATOM     25  C   UNL     1      48.195   2.526  15.913  0.00  0.00    +0.000 A 
ATOM     26  N   UNL     1      47.493   3.059  14.889  0.00  0.00    +0.000 NA
ENDBRANCH  19  21
ENDBRANCH  14  15
ENDBRANCH   5  14
TORSDOF 4
ENDMDL
MODEL 2
REMARK VINA RESULT:    -8.555      2.360      4.465
REMARK INTER + INTRA:         -10.920
REMARK INTER:                 -10.398
REMARK INTRA:                  -0.522
REMARK UNBOUND:                -0.364
REMARK  Name = 
REMARK  4 active torsions:
REMARK  status: ('A' for Active; 'I' for Inactive)
REMARK    1  A    between atoms: C_2  and  C_4
REMARK    2  A    between atoms: N_8  and  C_9
REMARK    3  A    between atoms: C_9  and  C_10
REMARK    4  A    between atoms: C_14  and  C_15
REMARK                            x       y       z     vdW  Elec       q    Type
REMARK                         _______ _______ _______ _____ _____    ______ ____
ROOT
ATOM      1  C   UNL     1      46.642   2.505   7.218  0.00  0.00    +0.000 A 
ATOM      2  C   UNL     1      46.147   3.745   7.601  0.00  0.00    +0.000 A 
ATOM      3  C   UNL     1      45.302   3.825   8.707  0.00  0.00    +0.000 A 
ATOM      4  C   UNL     1      44.967   2.672   9.410  0.00  0.00    +0.000 A 
ATOM      5  N   UNL     1      44.121   2.666  10.484  0.00  0.00    +0.000 N 
ATOM      6  N   UNL     1      45.440   1.467   9.045  0.00  0.00    +0.000 NA
ATOM      7  C   UNL     1      46.251   1.399   7.955  0.00  0.00    +0.000 A 
ATOM      8  H   UNL     1      44.038   1.764  10.935  0.00  0.00    +0.000 HD
ENDROOT
BRANCH   1  10
ATOM      9  N   UNL     1      47.451   3.273   5.066  0.00  0.00    +0.000 N 
ATOM     10  C   UNL     1      47.539   2.336   6.057  0.00  0.00    +0.000 C 
ATOM     11  O   UNL     1      48.344   1.418   5.998  0.00  0.00    +0.000 OA
ATOM     12  H   UNL     1      48.131   3.210   4.319  0.00  0.00    +0.000 HD
ATOM     13  H   UNL     1      46.981   4.159   5.197  0.00  0.00    +0.000 HD
ENDBRANCH   1  10
BRANCH   5  14
ATOM     14  C   UNL     1      43.434   3.816  11.029  0.00  0.00    +0.000 C 
BRANCH  14  15
ATOM     15  C   UNL     1      44.372   4.775  11.733  0.00  0.00    +0.000 A 
ATOM     16  C   UNL     1      45.270   4.304  12.686  0.00  0.00    +0.000 A 
ATOM     17  C   UNL     1      46.078   5.214  13.352  0.00  0.00    +0.000 A 
ATOM     18  C   UNL     1      45.974   6.568  13.045  0.00  0.00    +0.000 A 
ATOM     19  C   UNL     1      45.069   6.986  12.070  0.00  0.00    +0.000 A 
ATOM     20  N   UNL     1      44.267   6.094  11.420  0.00  0.00    +0.000 NA
BRANCH  19  21
ATOM     21  C   UNL     1      44.941   8.409  11.673  0.00  0.00    +0.000 A 
ATOM     22  C   UNL     1      45.866   9.376  12.077  0.00  0.00    +0.000 A 
ATOM     23  C   UNL     1      45.672  10.707  11.714  0.00  0.00    +0.000 A 
ATOM     24  C   UNL     1      44.566  11.048  10.949  0.00  0.00    +0.000 A 
ATOM     25  C   UNL     1      43.701  10.038  10.570  0.00  0.00    +0.000 A 
ATOM     26  N   UNL     1      43.861   8.741  10.911  0.00  0.00    +0.000 NA
ENDBRANCH  19  21
ENDBRANCH  14  15
ENDBRANCH   5  14
TORSDOF 4
ENDMDL
MODEL 3
REMARK VINA RESULT:    -7.985      2.414      3.396
REMARK INTER + INTRA:         -10.216
REMARK INTER:                  -9.593
REMARK INTRA:                  -0.623
REMARK UNBOUND:                -0.364
REMARK  Name = 
REMARK  4 active torsions:
REMARK  status: ('A' for Active; 'I' for Inactive)
REMARK    1  A    between atoms: C_2  and  C_4
REMARK    2  A    between atoms: N_8  and  C_9
REMARK    3  A    between atoms: C_9  and  C_10
REMARK    4  A    between atoms: C_14  and  C_15
REMARK                            x       y       z     vdW  Elec       q    Type
REMARK                         _______ _______ _______ _____ _____    ______ ____
ROOT
ATOM      1  C   UNL     1      46.620   2.407   7.517  0.00  0.00    +0.000 A 
ATOM      2  C   UNL     1      46.014   2.066   8.719  0.00  0.00    +0.000 A 
ATOM      3  C   UNL     1      45.410   3.066   9.480  0.00  0.00    +0.000 A 
ATOM      4  C   UNL     1      45.420   4.383   9.031  0.00  0.00    +0.000 A 
ATOM      5  N   UNL     1      44.877   5.422   9.735  0.00  0.00    +0.000 N 
ATOM      6  N   UNL     1      46.007   4.723   7.868  0.00  0.00    +0.000 NA
ATOM      7  C   UNL     1      46.607   3.740   7.143  0.00  0.00    +0.000 A 
ATOM      8  H   UNL     1      44.894   6.305   9.241  0.00  0.00    +0.000 HD
ENDROOT
BRANCH   1  10
ATOM      9  N   UNL     1      48.217   1.875   5.773  0.00  0.00    +0.000 N 
ATOM     10  C   UNL     1      47.284   1.408   6.656  0.00  0.00    +0.000 C 
ATOM     11  O   UNL     1      47.033   0.215   6.748  0.00  0.00    +0.000 OA
ATOM     12  H   UNL     1      48.739   1.181   5.252  0.00  0.00    +0.000 HD
ATOM     13  H   UNL     1      48.615   2.802   5.842  0.00  0.00    +0.000 HD
ENDBRANCH   1  10
BRANCH   5  14
ATOM     14  C   UNL     1      44.249   5.330  11.034  0.00  0.00    +0.000 C 
BRANCH  14  15
ATOM     15  C   UNL     1      45.257   5.241  12.162  0.00  0.00    +0.000 A 
ATOM     16  C   UNL     1      45.034   4.382  13.234  0.00  0.00    +0.000 A 
ATOM     17  C   UNL     1      45.948   4.364  14.278  0.00  0.00    +0.000 A 
ATOM     18  C   UNL     1      47.064   5.194  14.221  0.00  0.00    +0.000 A 
ATOM     19  C   UNL     1      47.249   6.024  13.114  0.00  0.00    +0.000 A 
ATOM     20  N   UNL     1      46.347   6.051  12.091  0.00  0.00    +0.000 NA
BRANCH  19  21
ATOM     21  C   UNL     1      48.437   6.901  12.979  0.00  0.00    +0.000 A 
ATOM     22  C   UNL     1      48.715   7.594  11.799  0.00  0.00    +0.000 A 
ATOM     23  C   UNL     1      49.870   8.368  11.712  0.00  0.00    +0.000 A 
ATOM     24  C   UNL     1      50.721   8.444  12.804  0.00  0.00    +0.000 A 
ATOM     25  C   UNL     1      50.375   7.746  13.947  0.00  0.00    +0.000 A 
ATOM     26  N   UNL     1      49.265   6.985  14.058  0.00  0.00    +0.000 NA
ENDBRANCH  19  21
ENDBRANCH  14  15
ENDBRANCH   5  14
TORSDOF 4
ENDMDL
MODEL 4
REMARK VINA RESULT:    -7.901      3.335      7.125
REMARK INTER + INTRA:         -10.112
REMARK INTER:                  -9.724
REMARK INTRA:                  -0.388
REMARK UNBOUND:                -0.364
REMARK  Name = 
REMARK  4 active torsions:
REMARK  status: ('A' for Active; 'I' for Inactive)
REMARK    1  A    between atoms: C_2  and  C_4
REMARK    2  A    between atoms: N_8  and  C_9
REMARK    3  A    between atoms: C_9  and  C_10
REMARK    4  A    between atoms: C_14  and  C_15
REMARK                            x       y       z     vdW  Elec       q    Type
REMARK                         _______ _______ _______ _____ _____    ______ ____
ROOT
ATOM      1  C   UNL     1      47.929   6.720  13.665  0.00  0.00    +0.000 A 
ATOM      2  C   UNL     1      46.844   5.868  13.832  0.00  0.00    +0.000 A 
ATOM      3  C   UNL     1      45.765   5.965  12.954  0.00  0.00    +0.000 A 
ATOM      4  C   UNL     1      45.786   6.904  11.928  0.00  0.00    +0.000 A 
ATOM      5  N   UNL     1      44.754   7.080  11.048  0.00  0.00    +0.000 N 
ATOM      6  N   UNL     1      46.831   7.735  11.759  0.00  0.00    +0.000 NA
ATOM      7  C   UNL     1      47.871   7.641  12.632  0.00  0.00    +0.000 A 
ATOM      8  H   UNL     1      44.952   7.746  10.313  0.00  0.00    +0.000 HD
ENDROOT
BRANCH   1  10
ATOM      9  N   UNL     1      50.213   7.375  14.143  0.00  0.00    +0.000 N 
ATOM     10  C   UNL     1      49.107   6.683  14.553  0.00  0.00    +0.000 C 
ATOM     11  O   UNL     1      49.087   6.087  15.620  0.00  0.00    +0.000 OA
ATOM     12  H   UNL     1      50.984   7.428  14.796  0.00  0.00    +0.000 HD
ATOM     13  H   UNL     1      50.179   8.063  13.403  0.00  0.00    +0.000 HD
ENDBRANCH   1  10
BRANCH   5  14
ATOM     14  C   UNL     1      43.500   6.362  11.059  0.00  0.00    +0.000 C 
BRANCH  14  15
ATOM     15  C   UNL     1      43.681   4.869  10.868  0.00  0.00    +0.000 A 
ATOM     16  C   UNL     1      43.064   3.973  11.735  0.00  0.00    +0.000 A 
ATOM     17  C   UNL     1      43.294   2.615  11.567  0.00  0.00    +0.000 A 
ATOM     18  C   UNL     1      44.125   2.187  10.536  0.00  0.00    +0.000 A 
ATOM     19  C   UNL     1      44.706   3.127   9.684  0.00  0.00    +0.000 A 
ATOM     20  N   UNL     1      44.490   4.463   9.853  0.00  0.00    +0.000 NA
BRANCH  19  21
ATOM     21  C   UNL     1      45.569   2.730   8.546  0.00  0.00    +0.000 A 
ATOM     22  C   UNL     1      45.881   3.613   7.510  0.00  0.00    +0.000 A 
ATOM     23  C   UNL     1      46.659   3.173   6.442  0.00  0.00    +0.000 A 
ATOM     24  C   UNL     1      47.117   1.864   6.429  0.00  0.00    +0.000 A 
ATOM     25  C   UNL     1      46.784   1.048   7.495  0.00  0.00    +0.000 A 
ATOM     26  N   UNL     1      46.029   1.447   8.542  0.00  0.00    +0.000 NA
ENDBRANCH  19  21
ENDBRANCH  14  15
ENDBRANCH   5  14
TORSDOF 4
ENDMDL
MODEL 5
REMARK VINA RESULT:    -7.675      3.491      6.953
REMARK INTER + INTRA:          -9.834
REMARK INTER:                  -9.113
REMARK INTRA:                  -0.720
REMARK UNBOUND:                -0.364
REMARK  Name = 
REMARK  4 active torsions:
REMARK  status: ('A' for Active; 'I' for Inactive)
REMARK    1  A    between atoms: C_2  and  C_4
REMARK    2  A    between atoms: N_8  and  C_9
REMARK    3  A    between atoms: C_9  and  C_10
REMARK    4  A    between atoms: C_14  and  C_15
REMARK                            x       y       z     vdW  Elec       q    Type
REMARK                         _______ _______ _______ _____ _____    ______ ____
ROOT
ATOM      1  C   UNL     1      49.609   7.641  12.444  0.00  0.00    +0.000 A 
ATOM      2  C   UNL     1      48.648   7.783  11.450  0.00  0.00    +0.000 A 
ATOM      3  C   UNL     1      47.336   7.394  11.716  0.00  0.00    +0.000 A 
ATOM      4  C   UNL     1      47.005   6.873  12.963  0.00  0.00    +0.000 A 
ATOM      5  N   UNL     1      45.749   6.441  13.289  0.00  0.00    +0.000 N 
ATOM      6  N   UNL     1      47.929   6.730  13.931  0.00  0.00    +0.000 NA
ATOM      7  C   UNL     1      49.210   7.098  13.654  0.00  0.00    +0.000 A 
ATOM      8  H   UNL     1      45.650   6.162  14.256  0.00  0.00    +0.000 HD
ENDROOT
BRANCH   1  10
ATOM      9  N   UNL     1      51.655   7.493  11.153  0.00  0.00    +0.000 N 
ATOM     10  C   UNL     1      51.020   8.026  12.240  0.00  0.00    +0.000 C 
ATOM     11  O   UNL     1      51.585   8.808  12.990  0.00  0.00    +0.000 OA
ATOM     12  H   UNL     1      52.590   7.831  10.961  0.00  0.00    +0.000 HD
ATOM     13  H   UNL     1      51.155   7.048  10.395  0.00  0.00    +0.000 HD
ENDBRANCH   1  10
BRANCH   5  14
ATOM     14  C   UNL     1      44.603   6.428  12.408  0.00  0.00    +0.000 C 
BRANCH  14  15
ATOM     15  C   UNL     1      44.334   5.057  11.822  0.00  0.00    +0.000 A 
ATOM     16  C   UNL     1      43.458   4.183  12.458  0.00  0.00    +0.000 A 
ATOM     17  C   UNL     1      43.275   2.914  11.927  0.00  0.00    +0.000 A 
ATOM     18  C   UNL     1      43.963   2.554  10.772  0.00  0.00    +0.000 A 
ATOM     19  C   UNL     1      44.818   3.475  10.163  0.00  0.00    +0.000 A 
ATOM     20  N   UNL     1      45.007   4.719  10.689  0.00  0.00    +0.000 NA
BRANCH  19  21
ATOM     21  C   UNL     1      45.547   3.162   8.912  0.00  0.00    +0.000 A 
ATOM     22  C   UNL     1      45.910   1.856   8.572  0.00  0.00    +0.000 A 
ATOM     23  C   UNL     1      46.635   1.624   7.406  0.00  0.00    +0.000 A 
ATOM     24  C   UNL     1      46.979   2.697   6.595  0.00  0.00    +0.000 A 
ATOM     25  C   UNL     1      46.573   3.961   6.983  0.00  0.00    +0.000 A 
ATOM     26  N   UNL     1      45.873   4.215   8.110  0.00  0.00    +0.000 NA
ENDBRANCH  19  21
ENDBRANCH  14  15
ENDBRANCH   5  14
TORSDOF 4
ENDMDL
MODEL 6
REMARK VINA RESULT:    -7.429      3.719      8.401
REMARK INTER + INTRA:          -9.530
REMARK INTER:                  -9.118
REMARK INTRA:                  -0.412
REMARK UNBOUND:                -0.364
REMARK  Name = 
REMARK  4 active torsions:
REMARK  status: ('A' for Active; 'I' for Inactive)
REMARK    1  A    between atoms: C_2  and  C_4
REMARK    2  A    between atoms: N_8  and  C_9
REMARK    3  A    between atoms: C_9  and  C_10
REMARK    4  A    between atoms: C_14  and  C_15
REMARK                            x       y       z     vdW  Elec       q    Type
REMARK                         _______ _______ _______ _____ _____    ______ ____
ROOT
ATOM      1  C   UNL     1      48.679   4.402  18.124  0.00  0.00    +0.000 A 
ATOM      2  C   UNL     1      48.682   5.542  17.329  0.00  0.00    +0.000 A 
ATOM      3  C   UNL     1      47.910   5.561  16.169  0.00  0.00    +0.000 A 
ATOM      4  C   UNL     1      47.150   4.449  15.821  0.00  0.00    +0.000 A 
ATOM      5  N   UNL     1      46.394   4.380  14.684  0.00  0.00    +0.000 N 
ATOM      6  N   UNL     1      47.143   3.339  16.583  0.00  0.00    +0.000 NA
ATOM      7  C   UNL     1      47.912   3.327  17.705  0.00  0.00    +0.000 A 
ATOM      8  H   UNL     1      45.839   3.537  14.611  0.00  0.00    +0.000 HD
ENDROOT
BRANCH   1  10
ATOM      9  N   UNL     1      50.804   4.030  19.228  0.00  0.00    +0.000 N 
ATOM     10  C   UNL     1      49.471   4.301  19.365  0.00  0.00    +0.000 C 
ATOM     11  O   UNL     1      48.966   4.482  20.464  0.00  0.00    +0.000 OA
ATOM     12  H   UNL     1      51.363   4.056  20.071  0.00  0.00    +0.000 HD
ATOM     13  H   UNL     1      51.288   4.117  18.344  0.00  0.00    +0.000 HD
ENDBRANCH   1  10
BRANCH   5  14
ATOM     14  C   UNL     1      46.287   5.409  13.674  0.00  0.00    +0.000 C 
BRANCH  14  15
ATOM     15  C   UNL     1      45.270   5.070  12.603  0.00  0.00    +0.000 A 
ATOM     16  C   UNL     1      43.917   5.317  12.818  0.00  0.00    +0.000 A 
ATOM     17  C   UNL     1      43.006   4.945  11.841  0.00  0.00    +0.000 A 
ATOM     18  C   UNL     1      43.466   4.346  10.672  0.00  0.00    +0.000 A 
ATOM     19  C   UNL     1      44.835   4.136  10.499  0.00  0.00    +0.000 A 
ATOM     20  N   UNL     1      45.733   4.492  11.462  0.00  0.00    +0.000 NA
BRANCH  19  21
ATOM     21  C   UNL     1      45.388   3.538   9.260  0.00  0.00    +0.000 A 
ATOM     22  C   UNL     1      45.511   2.156   9.096  0.00  0.00    +0.000 A 
ATOM     23  C   UNL     1      46.080   1.649   7.931  0.00  0.00    +0.000 A 
ATOM     24  C   UNL     1      46.509   2.528   6.946  0.00  0.00    +0.000 A 
ATOM     25  C   UNL     1      46.341   3.883   7.167  0.00  0.00    +0.000 A 
ATOM     26  N   UNL     1      45.797   4.402   8.289  0.00  0.00    +0.000 NA
ENDBRANCH  19  21
ENDBRANCH  14  15
ENDBRANCH   5  14
TORSDOF 4
ENDMDL
MODEL 7
REMARK VINA RESULT:    -6.924      3.161      4.705
REMARK INTER + INTRA:          -8.907
REMARK INTER:                  -8.287
REMARK INTRA:                  -0.620
REMARK UNBOUND:                -0.364
REMARK  Name = 
REMARK  4 active torsions:
REMARK  status: ('A' for Active; 'I' for Inactive)
REMARK    1  A    between atoms: C_2  and  C_4
REMARK    2  A    between atoms: N_8  and  C_9
REMARK    3  A    between atoms: C_9  and  C_10
REMARK    4  A    between atoms: C_14  and  C_15
REMARK                            x       y       z     vdW  Elec       q    Type
REMARK                         _______ _______ _______ _____ _____    ______ ____
ROOT
ATOM      1  C   UNL     1      44.232   4.103  11.482  0.00  0.00    +0.000 A 
ATOM      2  C   UNL     1      45.118   4.896  10.764  0.00  0.00    +0.000 A 
ATOM      3  C   UNL     1      45.470   6.147  11.270  0.00  0.00    +0.000 A 
ATOM      4  C   UNL     1      44.935   6.583  12.478  0.00  0.00    +0.000 A 
ATOM      5  N   UNL     1      45.207   7.808  13.023  0.00  0.00    +0.000 N 
ATOM      6  N   UNL     1      44.074   5.823  13.179  0.00  0.00    +0.000 NA
ATOM      7  C   UNL     1      43.727   4.611  12.667  0.00  0.00    +0.000 A 
ATOM      8  H   UNL     1      44.805   7.947  13.940  0.00  0.00    +0.000 HD
ENDROOT
BRANCH   1  10
ATOM      9  N   UNL     1      44.474   2.250   9.938  0.00  0.00    +0.000 N 
ATOM     10  C   UNL     1      43.808   2.769  11.013  0.00  0.00    +0.000 C 
ATOM     11  O   UNL     1      42.922   2.143  11.578  0.00  0.00    +0.000 OA
ATOM     12  H   UNL     1      44.248   1.299   9.679  0.00  0.00    +0.000 HD
ATOM     13  H   UNL     1      45.354   2.627   9.611  0.00  0.00    +0.000 HD
ENDBRANCH   1  10
BRANCH   5  14
ATOM     14  C   UNL     1      46.045   8.830  12.435  0.00  0.00    +0.000 C 
BRANCH  14  15
ATOM     15  C   UNL     1      47.520   8.580  12.672  0.00  0.00    +0.000 A 
ATOM     16  C   UNL     1      48.465   9.052  11.766  0.00  0.00    +0.000 A 
ATOM     17  C   UNL     1      49.804   8.760  11.982  0.00  0.00    +0.000 A 
ATOM     18  C   UNL     1      50.166   8.014  13.100  0.00  0.00    +0.000 A 
ATOM     19  C   UNL     1      49.181   7.579  13.987  0.00  0.00    +0.000 A 
ATOM     20  N   UNL     1      47.862   7.856  13.771  0.00  0.00    +0.000 NA
BRANCH  19  21
ATOM     21  C   UNL     1      49.509   6.814  15.213  0.00  0.00    +0.000 A 
ATOM     22  C   UNL     1      50.745   6.936  15.854  0.00  0.00    +0.000 A 
ATOM     23  C   UNL     1      51.017   6.159  16.977  0.00  0.00    +0.000 A 
ATOM     24  C   UNL     1      50.051   5.281  17.446  0.00  0.00    +0.000 A 
ATOM     25  C   UNL     1      48.844   5.223  16.774  0.00  0.00    +0.000 A 
ATOM     26  N   UNL     1      48.554   5.961  15.680  0.00  0.00    +0.000 NA
ENDBRANCH  19  21
ENDBRANCH  14  15
ENDBRANCH   5  14
TORSDOF 4
ENDMDL
MODEL 8
REMARK VINA RESULT:    -6.872      4.458      8.468
REMARK INTER + INTRA:          -8.843
REMARK INTER:                  -8.245
REMARK INTRA:                  -0.598
REMARK UNBOUND:                -0.364
REMARK  Name = 
REMARK  4 active torsions:
REMARK  status: ('A' for Active; 'I' for Inactive)
REMARK    1  A    between atoms: C_2  and  C_4
REMARK    2  A    between atoms: N_8  and  C_9
REMARK    3  A    between atoms: C_9  and  C_10
REMARK    4  A    between atoms: C_14  and  C_15
REMARK                            x       y       z     vdW  Elec       q    Type
REMARK                         _______ _______ _______ _____ _____    ______ ____
ROOT
ATOM      1  C   UNL     1      52.126   1.818  17.785  0.00  0.00    +0.000 A 
ATOM      2  C   UNL     1      50.984   1.406  17.108  0.00  0.00    +0.000 A 
ATOM      3  C   UNL     1      49.916   2.293  16.978  0.00  0.00    +0.000 A 
ATOM      4  C   UNL     1      50.005   3.571  17.521  0.00  0.00    +0.000 A 
ATOM      5  N   UNL     1      48.990   4.486  17.462  0.00  0.00    +0.000 N 
ATOM      6  N   UNL     1      51.106   3.978  18.180  0.00  0.00    +0.000 NA
ATOM      7  C   UNL     1      52.135   3.097  18.314  0.00  0.00    +0.000 A 
ATOM      8  H   UNL     1      49.235   5.394  17.834  0.00  0.00    +0.000 HD
ENDROOT
BRANCH   1  10
ATOM      9  N   UNL     1      53.529   0.006  16.994  0.00  0.00    +0.000 N 
ATOM     10  C   UNL     1      53.296   0.937  17.968  0.00  0.00    +0.000 C 
ATOM     11  O   UNL     1      54.042   1.054  18.930  0.00  0.00    +0.000 OA
ATOM     12  H   UNL     1      54.383  -0.530  17.072  0.00  0.00    +0.000 HD
ATOM     13  H   UNL     1      53.084   0.047  16.086  0.00  0.00    +0.000 HD
ENDBRANCH   1  10
BRANCH   5  14
ATOM     14  C   UNL     1      47.689   4.270  16.870  0.00  0.00    +0.000 C 
BRANCH  14  15
ATOM     15  C   UNL     1      47.537   4.960  15.530  0.00  0.00    +0.000 A 
ATOM     16  C   UNL     1      48.342   6.049  15.207  0.00  0.00    +0.000 A 
ATOM     17  C   UNL     1      48.142   6.692  13.995  0.00  0.00    +0.000 A 
ATOM     18  C   UNL     1      47.152   6.230  13.133  0.00  0.00    +0.000 A 
ATOM     19  C   UNL     1      46.383   5.123  13.497  0.00  0.00    +0.000 A 
ATOM     20  N   UNL     1      46.571   4.494  14.694  0.00  0.00    +0.000 NA
BRANCH  19  21
ATOM     21  C   UNL     1      45.341   4.562  12.606  0.00  0.00    +0.000 A 
ATOM     22  C   UNL     1      45.027   5.144  11.375  0.00  0.00    +0.000 A 
ATOM     23  C   UNL     1      44.007   4.601  10.597  0.00  0.00    +0.000 A 
ATOM     24  C   UNL     1      43.323   3.485  11.056  0.00  0.00    +0.000 A 
ATOM     25  C   UNL     1      43.697   2.949  12.275  0.00  0.00    +0.000 A 
ATOM     26  N   UNL     1      44.679   3.457  13.052  0.00  0.00    +0.000 NA
ENDBRANCH  19  21
ENDBRANCH  14  15
ENDBRANCH   5  14
TORSDOF 4
ENDMDL
MODEL 9
REMARK VINA RESULT:    -6.853      3.056      5.546
REMARK INTER + INTRA:          -8.820
REMARK INTER:                  -8.355
REMARK INTRA:                  -0.465
REMARK UNBOUND:                -0.364
REMARK  Name = 
REMARK  4 active torsions:
REMARK  status: ('A' for Active; 'I' for Inactive)
REMARK    1  A    between atoms: C_2  and  C_4
REMARK    2  A    between atoms: N_8  and  C_9
REMARK    3  A    between atoms: C_9  and  C_10
REMARK    4  A    between atoms: C_14  and  C_15
REMARK                            x       y       z     vdW  Elec       q    Type
REMARK                         _______ _______ _______ _____ _____    ______ ____
ROOT
ATOM      1  C   UNL     1      45.097   4.309  11.483  0.00  0.00    +0.000 A 
ATOM      2  C   UNL     1      45.708   5.550  11.618  0.00  0.00    +0.000 A 
ATOM      3  C   UNL     1      46.479   5.805  12.750  0.00  0.00    +0.000 A 
ATOM      4  C   UNL     1      46.629   4.823  13.725  0.00  0.00    +0.000 A 
ATOM      5  N   UNL     1      47.343   5.009  14.877  0.00  0.00    +0.000 N 
ATOM      6  N   UNL     1      46.040   3.620  13.604  0.00  0.00    +0.000 NA
ATOM      7  C   UNL     1      45.276   3.388  12.501  0.00  0.00    +0.000 A 
ATOM      8  H   UNL     1      47.423   4.178  15.447  0.00  0.00    +0.000 HD
ENDROOT
BRANCH   1  10
ATOM      9  N   UNL     1      44.361   4.775   9.221  0.00  0.00    +0.000 N 
ATOM     10  C   UNL     1      44.262   3.962  10.316  0.00  0.00    +0.000 C 
ATOM     11  O   UNL     1      43.538   2.977  10.316  0.00  0.00    +0.000 OA
ATOM     12  H   UNL     1      43.863   4.482   8.390  0.00  0.00    +0.000 HD
ATOM     13  H   UNL     1      45.116   5.438   9.103  0.00  0.00    +0.000 HD
ENDBRANCH   1  10
BRANCH   5  14
ATOM     14  C   UNL     1      48.013   6.229  15.271  0.00  0.00    +0.000 C 
BRANCH  14  15
ATOM     15  C   UNL     1      48.841   6.058  16.528  0.00  0.00    +0.000 A 
ATOM     16  C   UNL     1      48.785   7.013  17.539  0.00  0.00    +0.000 A 
ATOM     17  C   UNL     1      49.596   6.855  18.654  0.00  0.00    +0.000 A 
ATOM     18  C   UNL     1      50.434   5.747  18.735  0.00  0.00    +0.000 A 
ATOM     19  C   UNL     1      50.439   4.810  17.701  0.00  0.00    +0.000 A 
ATOM     20  N   UNL     1      49.650   4.967  16.600  0.00  0.00    +0.000 NA
BRANCH  19  21
ATOM     21  C   UNL     1      51.281   3.591  17.750  0.00  0.00    +0.000 A 
ATOM     22  C   UNL     1      50.803   2.343  17.341  0.00  0.00    +0.000 A 
ATOM     23  C   UNL     1      51.622   1.223  17.451  0.00  0.00    +0.000 A 
ATOM     24  C   UNL     1      52.905   1.366  17.958  0.00  0.00    +0.000 A 
ATOM     25  C   UNL     1      53.320   2.633  18.328  0.00  0.00    +0.000 A 
ATOM     26  N   UNL     1      52.546   3.736  18.237  0.00  0.00    +0.000 NA
ENDBRANCH  19  21
ENDBRANCH  14  15
ENDBRANCH   5  14
TORSDOF 4
ENDMDL
