MODEL 1
REMARK VINA RESULT:    -8.025      0.000      0.000
REMARK INTER + INTRA:         -15.108
REMARK INTER:                 -13.655
REMARK INTRA:                  -1.453
REMARK UNBOUND:                -1.453
REMARK  Name = 
REMARK  16 active torsions:
REMARK  status: ('A' for Active; 'I' for Inactive)
REMARK    1  A    between atoms: C_1  and  N_2
REMARK    2  A    between atoms: N_2  and  C_3
REMARK    3  A    between atoms: N_2  and  C_4
REMARK    4  A    between atoms: C_4  and  C_5
REMARK    5  A    between atoms: C_5  and  O_6
REMARK    6  A    between atoms: O_6  and  C_7
REMARK    7  A    between atoms: C_7  and  C_9
REMARK    8  A    between atoms: C_9  and  O_10
REMARK    9  A    between atoms: O_10  and  C_11
REMARK   10  A    between atoms: C_14  and  C_15
REMARK   11  A    between atoms: C_15  and  C_16
REMARK   12  A    between atoms: C_15  and  C_17
REMARK   13  A    between atoms: C_15  and  C_18
REMARK   14  A    between atoms: C_18  and  N_19
REMARK   15  A    between atoms: N_19  and  C_20
REMARK   16  A    between atoms: C_23  and  C_24
REMARK                            x       y       z     vdW  Elec       q    Type
REMARK                         _______ _______ _______ _____ _____    ______ ____
ROOT
ATOM      1  C   UNL     1      43.819   4.594  12.168  0.00  0.00    +0.000 C 
ATOM      2  C   UNL     1      43.572   3.133  12.612  0.00  0.00    +0.000 C 
ATOM      3  C   UNL     1      42.810   5.508  12.911  0.00  0.00    +0.000 C 
ENDROOT
BRANCH   1   7
ATOM      4  C   UNL     1      47.792   5.886  13.437  0.00  0.00    +0.000 A 
ATOM      5  C   UNL     1      47.166   6.538  12.382  0.00  0.00    +0.000 A 
ATOM      6  C   UNL     1      45.896   6.134  11.962  0.00  0.00    +0.000 A 
ATOM      7  C   UNL     1      45.242   5.039  12.554  0.00  0.00    +0.000 A 
ATOM      8  C   UNL     1      45.928   4.357  13.575  0.00  0.00    +0.000 A 
ATOM      9  C   UNL     1      47.187   4.773  14.012  0.00  0.00    +0.000 A 
BRANCH   4  10
ATOM     10  O   UNL     1      48.984   6.420  13.835  0.00  0.00    +0.000 OA
BRANCH  10  11
ATOM     11  C   UNL     1      48.859   7.477  14.776  0.00  0.00    +0.000 C 
BRANCH  11  12
ATOM     12  C   UNL     1      49.056   6.978  16.195  0.00  0.00    +0.000 C 
ATOM     13  O   UNL     1      48.715   7.550  17.224  0.00  0.00    +0.000 OA
BRANCH  12  14
ATOM     14  O   UNL     1      49.811   5.844  16.156  0.00  0.00    +0.000 OA
BRANCH  14  15
ATOM     15  C   UNL     1      50.479   5.602  17.398  0.00  0.00    +0.000 C 
BRANCH  15  16
ATOM     16  C   UNL     1      50.119   4.249  18.023  0.00  0.00    +0.000 C 
BRANCH  16  18
ATOM     17  C   UNL     1      50.436   2.032  17.048  0.00  0.00    +0.000 C 
ATOM     18  N   UNL     1      49.663   3.282  17.001  0.00  0.00    +0.000 NA
ATOM     19  C   UNL     1      48.244   2.979  17.177  0.00  0.00    +0.000 C 
ENDBRANCH  16  18
ENDBRANCH  15  16
ENDBRANCH  14  15
ENDBRANCH  12  14
ENDBRANCH  11  12
ENDBRANCH  10  11
ENDBRANCH   4  10
ENDBRANCH   1   7
BRANCH   1  20
ATOM     20  C   UNL     1      43.489   4.721  10.649  0.00  0.00    +0.000 C 
BRANCH  20  21
ATOM     21  N   UNL     1      43.646   3.458   9.927  0.00  0.00    +0.000 N 
ATOM     22  H   UNL     1      43.270   2.636  10.396  0.00  0.00    +0.000 HD
BRANCH  21  23
ATOM     23  C   UNL     1      44.762   3.216   9.135  0.00  0.00    +0.000 A 
ATOM     24  C   UNL     1      45.398   4.209   8.382  0.00  0.00    +0.000 A 
ATOM     25  C   UNL     1      46.416   3.897   7.476  0.00  0.00    +0.000 A 
ATOM     26  C   UNL     1      46.811   2.569   7.286  0.00  0.00    +0.000 A 
ATOM     27  C   UNL     1      46.194   1.577   8.045  0.00  0.00    +0.000 A 
ATOM     28  F   UNL     1      46.533   0.285   7.907  0.00  0.00    +0.000 F 
ATOM     29  C   UNL     1      45.182   1.892   8.953  0.00  0.00    +0.000 A 
BRANCH  26  30
ATOM     30  C   UNL     1      47.842   2.286   6.257  0.00  0.00    +0.000 C 
ATOM     31  N   UNL     1      47.806   2.997   5.093  0.00  0.00    +0.000 N 
ATOM     32  O   UNL     1      48.714   1.444   6.445  0.00  0.00    +0.000 OA
ATOM     33  H   UNL     1      47.123   3.723   4.911  0.00  0.00    +0.000 HD
ATOM     34  H   UNL     1      48.531   2.830   4.411  0.00  0.00    +0.000 HD
ENDBRANCH  26  30
ENDBRANCH  21  23
ENDBRANCH  20  21
ENDBRANCH   1  20
TORSDOF 12
ENDMDL
MODEL 2
REMARK VINA RESULT:    -7.038      2.608      3.756
REMARK INTER + INTRA:         -13.428
REMARK INTER:                 -11.878
REMARK INTRA:                  -1.550
REMARK UNBOUND:                -1.453
REMARK  Name = 
REMARK  16 active torsions:
REMARK  status: ('A' for Active; 'I' for Inactive)
REMARK    1  A    between atoms: C_1  and  N_2
REMARK    2  A    between atoms: N_2  and  C_3
REMARK    3  A    between atoms: N_2  and  C_4
REMARK    4  A    between atoms: C_4  and  C_5
REMARK    5  A    between atoms: C_5  and  O_6
REMARK    6  A    between atoms: O_6  and  C_7
REMARK    7  A    between atoms: C_7  and  C_9
REMARK    8  A    between atoms: C_9  and  O_10
REMARK    9  A    between atoms: O_10  and  C_11
REMARK   10  A    between atoms: C_14  and  C_15
REMARK   11  A    between atoms: C_15  and  C_16
REMARK   12  A    between atoms: C_15  and  C_17
REMARK   13  A    between atoms: C_15  and  C_18
REMARK   14  A    between atoms: C_18  and  N_19
REMARK   15  A    between atoms: N_19  and  C_20
REMARK   16  A    between atoms: C_23  and  C_24
REMARK                            x       y       z     vdW  Elec       q    Type
REMARK                         _______ _______ _______ _____ _____    ______ ____
ROOT
ATOM      1  C   UNL     1      43.511   5.780  11.700  0.00  0.00    +0.000 C 
ATOM      2  C   UNL     1      42.674   5.116  12.819  0.00  0.00    +0.000 C 
ATOM      3  C   UNL     1      42.903   7.175  11.398  0.00  0.00    +0.000 C 
ENDROOT
BRANCH   1   7
ATOM      4  C   UNL     1      47.692   6.283  12.853  0.00  0.00    +0.000 A 
ATOM      5  C   UNL     1      46.852   5.513  13.647  0.00  0.00    +0.000 A 
ATOM      6  C   UNL     1      45.511   5.345  13.294  0.00  0.00    +0.000 A 
ATOM      7  C   UNL     1      44.965   5.982  12.165  0.00  0.00    +0.000 A 
ATOM      8  C   UNL     1      45.823   6.809  11.417  0.00  0.00    +0.000 A 
ATOM      9  C   UNL     1      47.169   6.960  11.756  0.00  0.00    +0.000 A 
BRANCH   4  10
ATOM     10  O   UNL     1      49.004   6.302  13.229  0.00  0.00    +0.000 OA
BRANCH  10  11
ATOM     11  C   UNL     1      49.257   7.051  14.410  0.00  0.00    +0.000 C 
BRANCH  11  12
ATOM     12  C   UNL     1      50.441   7.982  14.228  0.00  0.00    +0.000 C 
ATOM     13  O   UNL     1      51.510   7.929  14.826  0.00  0.00    +0.000 OA
BRANCH  12  14
ATOM     14  O   UNL     1      50.075   8.991  13.388  0.00  0.00    +0.000 OA
BRANCH  14  15
ATOM     15  C   UNL     1      51.058   9.229  12.376  0.00  0.00    +0.000 C 
BRANCH  15  16
ATOM     16  C   UNL     1      50.966   8.247  11.202  0.00  0.00    +0.000 C 
BRANCH  16  18
ATOM     17  C   UNL     1      53.347   8.775  11.070  0.00  0.00    +0.000 C 
ATOM     18  N   UNL     1      52.158   8.329  10.330  0.00  0.00    +0.000 NA
ATOM     19  C   UNL     1      52.432   7.034   9.711  0.00  0.00    +0.000 C 
ENDBRANCH  16  18
ENDBRANCH  15  16
ENDBRANCH  14  15
ENDBRANCH  12  14
ENDBRANCH  11  12
ENDBRANCH  10  11
ENDBRANCH   4  10
ENDBRANCH   1   7
BRANCH   1  20
ATOM     20  C   UNL     1      43.357   4.944  10.392  0.00  0.00    +0.000 C 
BRANCH  20  21
ATOM     21  N   UNL     1      44.105   3.686  10.433  0.00  0.00    +0.000 N 
ATOM     22  H   UNL     1      44.315   3.331  11.364  0.00  0.00    +0.000 HD
BRANCH  21  23
ATOM     23  C   UNL     1      45.058   3.385   9.467  0.00  0.00    +0.000 A 
ATOM     24  C   UNL     1      45.626   4.347   8.624  0.00  0.00    +0.000 A 
ATOM     25  C   UNL     1      46.459   3.983   7.562  0.00  0.00    +0.000 A 
ATOM     26  C   UNL     1      46.730   2.635   7.305  0.00  0.00    +0.000 A 
ATOM     27  C   UNL     1      46.182   1.673   8.151  0.00  0.00    +0.000 A 
ATOM     28  F   UNL     1      46.408   0.365   7.954  0.00  0.00    +0.000 F 
ATOM     29  C   UNL     1      45.355   2.040   9.214  0.00  0.00    +0.000 A 
BRANCH  26  30
ATOM     30  C   UNL     1      47.557   2.301   6.119  0.00  0.00    +0.000 C 
ATOM     31  N   UNL     1      47.403   3.053   4.991  0.00  0.00    +0.000 N 
ATOM     32  O   UNL     1      48.369   1.383   6.148  0.00  0.00    +0.000 OA
ATOM     33  H   UNL     1      46.769   3.841   4.935  0.00  0.00    +0.000 HD
ATOM     34  H   UNL     1      47.995   2.849   4.198  0.00  0.00    +0.000 HD
ENDBRANCH  26  30
ENDBRANCH  21  23
ENDBRANCH  20  21
ENDBRANCH   1  20
TORSDOF 12
ENDMDL
MODEL 3
REMARK VINA RESULT:    -6.976      2.149      3.178
REMARK INTER + INTRA:         -13.322
REMARK INTER:                 -12.984
REMARK INTRA:                  -0.338
REMARK UNBOUND:                -1.453
REMARK  Name = 
REMARK  16 active torsions:
REMARK  status: ('A' for Active; 'I' for Inactive)
REMARK    1  A    between atoms: C_1  and  N_2
REMARK    2  A    between atoms: N_2  and  C_3
REMARK    3  A    between atoms: N_2  and  C_4
REMARK    4  A    between atoms: C_4  and  C_5
REMARK    5  A    between atoms: C_5  and  O_6
REMARK    6  A    between atoms: O_6  and  C_7
REMARK    7  A    between atoms: C_7  and  C_9
REMARK    8  A    between atoms: C_9  and  O_10
REMARK    9  A    between atoms: O_10  and  C_11
REMARK   10  A    between atoms: C_14  and  C_15
REMARK   11  A    between atoms: C_15  and  C_16
REMARK   12  A    between atoms: C_15  and  C_17
REMARK   13  A    between atoms: C_15  and  C_18
REMARK   14  A    between atoms: C_18  and  N_19
REMARK   15  A    between atoms: N_19  and  C_20
REMARK   16  A    between atoms: C_23  and  C_24
REMARK                            x       y       z     vdW  Elec       q    Type
REMARK                         _______ _______ _______ _____ _____    ______ ____
ROOT
ATOM      1  C   UNL     1      45.304   6.239  11.720  0.00  0.00    +0.000 C 
ATOM      2  C   UNL     1      44.601   7.585  12.014  0.00  0.00    +0.000 C 
ATOM      3  C   UNL     1      46.195   6.417  10.463  0.00  0.00    +0.000 C 
ENDROOT
BRANCH   1   7
ATOM      4  C   UNL     1      47.727   5.102  15.169  0.00  0.00    +0.000 A 
ATOM      5  C   UNL     1      48.034   6.264  14.472  0.00  0.00    +0.000 A 
ATOM      6  C   UNL     1      47.270   6.639  13.364  0.00  0.00    +0.000 A 
ATOM      7  C   UNL     1      46.212   5.839  12.898  0.00  0.00    +0.000 A 
ATOM      8  C   UNL     1      45.968   4.635  13.584  0.00  0.00    +0.000 A 
ATOM      9  C   UNL     1      46.715   4.269  14.705  0.00  0.00    +0.000 A 
BRANCH   4  10
ATOM     10  O   UNL     1      48.469   4.877  16.294  0.00  0.00    +0.000 OA
BRANCH  10  11
ATOM     11  C   UNL     1      48.138   3.676  16.975  0.00  0.00    +0.000 C 
BRANCH  11  12
ATOM     12  C   UNL     1      49.242   2.644  16.840  0.00  0.00    +0.000 C 
ATOM     13  O   UNL     1      49.303   1.744  16.009  0.00  0.00    +0.000 OA
BRANCH  12  14
ATOM     14  O   UNL     1      50.098   2.784  17.891  0.00  0.00    +0.000 OA
BRANCH  14  15
ATOM     15  C   UNL     1      51.363   3.316  17.485  0.00  0.00    +0.000 C 
BRANCH  15  16
ATOM     16  C   UNL     1      52.553   2.644  18.180  0.00  0.00    +0.000 C 
BRANCH  16  18
ATOM     17  C   UNL     1      52.736   4.895  19.110  0.00  0.00    +0.000 C 
ATOM     18  N   UNL     1      53.441   3.638  18.819  0.00  0.00    +0.000 NA
ATOM     19  C   UNL     1      54.004   3.102  20.057  0.00  0.00    +0.000 C 
ENDBRANCH  16  18
ENDBRANCH  15  16
ENDBRANCH  14  15
ENDBRANCH  12  14
ENDBRANCH  11  12
ENDBRANCH  10  11
ENDBRANCH   4  10
ENDBRANCH   1   7
BRANCH   1  20
ATOM     20  C   UNL     1      44.224   5.178  11.344  0.00  0.00    +0.000 C 
BRANCH  20  21
ATOM     21  N   UNL     1      44.045   5.041   9.897  0.00  0.00    +0.000 N 
ATOM     22  H   UNL     1      43.132   5.317   9.541  0.00  0.00    +0.000 HD
BRANCH  21  23
ATOM     23  C   UNL     1      44.659   4.013   9.191  0.00  0.00    +0.000 A 
ATOM     24  C   UNL     1      44.584   2.670   9.573  0.00  0.00    +0.000 A 
ATOM     25  C   UNL     1      45.344   1.687   8.931  0.00  0.00    +0.000 A 
ATOM     26  C   UNL     1      46.219   2.033   7.897  0.00  0.00    +0.000 A 
ATOM     27  C   UNL     1      46.286   3.367   7.500  0.00  0.00    +0.000 A 
ATOM     28  F   UNL     1      47.106   3.758   6.512  0.00  0.00    +0.000 F 
ATOM     29  C   UNL     1      45.521   4.345   8.138  0.00  0.00    +0.000 A 
BRANCH  26  30
ATOM     30  C   UNL     1      47.059   0.963   7.303  0.00  0.00    +0.000 C 
ATOM     31  N   UNL     1      46.804  -0.330   7.657  0.00  0.00    +0.000 N 
ATOM     32  O   UNL     1      47.952   1.225   6.504  0.00  0.00    +0.000 OA
ATOM     33  H   UNL     1      46.056  -0.593   8.287  0.00  0.00    +0.000 HD
ATOM     34  H   UNL     1      47.351  -1.059   7.222  0.00  0.00    +0.000 HD
ENDBRANCH  26  30
ENDBRANCH  21  23
ENDBRANCH  20  21
ENDBRANCH   1  20
TORSDOF 12
ENDMDL
MODEL 4
REMARK VINA RESULT:    -6.647      3.551      9.167
REMARK INTER + INTRA:         -12.762
REMARK INTER:                 -11.049
REMARK INTRA:                  -1.714
REMARK UNBOUND:                -1.453
REMARK  Name = 
REMARK  16 active torsions:
REMARK  status: ('A' for Active; 'I' for Inactive)
REMARK    1  A    between atoms: C_1  and  N_2
REMARK    2  A    between atoms: N_2  and  C_3
REMARK    3  A    between atoms: N_2  and  C_4
REMARK    4  A    between atoms: C_4  and  C_5
REMARK    5  A    between atoms: C_5  and  O_6
REMARK    6  A    between atoms: O_6  and  C_7
REMARK    7  A    between atoms: C_7  and  C_9
REMARK    8  A    between atoms: C_9  and  O_10
REMARK    9  A    between atoms: O_10  and  C_11
REMARK   10  A    between atoms: C_14  and  C_15
REMARK   11  A    between atoms: C_15  and  C_16
REMARK   12  A    between atoms: C_15  and  C_17
REMARK   13  A    between atoms: C_15  and  C_18
REMARK   14  A    between atoms: C_18  and  N_19
REMARK   15  A    between atoms: N_19  and  C_20
REMARK   16  A    between atoms: C_23  and  C_24
REMARK                            x       y       z     vdW  Elec       q    Type
REMARK                         _______ _______ _______ _____ _____    ______ ____
ROOT
ATOM      1  C   UNL     1      48.575   7.902  13.132  0.00  0.00    +0.000 C 
ATOM      2  C   UNL     1      48.936   8.290  11.679  0.00  0.00    +0.000 C 
ATOM      3  C   UNL     1      48.095   9.177  13.874  0.00  0.00    +0.000 C 
ENDROOT
BRANCH   1   7
ATOM      4  C   UNL     1      45.209   5.125  13.265  0.00  0.00    +0.000 A 
ATOM      5  C   UNL     1      46.442   4.728  13.766  0.00  0.00    +0.000 A 
ATOM      6  C   UNL     1      47.529   5.603  13.728  0.00  0.00    +0.000 A 
ATOM      7  C   UNL     1      47.424   6.879  13.144  0.00  0.00    +0.000 A 
ATOM      8  C   UNL     1      46.181   7.227  12.585  0.00  0.00    +0.000 A 
ATOM      9  C   UNL     1      45.086   6.363  12.643  0.00  0.00    +0.000 A 
BRANCH   4  10
ATOM     10  O   UNL     1      44.188   4.235  13.440  0.00  0.00    +0.000 OA
BRANCH  10  11
ATOM     11  C   UNL     1      43.164   4.328  12.460  0.00  0.00    +0.000 C 
BRANCH  11  12
ATOM     12  C   UNL     1      43.205   3.147  11.507  0.00  0.00    +0.000 C 
ATOM     13  O   UNL     1      42.980   1.975  11.788  0.00  0.00    +0.000 OA
BRANCH  12  14
ATOM     14  O   UNL     1      43.679   3.576  10.304  0.00  0.00    +0.000 OA
BRANCH  14  15
ATOM     15  C   UNL     1      44.906   2.931   9.950  0.00  0.00    +0.000 C 
BRANCH  15  16
ATOM     16  C   UNL     1      44.987   2.560   8.465  0.00  0.00    +0.000 C 
BRANCH  16  18
ATOM     17  C   UNL     1      46.790   1.119   7.666  0.00  0.00    +0.000 C 
ATOM     18  N   UNL     1      46.389   2.494   7.997  0.00  0.00    +0.000 NA
ATOM     19  C   UNL     1      46.580   3.349   6.827  0.00  0.00    +0.000 C 
ENDBRANCH  16  18
ENDBRANCH  15  16
ENDBRANCH  14  15
ENDBRANCH  12  14
ENDBRANCH  11  12
ENDBRANCH  10  11
ENDBRANCH   4  10
ENDBRANCH   1   7
BRANCH   1  20
ATOM     20  C   UNL     1      49.869   7.431  13.864  0.00  0.00    +0.000 C 
BRANCH  20  21
ATOM     21  N   UNL     1      49.997   7.995  15.209  0.00  0.00    +0.000 N 
ATOM     22  H   UNL     1      50.674   8.750  15.304  0.00  0.00    +0.000 HD
BRANCH  21  23
ATOM     23  C   UNL     1      49.847   7.200  16.339  0.00  0.00    +0.000 A 
ATOM     24  C   UNL     1      50.771   6.220  16.716  0.00  0.00    +0.000 A 
ATOM     25  C   UNL     1      50.507   5.335  17.766  0.00  0.00    +0.000 A 
ATOM     26  C   UNL     1      49.293   5.399  18.456  0.00  0.00    +0.000 A 
ATOM     27  C   UNL     1      48.375   6.384  18.097  0.00  0.00    +0.000 A 
ATOM     28  F   UNL     1      47.193   6.494  18.725  0.00  0.00    +0.000 F 
ATOM     29  C   UNL     1      48.643   7.270  17.053  0.00  0.00    +0.000 A 
BRANCH  26  30
ATOM     30  C   UNL     1      49.033   4.387  19.509  0.00  0.00    +0.000 C 
ATOM     31  N   UNL     1      48.331   3.267  19.171  0.00  0.00    +0.000 N 
ATOM     32  O   UNL     1      49.445   4.540  20.654  0.00  0.00    +0.000 OA
ATOM     33  H   UNL     1      48.001   3.086  18.230  0.00  0.00    +0.000 HD
ATOM     34  H   UNL     1      48.188   2.562  19.880  0.00  0.00    +0.000 HD
ENDBRANCH  26  30
ENDBRANCH  21  23
ENDBRANCH  20  21
ENDBRANCH   1  20
TORSDOF 12
ENDMDL
MODEL 5
REMARK VINA RESULT:    -6.469      3.581      8.477
REMARK INTER + INTRA:         -12.460
REMARK INTER:                 -11.151
REMARK INTRA:                  -1.309
REMARK UNBOUND:                -1.453
REMARK  Name = 
REMARK  16 active torsions:
REMARK  status: ('A' for Active; 'I' for Inactive)
REMARK    1  A    between atoms: C_1  and  N_2
REMARK    2  A    between atoms: N_2  and  C_3
REMARK    3  A    between atoms: N_2  and  C_4
REMARK    4  A    between atoms: C_4  and  C_5
REMARK    5  A    between atoms: C_5  and  O_6
REMARK    6  A    between atoms: O_6  and  C_7
REMARK    7  A    between atoms: C_7  and  C_9
REMARK    8  A    between atoms: C_9  and  O_10
REMARK    9  A    between atoms: O_10  and  C_11
REMARK   10  A    between atoms: C_14  and  C_15
REMARK   11  A    between atoms: C_15  and  C_16
REMARK   12  A    between atoms: C_15  and  C_17
REMARK   13  A    between atoms: C_15  and  C_18
REMARK   14  A    between atoms: C_18  and  N_19
REMARK   15  A    between atoms: N_19  and  C_20
REMARK   16  A    between atoms: C_23  and  C_24
REMARK                            x       y       z     vdW  Elec       q    Type
REMARK                         _______ _______ _______ _____ _____    ______ ____
ROOT
ATOM      1  C   UNL     1      47.963   8.931  12.544  0.00  0.00    +0.000 C 
ATOM      2  C   UNL     1      49.255   8.521  11.799  0.00  0.00    +0.000 C 
ATOM      3  C   UNL     1      47.581  10.369  12.105  0.00  0.00    +0.000 C 
ENDROOT
BRANCH   1   7
ATOM      4  C   UNL     1      44.715   6.296  11.289  0.00  0.00    +0.000 A 
ATOM      5  C   UNL     1      44.435   7.386  12.104  0.00  0.00    +0.000 A 
ATOM      6  C   UNL     1      45.463   8.236  12.517  0.00  0.00    +0.000 A 
ATOM      7  C   UNL     1      46.803   7.991  12.165  0.00  0.00    +0.000 A 
ATOM      8  C   UNL     1      47.064   6.843  11.395  0.00  0.00    +0.000 A 
ATOM      9  C   UNL     1      46.036   6.005  10.962  0.00  0.00    +0.000 A 
BRANCH   4  10
ATOM     10  O   UNL     1      43.630   5.587  10.860  0.00  0.00    +0.000 OA
BRANCH  10  11
ATOM     11  C   UNL     1      43.116   4.677  11.822  0.00  0.00    +0.000 C 
BRANCH  11  12
ATOM     12  C   UNL     1      43.813   3.332  11.734  0.00  0.00    +0.000 C 
ATOM     13  O   UNL     1      44.521   2.819  12.593  0.00  0.00    +0.000 OA
BRANCH  12  14
ATOM     14  O   UNL     1      43.646   2.837  10.475  0.00  0.00    +0.000 OA
BRANCH  14  15
ATOM     15  C   UNL     1      44.854   2.900   9.710  0.00  0.00    +0.000 C 
BRANCH  15  16
ATOM     16  C   UNL     1      45.060   1.679   8.806  0.00  0.00    +0.000 C 
BRANCH  16  18
ATOM     17  C   UNL     1      46.272   3.429   7.609  0.00  0.00    +0.000 C 
ATOM     18  N   UNL     1      45.872   2.014   7.616  0.00  0.00    +0.000 NA
ATOM     19  C   UNL     1      47.066   1.174   7.556  0.00  0.00    +0.000 C 
ENDBRANCH  16  18
ENDBRANCH  15  16
ENDBRANCH  14  15
ENDBRANCH  12  14
ENDBRANCH  11  12
ENDBRANCH  10  11
ENDBRANCH   4  10
ENDBRANCH   1   7
BRANCH   1  20
ATOM     20  C   UNL     1      48.265   9.006  14.072  0.00  0.00    +0.000 C 
BRANCH  20  21
ATOM     21  N   UNL     1      49.278   8.038  14.498  0.00  0.00    +0.000 N 
ATOM     22  H   UNL     1      50.074   7.934  13.871  0.00  0.00    +0.000 HD
BRANCH  21  23
ATOM     23  C   UNL     1      48.926   6.886  15.190  0.00  0.00    +0.000 A 
ATOM     24  C   UNL     1      48.130   5.875  14.641  0.00  0.00    +0.000 A 
ATOM     25  C   UNL     1      47.666   4.810  15.419  0.00  0.00    +0.000 A 
ATOM     26  C   UNL     1      47.975   4.742  16.781  0.00  0.00    +0.000 A 
ATOM     27  C   UNL     1      48.782   5.736  17.330  0.00  0.00    +0.000 A 
ATOM     28  F   UNL     1      49.113   5.723  18.632  0.00  0.00    +0.000 F 
ATOM     29  C   UNL     1      49.248   6.795  16.550  0.00  0.00    +0.000 A 
BRANCH  26  30
ATOM     30  C   UNL     1      47.394   3.632  17.576  0.00  0.00    +0.000 C 
ATOM     31  N   UNL     1      48.088   3.182  18.661  0.00  0.00    +0.000 N 
ATOM     32  O   UNL     1      46.312   3.135  17.280  0.00  0.00    +0.000 OA
ATOM     33  H   UNL     1      48.967   3.585  18.960  0.00  0.00    +0.000 HD
ATOM     34  H   UNL     1      47.672   2.453  19.223  0.00  0.00    +0.000 HD
ENDBRANCH  26  30
ENDBRANCH  21  23
ENDBRANCH  20  21
ENDBRANCH   1  20
TORSDOF 12
ENDMDL
MODEL 6
REMARK VINA RESULT:    -6.393      1.470      2.480
REMARK INTER + INTRA:         -12.330
REMARK INTER:                 -11.216
REMARK INTRA:                  -1.114
REMARK UNBOUND:                -1.453
REMARK  Name = 
REMARK  16 active torsions:
REMARK  status: ('A' for Active; 'I' for Inactive)
REMARK    1  A    between atoms: C_1  and  N_2
REMARK    2  A    between atoms: N_2  and  C_3
REMARK    3  A    between atoms: N_2  and  C_4
REMARK    4  A    between atoms: C_4  and  C_5
REMARK    5  A    between atoms: C_5  and  O_6
REMARK    6  A    between atoms: O_6  and  C_7
REMARK    7  A    between atoms: C_7  and  C_9
REMARK    8  A    between atoms: C_9  and  O_10
REMARK    9  A    between atoms: O_10  and  C_11
REMARK   10  A    between atoms: C_14  and  C_15
REMARK   11  A    between atoms: C_15  and  C_16
REMARK   12  A    between atoms: C_15  and  C_17
REMARK   13  A    between atoms: C_15  and  C_18
REMARK   14  A    between atoms: C_18  and  N_19
REMARK   15  A    between atoms: N_19  and  C_20
REMARK   16  A    between atoms: C_23  and  C_24
REMARK                            x       y       z     vdW  Elec       q    Type
REMARK                         _______ _______ _______ _____ _____    ______ ____
ROOT
ATOM      1  C   UNL     1      43.496   5.924  11.447  0.00  0.00    +0.000 C 
ATOM      2  C   UNL     1      42.129   5.860  12.169  0.00  0.00    +0.000 C 
ATOM      3  C   UNL     1      43.745   7.388  11.000  0.00  0.00    +0.000 C 
ENDROOT
BRANCH   1   7
ATOM      4  C   UNL     1      46.827   4.763  14.020  0.00  0.00    +0.000 A 
ATOM      5  C   UNL     1      45.676   3.986  14.000  0.00  0.00    +0.000 A 
ATOM      6  C   UNL     1      44.601   4.345  13.185  0.00  0.00    +0.000 A 
ATOM      7  C   UNL     1      44.630   5.517  12.407  0.00  0.00    +0.000 A 
ATOM      8  C   UNL     1      45.782   6.319  12.498  0.00  0.00    +0.000 A 
ATOM      9  C   UNL     1      46.867   5.949  13.294  0.00  0.00    +0.000 A 
BRANCH   4  10
ATOM     10  O   UNL     1      47.857   4.272  14.771  0.00  0.00    +0.000 OA
BRANCH  10  11
ATOM     11  C   UNL     1      47.441   3.563  15.930  0.00  0.00    +0.000 C 
BRANCH  11  12
ATOM     12  C   UNL     1      48.381   3.812  17.094  0.00  0.00    +0.000 C 
ATOM     13  O   UNL     1      48.104   3.732  18.286  0.00  0.00    +0.000 OA
BRANCH  12  14
ATOM     14  O   UNL     1      49.562   4.286  16.606  0.00  0.00    +0.000 OA
BRANCH  14  15
ATOM     15  C   UNL     1      50.006   5.448  17.313  0.00  0.00    +0.000 C 
BRANCH  15  16
ATOM     16  C   UNL     1      49.387   6.748  16.789  0.00  0.00    +0.000 C 
BRANCH  16  18
ATOM     17  C   UNL     1      51.717   6.998  16.102  0.00  0.00    +0.000 C 
ATOM     18  N   UNL     1      50.348   7.515  15.967  0.00  0.00    +0.000 NA
ATOM     19  C   UNL     1      49.956   7.486  14.559  0.00  0.00    +0.000 C 
ENDBRANCH  16  18
ENDBRANCH  15  16
ENDBRANCH  14  15
ENDBRANCH  12  14
ENDBRANCH  11  12
ENDBRANCH  10  11
ENDBRANCH   4  10
ENDBRANCH   1   7
BRANCH   1  20
ATOM     20  C   UNL     1      43.416   5.076  10.141  0.00  0.00    +0.000 C 
BRANCH  20  21
ATOM     21  N   UNL     1      44.144   3.810  10.241  0.00  0.00    +0.000 N 
ATOM     22  H   UNL     1      44.314   3.476  11.188  0.00  0.00    +0.000 HD
BRANCH  21  23
ATOM     23  C   UNL     1      45.128   3.471   9.319  0.00  0.00    +0.000 A 
ATOM     24  C   UNL     1      45.778   4.411   8.512  0.00  0.00    +0.000 A 
ATOM     25  C   UNL     1      46.644   4.016   7.488  0.00  0.00    +0.000 A 
ATOM     26  C   UNL     1      46.866   2.659   7.233  0.00  0.00    +0.000 A 
ATOM     27  C   UNL     1      46.235   1.718   8.044  0.00  0.00    +0.000 A 
ATOM     28  F   UNL     1      46.410   0.402   7.847  0.00  0.00    +0.000 F 
ATOM     29  C   UNL     1      45.375   2.115   9.070  0.00  0.00    +0.000 A 
BRANCH  26  30
ATOM     30  C   UNL     1      47.733   2.295   6.086  0.00  0.00    +0.000 C 
ATOM     31  N   UNL     1      47.657   3.052   4.953  0.00  0.00    +0.000 N 
ATOM     32  O   UNL     1      48.509   1.348   6.150  0.00  0.00    +0.000 OA
ATOM     33  H   UNL     1      47.055   3.861   4.869  0.00  0.00    +0.000 HD
ATOM     34  H   UNL     1      48.276   2.826   4.187  0.00  0.00    +0.000 HD
ENDBRANCH  26  30
ENDBRANCH  21  23
ENDBRANCH  20  21
ENDBRANCH   1  20
TORSDOF 12
ENDMDL
MODEL 7
REMARK VINA RESULT:    -6.192      1.818      2.408
REMARK INTER + INTRA:         -11.989
REMARK INTER:                 -10.366
REMARK INTRA:                  -1.623
REMARK UNBOUND:                -1.453
REMARK  Name = 
REMARK  16 active torsions:
REMARK  status: ('A' for Active; 'I' for Inactive)
REMARK    1  A    between atoms: C_1  and  N_2
REMARK    2  A    between atoms: N_2  and  C_3
REMARK    3  A    between atoms: N_2  and  C_4
REMARK    4  A    between atoms: C_4  and  C_5
REMARK    5  A    between atoms: C_5  and  O_6
REMARK    6  A    between atoms: O_6  and  C_7
REMARK    7  A    between atoms: C_7  and  C_9
REMARK    8  A    between atoms: C_9  and  O_10
REMARK    9  A    between atoms: O_10  and  C_11
REMARK   10  A    between atoms: C_14  and  C_15
REMARK   11  A    between atoms: C_15  and  C_16
REMARK   12  A    between atoms: C_15  and  C_17
REMARK   13  A    between atoms: C_15  and  C_18
REMARK   14  A    between atoms: C_18  and  N_19
REMARK   15  A    between atoms: N_19  and  C_20
REMARK   16  A    between atoms: C_23  and  C_24
REMARK                            x       y       z     vdW  Elec       q    Type
REMARK                         _______ _______ _______ _____ _____    ______ ____
ROOT
ATOM      1  C   UNL     1      43.857   4.493  12.293  0.00  0.00    +0.000 C 
ATOM      2  C   UNL     1      44.135   3.261  13.189  0.00  0.00    +0.000 C 
ATOM      3  C   UNL     1      42.660   5.275  12.895  0.00  0.00    +0.000 C 
ENDROOT
BRANCH   1   7
ATOM      4  C   UNL     1      47.317   7.152  12.426  0.00  0.00    +0.000 A 
ATOM      5  C   UNL     1      46.189   7.533  11.710  0.00  0.00    +0.000 A 
ATOM      6  C   UNL     1      45.076   6.692  11.654  0.00  0.00    +0.000 A 
ATOM      7  C   UNL     1      45.080   5.429  12.274  0.00  0.00    +0.000 A 
ATOM      8  C   UNL     1      46.259   5.043  12.937  0.00  0.00    +0.000 A 
ATOM      9  C   UNL     1      47.365   5.892  13.012  0.00  0.00    +0.000 A 
BRANCH   4  10
ATOM     10  O   UNL     1      48.310   8.086  12.501  0.00  0.00    +0.000 OA
BRANCH  10  11
ATOM     11  C   UNL     1      49.621   7.542  12.450  0.00  0.00    +0.000 C 
BRANCH  11  12
ATOM     12  C   UNL     1      50.517   8.165  13.504  0.00  0.00    +0.000 C 
ATOM     13  O   UNL     1      51.724   8.365  13.412  0.00  0.00    +0.000 OA
BRANCH  12  14
ATOM     14  O   UNL     1      49.791   8.339  14.644  0.00  0.00    +0.000 OA
BRANCH  14  15
ATOM     15  C   UNL     1      49.795   7.167  15.466  0.00  0.00    +0.000 C 
BRANCH  15  16
ATOM     16  C   UNL     1      49.603   7.474  16.956  0.00  0.00    +0.000 C 
BRANCH  16  18
ATOM     17  C   UNL     1      48.667   5.219  16.896  0.00  0.00    +0.000 C 
ATOM     18  N   UNL     1      48.677   6.513  17.593  0.00  0.00    +0.000 NA
ATOM     19  C   UNL     1      49.038   6.305  18.994  0.00  0.00    +0.000 C 
ENDBRANCH  16  18
ENDBRANCH  15  16
ENDBRANCH  14  15
ENDBRANCH  12  14
ENDBRANCH  11  12
ENDBRANCH  10  11
ENDBRANCH   4  10
ENDBRANCH   1   7
BRANCH   1  20
ATOM     20  C   UNL     1      43.395   4.000  10.888  0.00  0.00    +0.000 C 
BRANCH  20  21
ATOM     21  N   UNL     1      44.022   2.736  10.496  0.00  0.00    +0.000 N 
ATOM     22  H   UNL     1      44.317   2.137  11.265  0.00  0.00    +0.000 HD
BRANCH  21  23
ATOM     23  C   UNL     1      44.808   2.647   9.354  0.00  0.00    +0.000 A 
ATOM     24  C   UNL     1      45.268   1.433   8.833  0.00  0.00    +0.000 A 
ATOM     25  C   UNL     1      46.186   1.394   7.779  0.00  0.00    +0.000 A 
ATOM     26  C   UNL     1      46.684   2.580   7.230  0.00  0.00    +0.000 A 
ATOM     27  C   UNL     1      46.217   3.793   7.733  0.00  0.00    +0.000 A 
ATOM     28  F   UNL     1      46.657   4.964   7.245  0.00  0.00    +0.000 F 
ATOM     29  C   UNL     1      45.296   3.829   8.781  0.00  0.00    +0.000 A 
BRANCH  26  30
ATOM     30  C   UNL     1      47.713   2.482   6.166  0.00  0.00    +0.000 C 
ATOM     31  N   UNL     1      49.027   2.515   6.533  0.00  0.00    +0.000 N 
ATOM     32  O   UNL     1      47.399   2.362   4.986  0.00  0.00    +0.000 OA
ATOM     33  H   UNL     1      49.330   2.579   7.497  0.00  0.00    +0.000 HD
ATOM     34  H   UNL     1      49.725   2.408   5.811  0.00  0.00    +0.000 HD
ENDBRANCH  26  30
ENDBRANCH  21  23
ENDBRANCH  20  21
ENDBRANCH   1  20
TORSDOF 12
ENDMDL
MODEL 8
REMARK VINA RESULT:    -6.038      3.140      5.011
REMARK INTER + INTRA:         -11.727
REMARK INTER:                  -9.917
REMARK INTRA:                  -1.810
REMARK UNBOUND:                -1.453
REMARK  Name = 
REMARK  16 active torsions:
REMARK  status: ('A' for Active; 'I' for Inactive)
REMARK    1  A    between atoms: C_1  and  N_2
REMARK    2  A    between atoms: N_2  and  C_3
REMARK    3  A    between atoms: N_2  and  C_4
REMARK    4  A    between atoms: C_4  and  C_5
REMARK    5  A    between atoms: C_5  and  O_6
REMARK    6  A    between atoms: O_6  and  C_7
REMARK    7  A    between atoms: C_7  and  C_9
REMARK    8  A    between atoms: C_9  and  O_10
REMARK    9  A    between atoms: O_10  and  C_11
REMARK   10  A    between atoms: C_14  and  C_15
REMARK   11  A    between atoms: C_15  and  C_16
REMARK   12  A    between atoms: C_15  and  C_17
REMARK   13  A    between atoms: C_15  and  C_18
REMARK   14  A    between atoms: C_18  and  N_19
REMARK   15  A    between atoms: N_19  and  C_20
REMARK   16  A    between atoms: C_23  and  C_24
REMARK                            x       y       z     vdW  Elec       q    Type
REMARK                         _______ _______ _______ _____ _____    ______ ____
ROOT
ATOM      1  C   UNL     1      48.305   8.809  12.607  0.00  0.00    +0.000 C 
ATOM      2  C   UNL     1      48.907  10.183  12.229  0.00  0.00    +0.000 C 
ATOM      3  C   UNL     1      48.934   7.730  11.687  0.00  0.00    +0.000 C 
ENDROOT
BRANCH   1   7
ATOM      4  C   UNL     1      49.176   7.650  16.725  0.00  0.00    +0.000 A 
ATOM      5  C   UNL     1      48.597   8.887  16.471  0.00  0.00    +0.000 A 
ATOM      6  C   UNL     1      48.315   9.274  15.159  0.00  0.00    +0.000 A 
ATOM      7  C   UNL     1      48.649   8.455  14.066  0.00  0.00    +0.000 A 
ATOM      8  C   UNL     1      49.294   7.237  14.350  0.00  0.00    +0.000 A 
ATOM      9  C   UNL     1      49.556   6.839  15.661  0.00  0.00    +0.000 A 
BRANCH   4  10
ATOM     10  O   UNL     1      49.318   7.326  18.044  0.00  0.00    +0.000 OA
BRANCH  10  11
ATOM     11  C   UNL     1      48.129   7.473  18.808  0.00  0.00    +0.000 C 
BRANCH  11  12
ATOM     12  C   UNL     1      47.625   6.131  19.306  0.00  0.00    +0.000 C 
ATOM     13  O   UNL     1      47.469   5.799  20.476  0.00  0.00    +0.000 OA
BRANCH  12  14
ATOM     14  O   UNL     1      47.509   5.288  18.242  0.00  0.00    +0.000 OA
BRANCH  14  15
ATOM     15  C   UNL     1      48.081   4.004  18.510  0.00  0.00    +0.000 C 
BRANCH  15  16
ATOM     16  C   UNL     1      49.547   3.894  18.077  0.00  0.00    +0.000 C 
BRANCH  16  18
ATOM     17  C   UNL     1      50.698   1.953  17.141  0.00  0.00    +0.000 C 
ATOM     18  N   UNL     1      49.702   3.008  16.903  0.00  0.00    +0.000 NA
ATOM     19  C   UNL     1      48.422   2.395  16.551  0.00  0.00    +0.000 C 
ENDBRANCH  16  18
ENDBRANCH  15  16
ENDBRANCH  14  15
ENDBRANCH  12  14
ENDBRANCH  11  12
ENDBRANCH  10  11
ENDBRANCH   4  10
ENDBRANCH   1   7
BRANCH   1  20
ATOM     20  C   UNL     1      46.779   8.822  12.285  0.00  0.00    +0.000 C 
BRANCH  20  21
ATOM     21  N   UNL     1      46.000   7.983  13.197  0.00  0.00    +0.000 N 
ATOM     22  H   UNL     1      46.263   8.042  14.179  0.00  0.00    +0.000 HD
BRANCH  21  23
ATOM     23  C   UNL     1      45.517   6.743  12.797  0.00  0.00    +0.000 A 
ATOM     24  C   UNL     1      46.136   5.534  13.133  0.00  0.00    +0.000 A 
ATOM     25  C   UNL     1      45.713   4.321  12.581  0.00  0.00    +0.000 A 
ATOM     26  C   UNL     1      44.664   4.293  11.657  0.00  0.00    +0.000 A 
ATOM     27  C   UNL     1      44.032   5.490  11.331  0.00  0.00    +0.000 A 
ATOM     28  F   UNL     1      43.018   5.524  10.450  0.00  0.00    +0.000 F 
ATOM     29  C   UNL     1      44.452   6.699  11.888  0.00  0.00    +0.000 A 
BRANCH  26  30
ATOM     30  C   UNL     1      44.307   2.989  11.044  0.00  0.00    +0.000 C 
ATOM     31  N   UNL     1      43.400   2.199  11.688  0.00  0.00    +0.000 N 
ATOM     32  O   UNL     1      44.800   2.630   9.980  0.00  0.00    +0.000 OA
ATOM     33  H   UNL     1      42.945   2.472  12.551  0.00  0.00    +0.000 HD
ATOM     34  H   UNL     1      43.130   1.330  11.250  0.00  0.00    +0.000 HD
ENDBRANCH  26  30
ENDBRANCH  21  23
ENDBRANCH  20  21
ENDBRANCH   1  20
TORSDOF 12
ENDMDL
MODEL 9
REMARK VINA RESULT:    -5.978      3.581      8.884
REMARK INTER + INTRA:         -11.624
REMARK INTER:                 -10.027
REMARK INTRA:                  -1.597
REMARK UNBOUND:                -1.453
REMARK  Name = 
REMARK  16 active torsions:
REMARK  status: ('A' for Active; 'I' for Inactive)
REMARK    1  A    between atoms: C_1  and  N_2
REMARK    2  A    between atoms: N_2  and  C_3
REMARK    3  A    between atoms: N_2  and  C_4
REMARK    4  A    between atoms: C_4  and  C_5
REMARK    5  A    between atoms: C_5  and  O_6
REMARK    6  A    between atoms: O_6  and  C_7
REMARK    7  A    between atoms: C_7  and  C_9
REMARK    8  A    between atoms: C_9  and  O_10
REMARK    9  A    between atoms: O_10  and  C_11
REMARK   10  A    between atoms: C_14  and  C_15
REMARK   11  A    between atoms: C_15  and  C_16
REMARK   12  A    between atoms: C_15  and  C_17
REMARK   13  A    between atoms: C_15  and  C_18
REMARK   14  A    between atoms: C_18  and  N_19
REMARK   15  A    between atoms: N_19  and  C_20
REMARK   16  A    between atoms: C_23  and  C_24
REMARK                            x       y       z     vdW  Elec       q    Type
REMARK                         _______ _______ _______ _____ _____    ______ ____
ROOT
ATOM      1  C   UNL     1      49.639   8.496  12.200  0.00  0.00    +0.000 C 
ATOM      2  C   UNL     1      50.364   7.731  11.067  0.00  0.00    +0.000 C 
ATOM      3  C   UNL     1      49.467   9.974  11.761  0.00  0.00    +0.000 C 
ENDROOT
BRANCH   1   7
ATOM      4  C   UNL     1      45.680   6.725  12.707  0.00  0.00    +0.000 A 
ATOM      5  C   UNL     1      45.825   8.105  12.769  0.00  0.00    +0.000 A 
ATOM      6  C   UNL     1      47.084   8.687  12.612  0.00  0.00    +0.000 A 
ATOM      7  C   UNL     1      48.238   7.901  12.438  0.00  0.00    +0.000 A 
ATOM      8  C   UNL     1      48.070   6.504  12.446  0.00  0.00    +0.000 A 
ATOM      9  C   UNL     1      46.809   5.921  12.579  0.00  0.00    +0.000 A 
BRANCH   4  10
ATOM     10  O   UNL     1      44.397   6.263  12.772  0.00  0.00    +0.000 OA
BRANCH  10  11
ATOM     11  C   UNL     1      43.719   6.260  11.523  0.00  0.00    +0.000 C 
BRANCH  11  12
ATOM     12  C   UNL     1      43.326   4.853  11.114  0.00  0.00    +0.000 C 
ATOM     13  O   UNL     1      42.906   3.968  11.851  0.00  0.00    +0.000 OA
BRANCH  12  14
ATOM     14  O   UNL     1      43.652   4.675   9.803  0.00  0.00    +0.000 OA
BRANCH  14  15
ATOM     15  C   UNL     1      45.023   4.299   9.638  0.00  0.00    +0.000 C 
BRANCH  15  16
ATOM     16  C   UNL     1      45.209   2.805   9.351  0.00  0.00    +0.000 C 
BRANCH  16  18
ATOM     17  C   UNL     1      46.439   3.727   7.453  0.00  0.00    +0.000 C 
ATOM     18  N   UNL     1      45.692   2.572   7.973  0.00  0.00    +0.000 NA
ATOM     19  C   UNL     1      46.542   1.384   7.920  0.00  0.00    +0.000 C 
ENDBRANCH  16  18
ENDBRANCH  15  16
ENDBRANCH  14  15
ENDBRANCH  12  14
ENDBRANCH  11  12
ENDBRANCH  10  11
ENDBRANCH   4  10
ENDBRANCH   1   7
BRANCH   1  20
ATOM     20  C   UNL     1      50.557   8.518  13.461  0.00  0.00    +0.000 C 
BRANCH  20  21
ATOM     21  N   UNL     1      49.801   8.468  14.713  0.00  0.00    +0.000 N 
ATOM     22  H   UNL     1      49.719   9.352  15.212  0.00  0.00    +0.000 HD
BRANCH  21  23
ATOM     23  C   UNL     1      49.832   7.342  15.527  0.00  0.00    +0.000 A 
ATOM     24  C   UNL     1      48.680   6.703  15.998  0.00  0.00    +0.000 A 
ATOM     25  C   UNL     1      48.751   5.674  16.941  0.00  0.00    +0.000 A 
ATOM     26  C   UNL     1      49.987   5.269  17.454  0.00  0.00    +0.000 A 
ATOM     27  C   UNL     1      51.140   5.889  16.977  0.00  0.00    +0.000 A 
ATOM     28  F   UNL     1      52.355   5.541  17.432  0.00  0.00    +0.000 F 
ATOM     29  C   UNL     1      51.067   6.912  16.031  0.00  0.00    +0.000 A 
BRANCH  26  30
ATOM     30  C   UNL     1      49.999   4.226  18.509  0.00  0.00    +0.000 C 
ATOM     31  N   UNL     1      50.027   2.917  18.124  0.00  0.00    +0.000 N 
ATOM     32  O   UNL     1      49.996   4.523  19.699  0.00  0.00    +0.000 OA
ATOM     33  H   UNL     1      50.064   2.628  17.153  0.00  0.00    +0.000 HD
ATOM     34  H   UNL     1      50.075   2.210  18.843  0.00  0.00    +0.000 HD
ENDBRANCH  26  30
ENDBRANCH  21  23
ENDBRANCH  20  21
ENDBRANCH   1  20
TORSDOF 12
ENDMDL
