MODEL 1
REMARK VINA RESULT:    -9.283      0.000      0.000
REMARK INTER + INTRA:         -11.974
REMARK INTER:                 -11.453
REMARK INTRA:                  -0.521
REMARK UNBOUND:                -0.521
REMARK  Name = 
REMARK  4 active torsions:
REMARK  status: ('A' for Active; 'I' for Inactive)
REMARK    1  A    between atoms: C_2  and  C_4
REMARK    2  A    between atoms: N_8  and  C_9
REMARK    3  A    between atoms: C_9  and  C_10
REMARK    4  A    between atoms: C_14  and  C_15
REMARK                            x       y       z     vdW  Elec       q    Type
REMARK                         _______ _______ _______ _____ _____    ______ ____
ROOT
ATOM      1  C   UNL     1      45.161   5.008  12.007  0.00  0.00    +0.000 A 
ATOM      2  C   UNL     1      45.779   6.194  11.588  0.00  0.00    +0.000 A 
ATOM      3  C   UNL     1      46.889   6.688  12.262  0.00  0.00    +0.000 A 
ATOM      4  C   UNL     1      47.369   6.019  13.387  0.00  0.00    +0.000 A 
ATOM      5  C   UNL     1      46.745   4.856  13.879  0.00  0.00    +0.000 A 
ATOM      6  C   UNL     1      45.653   4.348  13.148  0.00  0.00    +0.000 A 
ENDROOT
BRANCH   5   7
ATOM      7  C   UNL     1      47.181   4.234  15.150  0.00  0.00    +0.000 A 
ATOM      8  C   UNL     1      46.760   4.720  16.374  0.00  0.00    +0.000 A 
ATOM      9  C   UNL     1      47.211   4.056  17.487  0.00  0.00    +0.000 A 
ATOM     10  N   UNL     1      48.013   2.984  17.427  0.00  0.00    +0.000 NA
ATOM     11  C   UNL     1      48.346   2.561  16.206  0.00  0.00    +0.000 A 
ATOM     12  N   UNL     1      49.170   1.456  16.136  0.00  0.00    +0.000 N 
ATOM     13  N   UNL     1      47.977   3.144  15.060  0.00  0.00    +0.000 NA
ATOM     14  H   UNL     1      49.681   1.372  17.004  0.00  0.00    +0.000 HD
ATOM     15  H   UNL     1      49.706   1.483  15.282  0.00  0.00    +0.000 HD
ENDBRANCH   5   7
BRANCH   1  16
ATOM     16  C   UNL     1      43.915   4.523  11.298  0.00  0.00    +0.000 C 
BRANCH  16  21
ATOM     17  C   UNL     1      46.404   2.287   7.663  0.00  0.00    +0.000 A 
ATOM     18  C   UNL     1      45.692   1.841   8.748  0.00  0.00    +0.000 A 
ATOM     19  N   UNL     1      44.915   2.641   9.506  0.00  0.00    +0.000 NA
ATOM     20  C   UNL     1      44.856   3.941   9.176  0.00  0.00    +0.000 A 
ATOM     21  N   UNL     1      44.023   4.789   9.876  0.00  0.00    +0.000 N 
ATOM     22  N   UNL     1      45.538   4.477   8.154  0.00  0.00    +0.000 NA
ATOM     23  C   UNL     1      46.308   3.637   7.419  0.00  0.00    +0.000 A 
ATOM     24  H   UNL     1      44.266   5.743   9.637  0.00  0.00    +0.000 HD
BRANCH  17  26
ATOM     25  N   UNL     1      48.293   1.991   6.170  0.00  0.00    +0.000 N 
ATOM     26  C   UNL     1      47.242   1.417   6.831  0.00  0.00    +0.000 C 
ATOM     27  O   UNL     1      47.023   0.215   6.755  0.00  0.00    +0.000 OA
ATOM     28  H   UNL     1      48.909   1.359   5.673  0.00  0.00    +0.000 HD
ATOM     29  H   UNL     1      48.663   2.904   6.398  0.00  0.00    +0.000 HD
ENDBRANCH  17  26
ENDBRANCH  16  21
ENDBRANCH   1  16
TORSDOF 4
ENDMDL
MODEL 2
REMARK VINA RESULT:    -9.262      3.016      4.428
REMARK INTER + INTRA:         -11.948
REMARK INTER:                 -11.269
REMARK INTRA:                  -0.680
REMARK UNBOUND:                -0.521
REMARK  Name = 
REMARK  4 active torsions:
REMARK  status: ('A' for Active; 'I' for Inactive)
REMARK    1  A    between atoms: C_2  and  C_4
REMARK    2  A    between atoms: N_8  and  C_9
REMARK    3  A    between atoms: C_9  and  C_10
REMARK    4  A    between atoms: C_14  and  C_15
REMARK                            x       y       z     vdW  Elec       q    Type
REMARK                         _______ _______ _______ _____ _____    ______ ____
ROOT
ATOM      1  C   UNL     1      44.682   4.934  11.980  0.00  0.00    +0.000 A 
ATOM      2  C   UNL     1      45.299   4.011  12.837  0.00  0.00    +0.000 A 
ATOM      3  C   UNL     1      46.415   4.375  13.580  0.00  0.00    +0.000 A 
ATOM      4  C   UNL     1      46.948   5.656  13.445  0.00  0.00    +0.000 A 
ATOM      5  C   UNL     1      46.397   6.597  12.554  0.00  0.00    +0.000 A 
ATOM      6  C   UNL     1      45.236   6.221  11.850  0.00  0.00    +0.000 A 
ENDROOT
BRANCH   5   7
ATOM      7  C   UNL     1      47.053   7.904  12.319  0.00  0.00    +0.000 A 
ATOM      8  C   UNL     1      48.402   7.994  12.034  0.00  0.00    +0.000 A 
ATOM      9  C   UNL     1      48.902   9.254  11.817  0.00  0.00    +0.000 A 
ATOM     10  N   UNL     1      48.147  10.360  11.864  0.00  0.00    +0.000 NA
ATOM     11  C   UNL     1      46.848  10.181  12.114  0.00  0.00    +0.000 A 
ATOM     12  N   UNL     1      46.065  11.317  12.162  0.00  0.00    +0.000 N 
ATOM     13  N   UNL     1      46.265   9.002  12.357  0.00  0.00    +0.000 NA
ATOM     14  H   UNL     1      46.652  12.113  12.367  0.00  0.00    +0.000 HD
ATOM     15  H   UNL     1      45.270  11.158  12.764  0.00  0.00    +0.000 HD
ENDBRANCH   5   7
BRANCH   1  16
ATOM     16  C   UNL     1      43.507   4.497  11.133  0.00  0.00    +0.000 C 
BRANCH  16  21
ATOM     17  C   UNL     1      46.364   2.337   7.730  0.00  0.00    +0.000 A 
ATOM     18  C   UNL     1      45.539   1.869   8.721  0.00  0.00    +0.000 A 
ATOM     19  N   UNL     1      44.688   2.654   9.411  0.00  0.00    +0.000 NA
ATOM     20  C   UNL     1      44.668   3.962   9.109  0.00  0.00    +0.000 A 
ATOM     21  N   UNL     1      43.767   4.797   9.738  0.00  0.00    +0.000 N 
ATOM     22  N   UNL     1      45.457   4.519   8.180  0.00  0.00    +0.000 NA
ATOM     23  C   UNL     1      46.298   3.693   7.511  0.00  0.00    +0.000 A 
ATOM     24  H   UNL     1      44.037   5.755   9.549  0.00  0.00    +0.000 HD
BRANCH  17  26
ATOM     25  N   UNL     1      48.392   2.072   6.425  0.00  0.00    +0.000 N 
ATOM     26  C   UNL     1      47.284   1.483   6.971  0.00  0.00    +0.000 C 
ATOM     27  O   UNL     1      47.079   0.283   6.855  0.00  0.00    +0.000 OA
ATOM     28  H   UNL     1      49.057   1.449   5.981  0.00  0.00    +0.000 HD
ATOM     29  H   UNL     1      48.733   2.982   6.702  0.00  0.00    +0.000 HD
ENDBRANCH  17  26
ENDBRANCH  16  21
ENDBRANCH   1  16
TORSDOF 4
ENDMDL
MODEL 3
REMARK VINA RESULT:    -8.921      1.336      1.559
REMARK INTER + INTRA:         -11.528
REMARK INTER:                 -10.843
REMARK INTRA:                  -0.685
REMARK UNBOUND:                -0.521
REMARK  Name = 
REMARK  4 active torsions:
REMARK  status: ('A' for Active; 'I' for Inactive)
REMARK    1  A    between atoms: C_2  and  C_4
REMARK    2  A    between atoms: N_8  and  C_9
REMARK    3  A    between atoms: C_9  and  C_10
REMARK    4  A    between atoms: C_14  and  C_15
REMARK                            x       y       z     vdW  Elec       q    Type
REMARK                         _______ _______ _______ _____ _____    ______ ____
ROOT
ATOM      1  C   UNL     1      44.647   5.406  11.787  0.00  0.00    +0.000 A 
ATOM      2  C   UNL     1      44.668   6.780  11.509  0.00  0.00    +0.000 A 
ATOM      3  C   UNL     1      45.551   7.622  12.174  0.00  0.00    +0.000 A 
ATOM      4  C   UNL     1      46.397   7.102  13.153  0.00  0.00    +0.000 A 
ATOM      5  C   UNL     1      46.371   5.739  13.507  0.00  0.00    +0.000 A 
ATOM      6  C   UNL     1      45.503   4.898  12.782  0.00  0.00    +0.000 A 
ENDROOT
BRANCH   5   7
ATOM      7  C   UNL     1      47.175   5.227  14.639  0.00  0.00    +0.000 A 
ATOM      8  C   UNL     1      46.896   4.009  15.230  0.00  0.00    +0.000 A 
ATOM      9  C   UNL     1      47.717   3.624  16.261  0.00  0.00    +0.000 A 
ATOM     10  N   UNL     1      48.748   4.363  16.693  0.00  0.00    +0.000 NA
ATOM     11  C   UNL     1      48.967   5.510  16.047  0.00  0.00    +0.000 A 
ATOM     12  N   UNL     1      50.029   6.275  16.485  0.00  0.00    +0.000 N 
ATOM     13  N   UNL     1      48.219   5.985  15.044  0.00  0.00    +0.000 NA
ATOM     14  H   UNL     1      50.236   6.032  17.444  0.00  0.00    +0.000 HD
ATOM     15  H   UNL     1      49.856   7.248  16.280  0.00  0.00    +0.000 HD
ENDBRANCH   5   7
BRANCH   1  16
ATOM     16  C   UNL     1      43.634   4.520  11.098  0.00  0.00    +0.000 C 
BRANCH  16  21
ATOM     17  C   UNL     1      46.382   2.249   7.678  0.00  0.00    +0.000 A 
ATOM     18  C   UNL     1      45.700   1.825   8.791  0.00  0.00    +0.000 A 
ATOM     19  N   UNL     1      44.838   2.605   9.474  0.00  0.00    +0.000 NA
ATOM     20  C   UNL     1      44.660   3.861   9.038  0.00  0.00    +0.000 A 
ATOM     21  N   UNL     1      43.737   4.679   9.659  0.00  0.00    +0.000 N 
ATOM     22  N   UNL     1      45.302   4.377   7.981  0.00  0.00    +0.000 NA
ATOM     23  C   UNL     1      46.161   3.559   7.323  0.00  0.00    +0.000 A 
ATOM     24  H   UNL     1      43.892   5.629   9.344  0.00  0.00    +0.000 HD
BRANCH  17  26
ATOM     25  N   UNL     1      48.422   1.994   6.390  0.00  0.00    +0.000 N 
ATOM     26  C   UNL     1      47.313   1.399   6.927  0.00  0.00    +0.000 C 
ATOM     27  O   UNL     1      47.116   0.197   6.810  0.00  0.00    +0.000 OA
ATOM     28  H   UNL     1      49.094   1.375   5.951  0.00  0.00    +0.000 HD
ATOM     29  H   UNL     1      48.756   2.906   6.668  0.00  0.00    +0.000 HD
ENDBRANCH  17  26
ENDBRANCH  16  21
ENDBRANCH   1  16
TORSDOF 4
ENDMDL
MODEL 4
REMARK VINA RESULT:    -7.849      3.210      8.115
REMARK INTER + INTRA:         -10.206
REMARK INTER:                  -9.740
REMARK INTRA:                  -0.466
REMARK UNBOUND:                -0.521
REMARK  Name = 
REMARK  4 active torsions:
REMARK  status: ('A' for Active; 'I' for Inactive)
REMARK    1  A    between atoms: C_2  and  C_4
REMARK    2  A    between atoms: N_8  and  C_9
REMARK    3  A    between atoms: C_9  and  C_10
REMARK    4  A    between atoms: C_14  and  C_15
REMARK                            x       y       z     vdW  Elec       q    Type
REMARK                         _______ _______ _______ _____ _____    ______ ____
ROOT
ATOM      1  C   UNL     1      44.927   4.018  11.909  0.00  0.00    +0.000 A 
ATOM      2  C   UNL     1      43.964   4.978  11.567  0.00  0.00    +0.000 A 
ATOM      3  C   UNL     1      43.567   5.139  10.245  0.00  0.00    +0.000 A 
ATOM      4  C   UNL     1      44.158   4.367   9.246  0.00  0.00    +0.000 A 
ATOM      5  C   UNL     1      45.170   3.432   9.535  0.00  0.00    +0.000 A 
ATOM      6  C   UNL     1      45.519   3.251  10.889  0.00  0.00    +0.000 A 
ENDROOT
BRANCH   5   7
ATOM      7  C   UNL     1      45.884   2.717   8.452  0.00  0.00    +0.000 A 
ATOM      8  C   UNL     1      46.458   3.398   7.395  0.00  0.00    +0.000 A 
ATOM      9  C   UNL     1      47.110   2.637   6.456  0.00  0.00    +0.000 A 
ATOM     10  N   UNL     1      47.210   1.303   6.534  0.00  0.00    +0.000 NA
ATOM     11  C   UNL     1      46.656   0.729   7.604  0.00  0.00    +0.000 A 
ATOM     12  N   UNL     1      46.756  -0.645   7.691  0.00  0.00    +0.000 N 
ATOM     13  N   UNL     1      45.984   1.374   8.564  0.00  0.00    +0.000 NA
ATOM     14  H   UNL     1      46.903  -1.024   6.766  0.00  0.00    +0.000 HD
ATOM     15  H   UNL     1      45.982  -1.011   8.225  0.00  0.00    +0.000 HD
ENDBRANCH   5   7
BRANCH   1  16
ATOM     16  C   UNL     1      45.391   3.905  13.345  0.00  0.00    +0.000 C 
BRANCH  16  21
ATOM     17  C   UNL     1      48.545   4.236  17.133  0.00  0.00    +0.000 A 
ATOM     18  C   UNL     1      47.801   3.215  16.595  0.00  0.00    +0.000 A 
ATOM     19  N   UNL     1      47.154   3.310  15.417  0.00  0.00    +0.000 NA
ATOM     20  C   UNL     1      47.240   4.474  14.754  0.00  0.00    +0.000 A 
ATOM     21  N   UNL     1      46.653   4.601  13.512  0.00  0.00    +0.000 N 
ATOM     22  N   UNL     1      47.915   5.538  15.211  0.00  0.00    +0.000 NA
ATOM     23  C   UNL     1      48.550   5.400  16.401  0.00  0.00    +0.000 A 
ATOM     24  H   UNL     1      46.634   5.584  13.268  0.00  0.00    +0.000 HD
BRANCH  17  26
ATOM     25  N   UNL     1      48.589   3.581  19.468  0.00  0.00    +0.000 N 
ATOM     26  C   UNL     1      49.259   4.132  18.410  0.00  0.00    +0.000 C 
ATOM     27  O   UNL     1      50.421   4.500  18.515  0.00  0.00    +0.000 OA
ATOM     28  H   UNL     1      49.128   3.439  20.315  0.00  0.00    +0.000 HD
ATOM     29  H   UNL     1      47.742   3.039  19.372  0.00  0.00    +0.000 HD
ENDBRANCH  17  26
ENDBRANCH  16  21
ENDBRANCH   1  16
TORSDOF 4
ENDMDL
MODEL 5
REMARK VINA RESULT:    -7.735      3.148      5.624
REMARK INTER + INTRA:         -10.064
REMARK INTER:                  -9.609
REMARK INTRA:                  -0.455
REMARK UNBOUND:                -0.521
REMARK  Name = 
REMARK  4 active torsions:
REMARK  status: ('A' for Active; 'I' for Inactive)
REMARK    1  A    between atoms: C_2  and  C_4
REMARK    2  A    between atoms: N_8  and  C_9
REMARK    3  A    between atoms: C_9  and  C_10
REMARK    4  A    between atoms: C_14  and  C_15
REMARK                            x       y       z     vdW  Elec       q    Type
REMARK                         _______ _______ _______ _____ _____    ______ ____
ROOT
ATOM      1  C   UNL     1      44.375   5.136  11.582  0.00  0.00    +0.000 A 
ATOM      2  C   UNL     1      45.382   4.817  12.505  0.00  0.00    +0.000 A 
ATOM      3  C   UNL     1      46.071   5.821  13.174  0.00  0.00    +0.000 A 
ATOM      4  C   UNL     1      45.785   7.157  12.898  0.00  0.00    +0.000 A 
ATOM      5  C   UNL     1      44.824   7.525  11.937  0.00  0.00    +0.000 A 
ATOM      6  C   UNL     1      44.103   6.489  11.310  0.00  0.00    +0.000 A 
ENDROOT
BRANCH   5   7
ATOM      7  C   UNL     1      44.627   8.943  11.555  0.00  0.00    +0.000 A 
ATOM      8  C   UNL     1      45.508   9.928  11.959  0.00  0.00    +0.000 A 
ATOM      9  C   UNL     1      45.239  11.205  11.533  0.00  0.00    +0.000 A 
ATOM     10  N   UNL     1      44.189  11.514  10.760  0.00  0.00    +0.000 NA
ATOM     11  C   UNL     1      43.407  10.499  10.389  0.00  0.00    +0.000 A 
ATOM     12  N   UNL     1      42.325  10.810   9.591  0.00  0.00    +0.000 N 
ATOM     13  N   UNL     1      43.569   9.224  10.762  0.00  0.00    +0.000 NA
ATOM     14  H   UNL     1      42.090  11.784   9.720  0.00  0.00    +0.000 HD
ATOM     15  H   UNL     1      41.590  10.133   9.732  0.00  0.00    +0.000 HD
ENDBRANCH   5   7
BRANCH   1  16
ATOM     16  C   UNL     1      43.683   4.028  10.819  0.00  0.00    +0.000 C 
BRANCH  16  21
ATOM     17  C   UNL     1      46.721   2.535   7.221  0.00  0.00    +0.000 A 
ATOM     18  C   UNL     1      46.409   3.756   7.762  0.00  0.00    +0.000 A 
ATOM     19  N   UNL     1      45.690   3.906   8.892  0.00  0.00    +0.000 NA
ATOM     20  C   UNL     1      45.251   2.792   9.499  0.00  0.00    +0.000 A 
ATOM     21  N   UNL     1      44.569   2.886  10.695  0.00  0.00    +0.000 N 
ATOM     22  N   UNL     1      45.477   1.556   9.032  0.00  0.00    +0.000 NA
ATOM     23  C   UNL     1      46.204   1.452   7.893  0.00  0.00    +0.000 A 
ATOM     24  H   UNL     1      44.140   1.989  10.888  0.00  0.00    +0.000 HD
BRANCH  17  26
ATOM     25  N   UNL     1      47.346   3.294   5.003  0.00  0.00    +0.000 N 
ATOM     26  C   UNL     1      47.513   2.369   5.997  0.00  0.00    +0.000 C 
ATOM     27  O   UNL     1      48.313   1.451   5.883  0.00  0.00    +0.000 OA
ATOM     28  H   UNL     1      47.965   3.210   4.205  0.00  0.00    +0.000 HD
ATOM     29  H   UNL     1      46.903   4.191   5.145  0.00  0.00    +0.000 HD
ENDBRANCH  17  26
ENDBRANCH  16  21
ENDBRANCH   1  16
TORSDOF 4
ENDMDL
MODEL 6
REMARK VINA RESULT:    -7.711      3.544      7.874
REMARK INTER + INTRA:         -10.035
REMARK INTER:                  -9.418
REMARK INTRA:                  -0.617
REMARK UNBOUND:                -0.521
REMARK  Name = 
REMARK  4 active torsions:
REMARK  status: ('A' for Active; 'I' for Inactive)
REMARK    1  A    between atoms: C_2  and  C_4
REMARK    2  A    between atoms: N_8  and  C_9
REMARK    3  A    between atoms: C_9  and  C_10
REMARK    4  A    between atoms: C_14  and  C_15
REMARK                            x       y       z     vdW  Elec       q    Type
REMARK                         _______ _______ _______ _____ _____    ______ ____
ROOT
ATOM      1  C   UNL     1      48.073   6.591  14.337  0.00  0.00    +0.000 A 
ATOM      2  C   UNL     1      48.843   7.314  13.415  0.00  0.00    +0.000 A 
ATOM      3  C   UNL     1      48.465   7.383  12.080  0.00  0.00    +0.000 A 
ATOM      4  C   UNL     1      47.332   6.696  11.646  0.00  0.00    +0.000 A 
ATOM      5  C   UNL     1      46.561   5.910  12.524  0.00  0.00    +0.000 A 
ATOM      6  C   UNL     1      46.936   5.898  13.882  0.00  0.00    +0.000 A 
ENDROOT
BRANCH   5   7
ATOM      7  C   UNL     1      45.442   5.078  12.025  0.00  0.00    +0.000 A 
ATOM      8  C   UNL     1      44.647   4.346  12.886  0.00  0.00    +0.000 A 
ATOM      9  C   UNL     1      43.628   3.624  12.316  0.00  0.00    +0.000 A 
ATOM     10  N   UNL     1      43.384   3.613  10.999  0.00  0.00    +0.000 NA
ATOM     11  C   UNL     1      44.178   4.374  10.243  0.00  0.00    +0.000 A 
ATOM     12  N   UNL     1      43.931   4.369   8.885  0.00  0.00    +0.000 N 
ATOM     13  N   UNL     1      45.208   5.099  10.693  0.00  0.00    +0.000 NA
ATOM     14  H   UNL     1      43.439   3.520   8.643  0.00  0.00    +0.000 HD
ATOM     15  H   UNL     1      44.782   4.571   8.382  0.00  0.00    +0.000 HD
ENDBRANCH   5   7
BRANCH   1  16
ATOM     16  C   UNL     1      48.538   6.477  15.772  0.00  0.00    +0.000 C 
BRANCH  16  21
ATOM     17  C   UNL     1      50.957   2.474  17.364  0.00  0.00    +0.000 A 
ATOM     18  C   UNL     1      51.174   3.825  17.467  0.00  0.00    +0.000 A 
ATOM     19  N   UNL     1      50.259   4.752  17.122  0.00  0.00    +0.000 NA
ATOM     20  C   UNL     1      49.084   4.315  16.642  0.00  0.00    +0.000 A 
ATOM     21  N   UNL     1      48.087   5.220  16.339  0.00  0.00    +0.000 N 
ATOM     22  N   UNL     1      48.789   3.018  16.475  0.00  0.00    +0.000 NA
ATOM     23  C   UNL     1      49.738   2.119  16.834  0.00  0.00    +0.000 A 
ATOM     24  H   UNL     1      47.375   4.740  15.801  0.00  0.00    +0.000 HD
BRANCH  17  26
ATOM     25  N   UNL     1      51.484   0.235  18.134  0.00  0.00    +0.000 N 
ATOM     26  C   UNL     1      51.948   1.463  17.749  0.00  0.00    +0.000 C 
ATOM     27  O   UNL     1      53.146   1.703  17.698  0.00  0.00    +0.000 OA
ATOM     28  H   UNL     1      52.186  -0.474  18.311  0.00  0.00    +0.000 HD
ATOM     29  H   UNL     1      50.545  -0.090  17.950  0.00  0.00    +0.000 HD
ENDBRANCH  17  26
ENDBRANCH  16  21
ENDBRANCH   1  16
TORSDOF 4
ENDMDL
MODEL 7
REMARK VINA RESULT:    -7.115      4.027      8.415
REMARK INTER + INTRA:          -9.300
REMARK INTER:                  -8.686
REMARK INTRA:                  -0.614
REMARK UNBOUND:                -0.521
REMARK  Name = 
REMARK  4 active torsions:
REMARK  status: ('A' for Active; 'I' for Inactive)
REMARK    1  A    between atoms: C_2  and  C_4
REMARK    2  A    between atoms: N_8  and  C_9
REMARK    3  A    between atoms: C_9  and  C_10
REMARK    4  A    between atoms: C_14  and  C_15
REMARK                            x       y       z     vdW  Elec       q    Type
REMARK                         _______ _______ _______ _____ _____    ______ ____
ROOT
ATOM      1  C   UNL     1      47.746   7.274  13.515  0.00  0.00    +0.000 A 
ATOM      2  C   UNL     1      47.243   8.580  13.423  0.00  0.00    +0.000 A 
ATOM      3  C   UNL     1      45.971   8.812  12.915  0.00  0.00    +0.000 A 
ATOM      4  C   UNL     1      45.202   7.742  12.458  0.00  0.00    +0.000 A 
ATOM      5  C   UNL     1      45.689   6.421  12.477  0.00  0.00    +0.000 A 
ATOM      6  C   UNL     1      46.961   6.206  13.044  0.00  0.00    +0.000 A 
ENDROOT
BRANCH   5   7
ATOM      7  C   UNL     1      44.919   5.314  11.865  0.00  0.00    +0.000 A 
ATOM      8  C   UNL     1      44.192   4.427  12.636  0.00  0.00    +0.000 A 
ATOM      9  C   UNL     1      43.502   3.449  11.963  0.00  0.00    +0.000 A 
ATOM     10  N   UNL     1      43.506   3.336  10.628  0.00  0.00    +0.000 NA
ATOM     11  C   UNL     1      44.207   4.253   9.957  0.00  0.00    +0.000 A 
ATOM     12  N   UNL     1      44.213   4.144   8.581  0.00  0.00    +0.000 N 
ATOM     13  N   UNL     1      44.927   5.233  10.515  0.00  0.00    +0.000 NA
ATOM     14  H   UNL     1      43.999   3.190   8.326  0.00  0.00    +0.000 HD
ATOM     15  H   UNL     1      45.062   4.544   8.211  0.00  0.00    +0.000 HD
ENDBRANCH   5   7
BRANCH   1  16
ATOM     16  C   UNL     1      49.158   7.051  14.011  0.00  0.00    +0.000 C 
BRANCH  16  21
ATOM     17  C   UNL     1      48.912   5.180  18.576  0.00  0.00    +0.000 A 
ATOM     18  C   UNL     1      49.438   4.736  17.389  0.00  0.00    +0.000 A 
ATOM     19  N   UNL     1      49.569   5.516  16.298  0.00  0.00    +0.000 NA
ATOM     20  C   UNL     1      49.145   6.787  16.390  0.00  0.00    +0.000 A 
ATOM     21  N   UNL     1      49.319   7.646  15.324  0.00  0.00    +0.000 N 
ATOM     22  N   UNL     1      48.590   7.304  17.494  0.00  0.00    +0.000 NA
ATOM     23  C   UNL     1      48.477   6.485  18.568  0.00  0.00    +0.000 A 
ATOM     24  H   UNL     1      48.760   8.474  15.489  0.00  0.00    +0.000 HD
BRANCH  17  26
ATOM     25  N   UNL     1      48.298   3.067  19.597  0.00  0.00    +0.000 N 
ATOM     26  C   UNL     1      48.778   4.336  19.769  0.00  0.00    +0.000 C 
ATOM     27  O   UNL     1      49.111   4.747  20.872  0.00  0.00    +0.000 OA
ATOM     28  H   UNL     1      48.296   2.474  20.419  0.00  0.00    +0.000 HD
ATOM     29  H   UNL     1      48.255   2.603  18.700  0.00  0.00    +0.000 HD
ENDBRANCH  17  26
ENDBRANCH  16  21
ENDBRANCH   1  16
TORSDOF 4
ENDMDL
MODEL 8
REMARK VINA RESULT:    -6.289      3.628      5.094
REMARK INTER + INTRA:          -8.280
REMARK INTER:                  -7.662
REMARK INTRA:                  -0.618
REMARK UNBOUND:                -0.521
REMARK  Name = 
REMARK  4 active torsions:
REMARK  status: ('A' for Active; 'I' for Inactive)
REMARK    1  A    between atoms: C_2  and  C_4
REMARK    2  A    between atoms: N_8  and  C_9
REMARK    3  A    between atoms: C_9  and  C_10
REMARK    4  A    between atoms: C_14  and  C_15
REMARK                            x       y       z     vdW  Elec       q    Type
REMARK                         _______ _______ _______ _____ _____    ______ ____
ROOT
ATOM      1  C   UNL     1      48.614   7.854  14.986  0.00  0.00    +0.000 A 
ATOM      2  C   UNL     1      48.249   8.825  15.929  0.00  0.00    +0.000 A 
ATOM      3  C   UNL     1      48.685   8.729  17.245  0.00  0.00    +0.000 A 
ATOM      4  C   UNL     1      49.461   7.639  17.639  0.00  0.00    +0.000 A 
ATOM      5  C   UNL     1      49.802   6.611  16.740  0.00  0.00    +0.000 A 
ATOM      6  C   UNL     1      49.391   6.757  15.400  0.00  0.00    +0.000 A 
ENDROOT
BRANCH   5   7
ATOM      7  C   UNL     1      50.509   5.394  17.202  0.00  0.00    +0.000 A 
ATOM      8  C   UNL     1      51.635   5.472  18.000  0.00  0.00    +0.000 A 
ATOM      9  C   UNL     1      52.199   4.281  18.384  0.00  0.00    +0.000 A 
ATOM     10  N   UNL     1      51.706   3.087  18.028  0.00  0.00    +0.000 NA
ATOM     11  C   UNL     1      50.598   3.102  17.284  0.00  0.00    +0.000 A 
ATOM     12  N   UNL     1      50.083   1.875  16.915  0.00  0.00    +0.000 N 
ATOM     13  N   UNL     1      49.980   4.203  16.841  0.00  0.00    +0.000 NA
ATOM     14  H   UNL     1      50.820   1.185  16.952  0.00  0.00    +0.000 HD
ATOM     15  H   UNL     1      49.574   1.965  16.049  0.00  0.00    +0.000 HD
ENDBRANCH   5   7
BRANCH   1  16
ATOM     16  C   UNL     1      48.074   7.944  13.575  0.00  0.00    +0.000 C 
BRANCH  16  21
ATOM     17  C   UNL     1      44.679   4.657  12.138  0.00  0.00    +0.000 A 
ATOM     18  C   UNL     1      45.888   4.563  12.779  0.00  0.00    +0.000 A 
ATOM     19  N   UNL     1      46.560   5.630  13.256  0.00  0.00    +0.000 NA
ATOM     20  C   UNL     1      46.011   6.840  13.073  0.00  0.00    +0.000 A 
ATOM     21  N   UNL     1      46.624   7.958  13.601  0.00  0.00    +0.000 N 
ATOM     22  N   UNL     1      44.850   7.038  12.432  0.00  0.00    +0.000 NA
ATOM     23  C   UNL     1      44.208   5.938  11.968  0.00  0.00    +0.000 A 
ATOM     24  H   UNL     1      46.196   8.779  13.190  0.00  0.00    +0.000 HD
BRANCH  17  26
ATOM     25  N   UNL     1      43.776   2.429  12.467  0.00  0.00    +0.000 N 
ATOM     26  C   UNL     1      43.940   3.497  11.627  0.00  0.00    +0.000 C 
ATOM     27  O   UNL     1      43.464   3.498  10.500  0.00  0.00    +0.000 OA
ATOM     28  H   UNL     1      43.189   1.677  12.125  0.00  0.00    +0.000 HD
ATOM     29  H   UNL     1      43.920   2.478  13.466  0.00  0.00    +0.000 HD
ENDBRANCH  17  26
ENDBRANCH  16  21
ENDBRANCH   1  16
TORSDOF 4
ENDMDL
