MODEL 1
REMARK VINA RESULT:    -9.270      0.000      0.000
REMARK INTER + INTRA:         -12.380
REMARK INTER:                 -11.437
REMARK INTRA:                  -0.942
REMARK UNBOUND:                -0.942
REMARK  Name = 
REMARK  4 active torsions:
REMARK  status: ('A' for Active; 'I' for Inactive)
REMARK    1  A    between atoms: C_2  and  C_4
REMARK    2  A    between atoms: N_8  and  C_9
REMARK    3  A    between atoms: C_9  and  C_10
REMARK    4  A    between atoms: C_14  and  C_15
REMARK                            x       y       z     vdW  Elec       q    Type
REMARK                         _______ _______ _______ _____ _____    ______ ____
ROOT
ATOM      1  C   UNL     1      44.094   4.715  11.487  0.00  0.00    +0.000 C 
ATOM      2  C   UNL     1      42.772   4.801  12.241  0.00  0.00    +0.000 C 
ATOM      3  C   UNL     1      43.034   5.726  11.100  0.00  0.00    +0.000 C 
ENDROOT
BRANCH   1   8
ATOM      4  C   UNL     1      46.604   2.729   7.366  0.00  0.00    +0.000 A 
ATOM      5  C   UNL     1      46.419   4.053   7.748  0.00  0.00    +0.000 A 
ATOM      6  C   UNL     1      45.645   4.334   8.878  0.00  0.00    +0.000 A 
ATOM      7  C   UNL     1      45.105   3.292   9.622  0.00  0.00    +0.000 A 
ATOM      8  N   UNL     1      44.282   3.477  10.728  0.00  0.00    +0.000 N 
ATOM      9  N   UNL     1      45.294   2.001   9.267  0.00  0.00    +0.000 NA
ATOM     10  C   UNL     1      46.015   1.747   8.145  0.00  0.00    +0.000 A 
ATOM     11  H   UNL     1      44.145   2.583  11.187  0.00  0.00    +0.000 HD
BRANCH   4  13
ATOM     12  N   UNL     1      47.181   3.102   5.037  0.00  0.00    +0.000 N 
ATOM     13  C   UNL     1      47.349   2.332   6.155  0.00  0.00    +0.000 C 
ATOM     14  O   UNL     1      48.098   1.365   6.152  0.00  0.00    +0.000 OA
ATOM     15  H   UNL     1      47.757   2.867   4.240  0.00  0.00    +0.000 HD
ATOM     16  H   UNL     1      46.776   4.027   5.070  0.00  0.00    +0.000 HD
ENDBRANCH   4  13
ENDBRANCH   1   8
BRANCH   1  17
ATOM     17  C   UNL     1      45.365   5.201  12.178  0.00  0.00    +0.000 A 
ATOM     18  C   UNL     1      45.937   6.445  11.875  0.00  0.00    +0.000 A 
ATOM     19  C   UNL     1      47.019   6.943  12.600  0.00  0.00    +0.000 A 
ATOM     20  C   UNL     1      47.523   6.221  13.684  0.00  0.00    +0.000 A 
ATOM     21  C   UNL     1      46.973   4.981  14.046  0.00  0.00    +0.000 A 
ATOM     22  C   UNL     1      45.942   4.470  13.237  0.00  0.00    +0.000 A 
BRANCH  21  23
ATOM     23  C   UNL     1      47.375   4.282  15.281  0.00  0.00    +0.000 A 
ATOM     24  C   UNL     1      47.163   4.846  16.543  0.00  0.00    +0.000 A 
ATOM     25  C   UNL     1      47.483   4.117  17.682  0.00  0.00    +0.000 A 
ATOM     26  C   UNL     1      48.011   2.842  17.549  0.00  0.00    +0.000 A 
ATOM     27  C   UNL     1      48.188   2.347  16.268  0.00  0.00    +0.000 A 
ATOM     28  N   UNL     1      47.877   3.028  15.142  0.00  0.00    +0.000 NA
ENDBRANCH  21  23
ENDBRANCH   1  17
TORSDOF 4
ENDMDL
MODEL 2
REMARK VINA RESULT:    -8.857      1.943      3.906
REMARK INTER + INTRA:         -11.871
REMARK INTER:                 -10.764
REMARK INTRA:                  -1.106
REMARK UNBOUND:                -0.942
REMARK  Name = 
REMARK  4 active torsions:
REMARK  status: ('A' for Active; 'I' for Inactive)
REMARK    1  A    between atoms: C_2  and  C_4
REMARK    2  A    between atoms: N_8  and  C_9
REMARK    3  A    between atoms: C_9  and  C_10
REMARK    4  A    between atoms: C_14  and  C_15
REMARK                            x       y       z     vdW  Elec       q    Type
REMARK                         _______ _______ _______ _____ _____    ______ ____
ROOT
ATOM      1  C   UNL     1      43.957   4.839  11.492  0.00  0.00    +0.000 C 
ATOM      2  C   UNL     1      42.567   5.005  12.094  0.00  0.00    +0.000 C 
ATOM      3  C   UNL     1      43.006   5.905  10.986  0.00  0.00    +0.000 C 
ENDROOT
BRANCH   1   8
ATOM      4  C   UNL     1      46.542   2.767   7.460  0.00  0.00    +0.000 A 
ATOM      5  C   UNL     1      46.352   4.100   7.812  0.00  0.00    +0.000 A 
ATOM      6  C   UNL     1      45.558   4.404   8.921  0.00  0.00    +0.000 A 
ATOM      7  C   UNL     1      45.002   3.377   9.675  0.00  0.00    +0.000 A 
ATOM      8  N   UNL     1      44.158   3.586  10.761  0.00  0.00    +0.000 N 
ATOM      9  N   UNL     1      45.195   2.080   9.349  0.00  0.00    +0.000 NA
ATOM     10  C   UNL     1      45.937   1.802   8.247  0.00  0.00    +0.000 A 
ATOM     11  H   UNL     1      44.011   2.701  11.235  0.00  0.00    +0.000 HD
BRANCH   4  13
ATOM     12  N   UNL     1      47.144   3.077   5.128  0.00  0.00    +0.000 N 
ATOM     13  C   UNL     1      47.310   2.345   6.271  0.00  0.00    +0.000 C 
ATOM     14  O   UNL     1      48.075   1.392   6.309  0.00  0.00    +0.000 OA
ATOM     15  H   UNL     1      47.734   2.828   4.346  0.00  0.00    +0.000 HD
ATOM     16  H   UNL     1      46.723   3.996   5.127  0.00  0.00    +0.000 HD
ENDBRANCH   4  13
ENDBRANCH   1   8
BRANCH   1  17
ATOM     17  C   UNL     1      45.169   5.260  12.318  0.00  0.00    +0.000 A 
ATOM     18  C   UNL     1      45.808   4.368  13.192  0.00  0.00    +0.000 A 
ATOM     19  C   UNL     1      46.992   4.713  13.844  0.00  0.00    +0.000 A 
ATOM     20  C   UNL     1      47.590   5.949  13.595  0.00  0.00    +0.000 A 
ATOM     21  C   UNL     1      47.005   6.871  12.712  0.00  0.00    +0.000 A 
ATOM     22  C   UNL     1      45.767   6.524  12.142  0.00  0.00    +0.000 A 
BRANCH  21  23
ATOM     23  C   UNL     1      47.699   8.109  12.306  0.00  0.00    +0.000 A 
ATOM     24  C   UNL     1      49.048   8.104  11.939  0.00  0.00    +0.000 A 
ATOM     25  C   UNL     1      49.639   9.277  11.485  0.00  0.00    +0.000 A 
ATOM     26  C   UNL     1      48.882  10.436  11.408  0.00  0.00    +0.000 A 
ATOM     27  C   UNL     1      47.551  10.363  11.784  0.00  0.00    +0.000 A 
ATOM     28  N   UNL     1      46.946   9.235  12.219  0.00  0.00    +0.000 NA
ENDBRANCH  21  23
ENDBRANCH   1  17
TORSDOF 4
ENDMDL
MODEL 3
REMARK VINA RESULT:    -6.959      3.607      7.153
REMARK INTER + INTRA:          -9.528
REMARK INTER:                  -8.543
REMARK INTRA:                  -0.985
REMARK UNBOUND:                -0.942
REMARK  Name = 
REMARK  4 active torsions:
REMARK  status: ('A' for Active; 'I' for Inactive)
REMARK    1  A    between atoms: C_2  and  C_4
REMARK    2  A    between atoms: N_8  and  C_9
REMARK    3  A    between atoms: C_9  and  C_10
REMARK    4  A    between atoms: C_14  and  C_15
REMARK                            x       y       z     vdW  Elec       q    Type
REMARK                         _______ _______ _______ _____ _____    ______ ____
ROOT
ATOM      1  C   UNL     1      46.164   5.210  13.398  0.00  0.00    +0.000 C 
ATOM      2  C   UNL     1      46.129   4.379  14.676  0.00  0.00    +0.000 C 
ATOM      3  C   UNL     1      47.305   4.280  13.761  0.00  0.00    +0.000 C 
ENDROOT
BRANCH   1   8
ATOM      4  C   UNL     1      48.618   9.495  11.712  0.00  0.00    +0.000 A 
ATOM      5  C   UNL     1      48.897   8.153  11.475  0.00  0.00    +0.000 A 
ATOM      6  C   UNL     1      48.116   7.176  12.099  0.00  0.00    +0.000 A 
ATOM      7  C   UNL     1      47.055   7.555  12.913  0.00  0.00    +0.000 A 
ATOM      8  N   UNL     1      46.259   6.655  13.615  0.00  0.00    +0.000 N 
ATOM      9  N   UNL     1      46.768   8.857  13.135  0.00  0.00    +0.000 NA
ATOM     10  C   UNL     1      47.560   9.793  12.553  0.00  0.00    +0.000 A 
ATOM     11  H   UNL     1      45.468   7.155  14.007  0.00  0.00    +0.000 HD
BRANCH   4  13
ATOM     12  N   UNL     1      48.796  11.451  10.284  0.00  0.00    +0.000 N 
ATOM     13  C   UNL     1      49.423  10.600  11.152  0.00  0.00    +0.000 C 
ATOM     14  O   UNL     1      50.595  10.758  11.460  0.00  0.00    +0.000 OA
ATOM     15  H   UNL     1      49.333  12.248   9.972  0.00  0.00    +0.000 HD
ATOM     16  H   UNL     1      47.790  11.499  10.201  0.00  0.00    +0.000 HD
ENDBRANCH   4  13
ENDBRANCH   1   8
BRANCH   1  17
ATOM     17  C   UNL     1      45.234   4.828  12.250  0.00  0.00    +0.000 A 
ATOM     18  C   UNL     1      43.948   5.375  12.133  0.00  0.00    +0.000 A 
ATOM     19  C   UNL     1      43.152   5.128  11.015  0.00  0.00    +0.000 A 
ATOM     20  C   UNL     1      43.651   4.361   9.960  0.00  0.00    +0.000 A 
ATOM     21  C   UNL     1      44.940   3.808  10.015  0.00  0.00    +0.000 A 
ATOM     22  C   UNL     1      45.679   4.005  11.196  0.00  0.00    +0.000 A 
BRANCH  21  23
ATOM     23  C   UNL     1      45.551   3.138   8.851  0.00  0.00    +0.000 A 
ATOM     24  C   UNL     1      45.985   3.861   7.735  0.00  0.00    +0.000 A 
ATOM     25  C   UNL     1      46.627   3.198   6.696  0.00  0.00    +0.000 A 
ATOM     26  C   UNL     1      46.824   1.828   6.780  0.00  0.00    +0.000 A 
ATOM     27  C   UNL     1      46.371   1.180   7.917  0.00  0.00    +0.000 A 
ATOM     28  N   UNL     1      45.753   1.799   8.948  0.00  0.00    +0.000 NA
ENDBRANCH  21  23
ENDBRANCH   1  17
TORSDOF 4
ENDMDL
MODEL 4
REMARK VINA RESULT:    -6.908      3.140      7.613
REMARK INTER + INTRA:          -9.466
REMARK INTER:                  -9.628
REMARK INTRA:                   0.162
REMARK UNBOUND:                -0.942
REMARK  Name = 
REMARK  4 active torsions:
REMARK  status: ('A' for Active; 'I' for Inactive)
REMARK    1  A    between atoms: C_2  and  C_4
REMARK    2  A    between atoms: N_8  and  C_9
REMARK    3  A    between atoms: C_9  and  C_10
REMARK    4  A    between atoms: C_14  and  C_15
REMARK                            x       y       z     vdW  Elec       q    Type
REMARK                         _______ _______ _______ _____ _____    ______ ____
ROOT
ATOM      1  C   UNL     1      48.597   7.891  12.572  0.00  0.00    +0.000 C 
ATOM      2  C   UNL     1      49.694   7.378  11.647  0.00  0.00    +0.000 C 
ATOM      3  C   UNL     1      49.431   8.844  11.740  0.00  0.00    +0.000 C 
ENDROOT
BRANCH   1   8
ATOM      4  C   UNL     1      47.788   4.553  16.500  0.00  0.00    +0.000 A 
ATOM      5  C   UNL     1      47.205   4.608  15.238  0.00  0.00    +0.000 A 
ATOM      6  C   UNL     1      47.551   5.651  14.374  0.00  0.00    +0.000 A 
ATOM      7  C   UNL     1      48.495   6.592  14.769  0.00  0.00    +0.000 A 
ATOM      8  N   UNL     1      48.861   7.690  13.998  0.00  0.00    +0.000 N 
ATOM      9  N   UNL     1      49.078   6.535  15.987  0.00  0.00    +0.000 NA
ATOM     10  C   UNL     1      48.702   5.539  16.829  0.00  0.00    +0.000 A 
ATOM     11  H   UNL     1      49.666   8.136  14.426  0.00  0.00    +0.000 HD
BRANCH   4  13
ATOM     12  N   UNL     1      48.305   3.371  18.558  0.00  0.00    +0.000 N 
ATOM     13  C   UNL     1      47.443   3.530  17.507  0.00  0.00    +0.000 C 
ATOM     14  O   UNL     1      46.422   2.863  17.418  0.00  0.00    +0.000 OA
ATOM     15  H   UNL     1      48.016   2.726  19.280  0.00  0.00    +0.000 HD
ATOM     16  H   UNL     1      49.009   4.056  18.791  0.00  0.00    +0.000 HD
ENDBRANCH   4  13
ENDBRANCH   1   8
BRANCH   1  17
ATOM     17  C   UNL     1      47.141   7.650  12.185  0.00  0.00    +0.000 A 
ATOM     18  C   UNL     1      46.183   8.672  12.255  0.00  0.00    +0.000 A 
ATOM     19  C   UNL     1      44.886   8.486  11.777  0.00  0.00    +0.000 A 
ATOM     20  C   UNL     1      44.533   7.279  11.170  0.00  0.00    +0.000 A 
ATOM     21  C   UNL     1      45.459   6.231  11.053  0.00  0.00    +0.000 A 
ATOM     22  C   UNL     1      46.730   6.423  11.626  0.00  0.00    +0.000 A 
BRANCH  21  23
ATOM     23  C   UNL     1      45.164   5.014  10.271  0.00  0.00    +0.000 A 
ATOM     24  C   UNL     1      45.663   4.838   8.977  0.00  0.00    +0.000 A 
ATOM     25  C   UNL     1      45.428   3.642   8.309  0.00  0.00    +0.000 A 
ATOM     26  C   UNL     1      44.697   2.644   8.936  0.00  0.00    +0.000 A 
ATOM     27  C   UNL     1      44.239   2.888  10.219  0.00  0.00    +0.000 A 
ATOM     28  N   UNL     1      44.461   4.036  10.898  0.00  0.00    +0.000 NA
ENDBRANCH  21  23
ENDBRANCH   1  17
TORSDOF 4
ENDMDL
MODEL 5
REMARK VINA RESULT:    -6.613      4.007      8.504
REMARK INTER + INTRA:          -9.101
REMARK INTER:                  -8.181
REMARK INTRA:                  -0.920
REMARK UNBOUND:                -0.942
REMARK  Name = 
REMARK  4 active torsions:
REMARK  status: ('A' for Active; 'I' for Inactive)
REMARK    1  A    between atoms: C_2  and  C_4
REMARK    2  A    between atoms: N_8  and  C_9
REMARK    3  A    between atoms: C_9  and  C_10
REMARK    4  A    between atoms: C_14  and  C_15
REMARK                            x       y       z     vdW  Elec       q    Type
REMARK                         _______ _______ _______ _____ _____    ______ ____
ROOT
ATOM      1  C   UNL     1      48.815   7.764  12.490  0.00  0.00    +0.000 C 
ATOM      2  C   UNL     1      49.784   7.918  11.324  0.00  0.00    +0.000 C 
ATOM      3  C   UNL     1      49.453   9.100  12.173  0.00  0.00    +0.000 C 
ENDROOT
BRANCH   1   8
ATOM      4  C   UNL     1      48.839   7.328  17.690  0.00  0.00    +0.000 A 
ATOM      5  C   UNL     1      48.469   8.399  16.883  0.00  0.00    +0.000 A 
ATOM      6  C   UNL     1      48.612   8.289  15.497  0.00  0.00    +0.000 A 
ATOM      7  C   UNL     1      49.084   7.104  14.944  0.00  0.00    +0.000 A 
ATOM      8  N   UNL     1      49.308   6.922  13.583  0.00  0.00    +0.000 N 
ATOM      9  N   UNL     1      49.430   6.053  15.720  0.00  0.00    +0.000 NA
ATOM     10  C   UNL     1      49.322   6.191  17.066  0.00  0.00    +0.000 A 
ATOM     11  H   UNL     1      49.500   5.941  13.412  0.00  0.00    +0.000 HD
BRANCH   4  13
ATOM     12  N   UNL     1      47.795   8.121  19.734  0.00  0.00    +0.000 N 
ATOM     13  C   UNL     1      48.786   7.369  19.165  0.00  0.00    +0.000 C 
ATOM     14  O   UNL     1      49.583   6.746  19.852  0.00  0.00    +0.000 OA
ATOM     15  H   UNL     1      47.721   8.076  20.741  0.00  0.00    +0.000 HD
ATOM     16  H   UNL     1      46.990   8.440  19.216  0.00  0.00    +0.000 HD
ENDBRANCH   4  13
ENDBRANCH   1   8
BRANCH   1  17
ATOM     17  C   UNL     1      47.333   7.560  12.189  0.00  0.00    +0.000 A 
ATOM     18  C   UNL     1      46.398   8.591  12.365  0.00  0.00    +0.000 A 
ATOM     19  C   UNL     1      45.071   8.443  11.964  0.00  0.00    +0.000 A 
ATOM     20  C   UNL     1      44.660   7.269  11.331  0.00  0.00    +0.000 A 
ATOM     21  C   UNL     1      45.559   6.214  11.109  0.00  0.00    +0.000 A 
ATOM     22  C   UNL     1      46.867   6.364  11.606  0.00  0.00    +0.000 A 
BRANCH  21  23
ATOM     23  C   UNL     1      45.195   5.037  10.297  0.00  0.00    +0.000 A 
ATOM     24  C   UNL     1      45.591   4.919   8.961  0.00  0.00    +0.000 A 
ATOM     25  C   UNL     1      45.295   3.757   8.258  0.00  0.00    +0.000 A 
ATOM     26  C   UNL     1      44.607   2.734   8.893  0.00  0.00    +0.000 A 
ATOM     27  C   UNL     1      44.251   2.920  10.218  0.00  0.00    +0.000 A 
ATOM     28  N   UNL     1      44.534   4.034  10.930  0.00  0.00    +0.000 NA
ENDBRANCH  21  23
ENDBRANCH   1  17
TORSDOF 4
ENDMDL
MODEL 6
REMARK VINA RESULT:    -6.587      3.597      5.180
REMARK INTER + INTRA:          -9.070
REMARK INTER:                  -8.117
REMARK INTRA:                  -0.954
REMARK UNBOUND:                -0.942
REMARK  Name = 
REMARK  4 active torsions:
REMARK  status: ('A' for Active; 'I' for Inactive)
REMARK    1  A    between atoms: C_2  and  C_4
REMARK    2  A    between atoms: N_8  and  C_9
REMARK    3  A    between atoms: C_9  and  C_10
REMARK    4  A    between atoms: C_14  and  C_15
REMARK                            x       y       z     vdW  Elec       q    Type
REMARK                         _______ _______ _______ _____ _____    ______ ____
ROOT
ATOM      1  C   UNL     1      48.589   8.285  12.627  0.00  0.00    +0.000 C 
ATOM      2  C   UNL     1      49.444   9.312  11.893  0.00  0.00    +0.000 C 
ATOM      3  C   UNL     1      49.763   7.859  11.769  0.00  0.00    +0.000 C 
ENDROOT
BRANCH   1   8
ATOM      4  C   UNL     1      44.640   4.920  12.069  0.00  0.00    +0.000 A 
ATOM      5  C   UNL     1      45.979   4.687  12.366  0.00  0.00    +0.000 A 
ATOM      6  C   UNL     1      46.865   5.767  12.402  0.00  0.00    +0.000 A 
ATOM      7  C   UNL     1      46.395   7.055  12.177  0.00  0.00    +0.000 A 
ATOM      8  N   UNL     1      47.212   8.181  12.142  0.00  0.00    +0.000 N 
ATOM      9  N   UNL     1      45.093   7.292  11.904  0.00  0.00    +0.000 NA
ATOM     10  C   UNL     1      44.252   6.228  11.835  0.00  0.00    +0.000 A 
ATOM     11  H   UNL     1      46.625   9.009  12.118  0.00  0.00    +0.000 HD
BRANCH   4  13
ATOM     12  N   UNL     1      43.920   2.654  12.561  0.00  0.00    +0.000 N 
ATOM     13  C   UNL     1      43.639   3.842  11.945  0.00  0.00    +0.000 C 
ATOM     14  O   UNL     1      42.594   4.006  11.331  0.00  0.00    +0.000 OA
ATOM     15  H   UNL     1      43.192   1.953  12.537  0.00  0.00    +0.000 HD
ATOM     16  H   UNL     1      44.638   2.564  13.267  0.00  0.00    +0.000 HD
ENDBRANCH   4  13
ENDBRANCH   1   8
BRANCH   1  17
ATOM     17  C   UNL     1      48.706   8.185  14.146  0.00  0.00    +0.000 A 
ATOM     18  C   UNL     1      48.369   9.260  14.981  0.00  0.00    +0.000 A 
ATOM     19  C   UNL     1      48.349   9.122  16.369  0.00  0.00    +0.000 A 
ATOM     20  C   UNL     1      48.622   7.883  16.951  0.00  0.00    +0.000 A 
ATOM     21  C   UNL     1      48.943   6.768  16.160  0.00  0.00    +0.000 A 
ATOM     22  C   UNL     1      49.040   6.966  14.771  0.00  0.00    +0.000 A 
BRANCH  21  23
ATOM     23  C   UNL     1      49.070   5.415  16.736  0.00  0.00    +0.000 A 
ATOM     24  C   UNL     1      47.960   4.581  16.897  0.00  0.00    +0.000 A 
ATOM     25  C   UNL     1      48.138   3.285  17.368  0.00  0.00    +0.000 A 
ATOM     26  C   UNL     1      49.415   2.842  17.676  0.00  0.00    +0.000 A 
ATOM     27  C   UNL     1      50.467   3.722  17.487  0.00  0.00    +0.000 A 
ATOM     28  N   UNL     1      50.326   4.984  17.021  0.00  0.00    +0.000 NA
ENDBRANCH  21  23
ENDBRANCH   1  17
TORSDOF 4
ENDMDL
MODEL 7
REMARK VINA RESULT:    -6.576      3.914      8.450
REMARK INTER + INTRA:          -9.057
REMARK INTER:                  -8.414
REMARK INTRA:                  -0.642
REMARK UNBOUND:                -0.942
REMARK  Name = 
REMARK  4 active torsions:
REMARK  status: ('A' for Active; 'I' for Inactive)
REMARK    1  A    between atoms: C_2  and  C_4
REMARK    2  A    between atoms: N_8  and  C_9
REMARK    3  A    between atoms: C_9  and  C_10
REMARK    4  A    between atoms: C_14  and  C_15
REMARK                            x       y       z     vdW  Elec       q    Type
REMARK                         _______ _______ _______ _____ _____    ______ ____
ROOT
ATOM      1  C   UNL     1      48.268   4.847  17.253  0.00  0.00    +0.000 C 
ATOM      2  C   UNL     1      47.216   5.104  18.325  0.00  0.00    +0.000 C 
ATOM      3  C   UNL     1      47.252   3.787  17.624  0.00  0.00    +0.000 C 
ENDROOT
BRANCH   1   8
ATOM      4  C   UNL     1      52.396   1.683  17.675  0.00  0.00    +0.000 A 
ATOM      5  C   UNL     1      51.077   1.393  17.345  0.00  0.00    +0.000 A 
ATOM      6  C   UNL     1      50.130   2.421  17.358  0.00  0.00    +0.000 A 
ATOM      7  C   UNL     1      50.524   3.719  17.664  0.00  0.00    +0.000 A 
ATOM      8  N   UNL     1      49.644   4.793  17.752  0.00  0.00    +0.000 N 
ATOM      9  N   UNL     1      51.807   4.012  17.969  0.00  0.00    +0.000 NA
ATOM     10  C   UNL     1      52.707   2.995  17.989  0.00  0.00    +0.000 A 
ATOM     11  H   UNL     1      50.182   5.650  17.832  0.00  0.00    +0.000 HD
BRANCH   4  13
ATOM     12  N   UNL     1      53.143  -0.519  18.374  0.00  0.00    +0.000 N 
ATOM     13  C   UNL     1      53.456   0.658  17.751  0.00  0.00    +0.000 C 
ATOM     14  O   UNL     1      54.563   0.843  17.265  0.00  0.00    +0.000 OA
ATOM     15  H   UNL     1      53.850  -1.242  18.348  0.00  0.00    +0.000 HD
ATOM     16  H   UNL     1      52.191  -0.798  18.562  0.00  0.00    +0.000 HD
ENDBRANCH   4  13
ENDBRANCH   1   8
BRANCH   1  17
ATOM     17  C   UNL     1      48.138   5.562  15.911  0.00  0.00    +0.000 A 
ATOM     18  C   UNL     1      49.063   6.534  15.503  0.00  0.00    +0.000 A 
ATOM     19  C   UNL     1      49.017   7.088  14.224  0.00  0.00    +0.000 A 
ATOM     20  C   UNL     1      48.065   6.642  13.305  0.00  0.00    +0.000 A 
ATOM     21  C   UNL     1      47.130   5.655  13.653  0.00  0.00    +0.000 A 
ATOM     22  C   UNL     1      47.150   5.184  14.979  0.00  0.00    +0.000 A 
BRANCH  21  23
ATOM     23  C   UNL     1      46.227   5.050  12.655  0.00  0.00    +0.000 A 
ATOM     24  C   UNL     1      45.924   5.699  11.455  0.00  0.00    +0.000 A 
ATOM     25  C   UNL     1      45.134   5.057  10.508  0.00  0.00    +0.000 A 
ATOM     26  C   UNL     1      44.656   3.782  10.772  0.00  0.00    +0.000 A 
ATOM     27  C   UNL     1      45.002   3.201  11.980  0.00  0.00    +0.000 A 
ATOM     28  N   UNL     1      45.776   3.796  12.915  0.00  0.00    +0.000 NA
ENDBRANCH  21  23
ENDBRANCH   1  17
TORSDOF 4
ENDMDL
