MODEL 1
REMARK VINA RESULT:    -8.717      0.000      0.000
REMARK INTER + INTRA:         -13.329
REMARK INTER:                 -12.539
REMARK INTRA:                  -0.790
REMARK UNBOUND:                -0.790
REMARK  Name = 
REMARK  8 active torsions:
REMARK  status: ('A' for Active; 'I' for Inactive)
REMARK    1  A    between atoms: N_1  and  C_2
REMARK    2  A    between atoms: C_2  and  C_3
REMARK    3  A    between atoms: C_2  and  C_18
REMARK    4  A    between atoms: C_3  and  C_4
REMARK    5  A    between atoms: C_7  and  C_8
REMARK    6  A    between atoms: C_8  and  O_9
REMARK    7  A    between atoms: O_9  and  C_10
REMARK    8  A    between atoms: C_18  and  C_20
REMARK                            x       y       z     vdW  Elec       q    Type
REMARK                         _______ _______ _______ _____ _____    ______ ____
ROOT
ATOM      1  C   UNL     1      47.050   4.012  15.338  0.00  0.00    +0.000 C 
ENDROOT
BRANCH   1   2
ATOM      2  N   UNL     1      47.849   2.870  14.828  0.00  0.00    +0.000 NA
ATOM      3  H   UNL     1      48.757   2.887  15.299  0.00  0.00    +0.000 HD
ATOM      4  H   UNL     1      48.054   3.051  13.840  0.00  0.00    +0.000 HD
ENDBRANCH   1   2
BRANCH   1   5
ATOM      5  C   UNL     1      47.546   4.376  16.757  0.00  0.00    +0.000 C 
ATOM      6  O   UNL     1      46.772   4.278  17.717  0.00  0.00    +0.000 OA
BRANCH   5   7
ATOM      7  C   UNL     1      48.943   4.782  16.979  0.00  0.00    +0.000 A 
ATOM      8  C   UNL     1      49.313   6.117  16.894  0.00  0.00    +0.000 A 
ATOM      9  S   UNL     1      50.942   6.395  17.330  0.00  0.00    +0.000 S 
ATOM     10  C   UNL     1      51.212   4.735  17.590  0.00  0.00    +0.000 A 
ATOM     11  N   UNL     1      52.412   4.273  18.035  0.00  0.00    +0.000 NA
ATOM     12  C   UNL     1      52.462   2.991  18.192  0.00  0.00    +0.000 A 
ATOM     13  N   UNL     1      51.437   2.126  17.908  0.00  0.00    +0.000 N 
ATOM     14  C   UNL     1      50.271   2.539  17.312  0.00  0.00    +0.000 A 
ATOM     15  O   UNL     1      49.489   1.742  16.803  0.00  0.00    +0.000 OA
ATOM     16  C   UNL     1      50.097   3.978  17.279  0.00  0.00    +0.000 A 
ATOM     17  H   UNL     1      51.577   1.128  17.967  0.00  0.00    +0.000 HD
ENDBRANCH   5   7
ENDBRANCH   1   5
BRANCH   1  18
ATOM     18  C   UNL     1      47.182   5.200  14.372  0.00  0.00    +0.000 C 
BRANCH  18  19
ATOM     19  C   UNL     1      46.384   5.002  13.099  0.00  0.00    +0.000 A 
ATOM     20  C   UNL     1      45.598   3.853  12.941  0.00  0.00    +0.000 A 
ATOM     21  C   UNL     1      44.899   3.633  11.755  0.00  0.00    +0.000 A 
ATOM     22  C   UNL     1      44.978   4.551  10.702  0.00  0.00    +0.000 A 
ATOM     23  C   UNL     1      45.735   5.716  10.871  0.00  0.00    +0.000 A 
ATOM     24  C   UNL     1      46.442   5.937  12.059  0.00  0.00    +0.000 A 
BRANCH  22  25
ATOM     25  C   UNL     1      44.259   4.276   9.402  0.00  0.00    +0.000 C 
BRANCH  25  26
ATOM     26  O   UNL     1      45.164   4.422   8.308  0.00  0.00    +0.000 OA
BRANCH  26  27
ATOM     27  C   UNL     1      45.876   3.302   7.964  0.00  0.00    +0.000 A 
ATOM     28  C   UNL     1      45.631   2.009   8.418  0.00  0.00    +0.000 A 
ATOM     29  C   UNL     1      46.449   0.988   7.962  0.00  0.00    +0.000 A 
ATOM     30  N   UNL     1      47.473   1.167   7.103  0.00  0.00    +0.000 NA
ATOM     31  C   UNL     1      47.690   2.431   6.681  0.00  0.00    +0.000 A 
ATOM     32  C   UNL     1      46.928   3.517   7.080  0.00  0.00    +0.000 A 
ENDBRANCH  26  27
ENDBRANCH  25  26
ENDBRANCH  22  25
ENDBRANCH  18  19
ENDBRANCH   1  18
TORSDOF 8
ENDMDL
MODEL 2
REMARK VINA RESULT:    -8.212      1.862      2.522
REMARK INTER + INTRA:         -12.602
REMARK INTER:                 -11.587
REMARK INTRA:                  -1.015
REMARK UNBOUND:                -0.790
REMARK  Name = 
REMARK  8 active torsions:
REMARK  status: ('A' for Active; 'I' for Inactive)
REMARK    1  A    between atoms: N_1  and  C_2
REMARK    2  A    between atoms: C_2  and  C_3
REMARK    3  A    between atoms: C_2  and  C_18
REMARK    4  A    between atoms: C_3  and  C_4
REMARK    5  A    between atoms: C_7  and  C_8
REMARK    6  A    between atoms: C_8  and  O_9
REMARK    7  A    between atoms: O_9  and  C_10
REMARK    8  A    between atoms: C_18  and  C_20
REMARK                            x       y       z     vdW  Elec       q    Type
REMARK                         _______ _______ _______ _____ _____    ______ ____
ROOT
ATOM      1  C   UNL     1      48.275   6.477  13.788  0.00  0.00    +0.000 C 
ENDROOT
BRANCH   1   2
ATOM      2  N   UNL     1      49.382   6.637  12.813  0.00  0.00    +0.000 NA
ATOM      3  H   UNL     1      50.261   6.459  13.304  0.00  0.00    +0.000 HD
ATOM      4  H   UNL     1      49.418   7.625  12.544  0.00  0.00    +0.000 HD
ENDBRANCH   1   2
BRANCH   1   5
ATOM      5  C   UNL     1      48.641   7.230  15.089  0.00  0.00    +0.000 C 
ATOM      6  O   UNL     1      48.243   8.390  15.255  0.00  0.00    +0.000 OA
BRANCH   5   7
ATOM      7  C   UNL     1      49.411   6.560  16.150  0.00  0.00    +0.000 A 
ATOM      8  C   UNL     1      50.727   6.917  16.401  0.00  0.00    +0.000 A 
ATOM      9  S   UNL     1      51.391   6.128  17.764  0.00  0.00    +0.000 S 
ATOM     10  C   UNL     1      49.958   5.249  18.021  0.00  0.00    +0.000 A 
ATOM     11  N   UNL     1      49.826   4.401  19.077  0.00  0.00    +0.000 NA
ATOM     12  C   UNL     1      48.678   3.811  19.144  0.00  0.00    +0.000 A 
ATOM     13  N   UNL     1      47.665   3.961  18.232  0.00  0.00    +0.000 N 
ATOM     14  C   UNL     1      47.820   4.683  17.075  0.00  0.00    +0.000 A 
ATOM     15  O   UNL     1      47.032   4.581  16.140  0.00  0.00    +0.000 OA
ATOM     16  C   UNL     1      49.017   5.502  17.040  0.00  0.00    +0.000 A 
ATOM     17  H   UNL     1      46.830   3.398  18.296  0.00  0.00    +0.000 HD
ENDBRANCH   5   7
ENDBRANCH   1   5
BRANCH   1  18
ATOM     18  C   UNL     1      46.972   7.013  13.175  0.00  0.00    +0.000 C 
BRANCH  18  19
ATOM     19  C   UNL     1      46.253   5.970  12.343  0.00  0.00    +0.000 A 
ATOM     20  C   UNL     1      45.962   4.716  12.896  0.00  0.00    +0.000 A 
ATOM     21  C   UNL     1      45.347   3.730  12.127  0.00  0.00    +0.000 A 
ATOM     22  C   UNL     1      45.019   3.974  10.789  0.00  0.00    +0.000 A 
ATOM     23  C   UNL     1      45.277   5.236  10.244  0.00  0.00    +0.000 A 
ATOM     24  C   UNL     1      45.899   6.227  11.013  0.00  0.00    +0.000 A 
BRANCH  22  25
ATOM     25  C   UNL     1      44.401   2.880   9.950  0.00  0.00    +0.000 C 
BRANCH  25  26
ATOM     26  O   UNL     1      44.575   3.176   8.564  0.00  0.00    +0.000 OA
BRANCH  26  27
ATOM     27  C   UNL     1      45.695   2.653   7.974  0.00  0.00    +0.000 A 
ATOM     28  C   UNL     1      46.608   3.356   7.191  0.00  0.00    +0.000 A 
ATOM     29  C   UNL     1      47.695   2.669   6.674  0.00  0.00    +0.000 A 
ATOM     30  N   UNL     1      47.925   1.357   6.880  0.00  0.00    +0.000 NA
ATOM     31  C   UNL     1      47.023   0.698   7.639  0.00  0.00    +0.000 A 
ATOM     32  C   UNL     1      45.907   1.296   8.199  0.00  0.00    +0.000 A 
ENDBRANCH  26  27
ENDBRANCH  25  26
ENDBRANCH  22  25
ENDBRANCH  18  19
ENDBRANCH   1  18
TORSDOF 8
ENDMDL
MODEL 3
REMARK VINA RESULT:    -7.771      2.503      3.117
REMARK INTER + INTRA:         -11.968
REMARK INTER:                 -10.814
REMARK INTRA:                  -1.154
REMARK UNBOUND:                -0.790
REMARK  Name = 
REMARK  8 active torsions:
REMARK  status: ('A' for Active; 'I' for Inactive)
REMARK    1  A    between atoms: N_1  and  C_2
REMARK    2  A    between atoms: C_2  and  C_3
REMARK    3  A    between atoms: C_2  and  C_18
REMARK    4  A    between atoms: C_3  and  C_4
REMARK    5  A    between atoms: C_7  and  C_8
REMARK    6  A    between atoms: C_8  and  O_9
REMARK    7  A    between atoms: O_9  and  C_10
REMARK    8  A    between atoms: C_18  and  C_20
REMARK                            x       y       z     vdW  Elec       q    Type
REMARK                         _______ _______ _______ _____ _____    ______ ____
ROOT
ATOM      1  C   UNL     1      48.688   6.640  13.844  0.00  0.00    +0.000 C 
ENDROOT
BRANCH   1   2
ATOM      2  N   UNL     1      49.418   6.597  12.553  0.00  0.00    +0.000 NA
ATOM      3  H   UNL     1      50.030   7.415  12.511  0.00  0.00    +0.000 HD
ATOM      4  H   UNL     1      48.731   6.734  11.804  0.00  0.00    +0.000 HD
ENDBRANCH   1   2
BRANCH   1   5
ATOM      5  C   UNL     1      49.426   7.604  14.803  0.00  0.00    +0.000 C 
ATOM      6  O   UNL     1      50.412   8.232  14.397  0.00  0.00    +0.000 OA
BRANCH   5   7
ATOM      7  C   UNL     1      48.933   7.818  16.174  0.00  0.00    +0.000 A 
ATOM      8  C   UNL     1      48.516   9.076  16.585  0.00  0.00    +0.000 A 
ATOM      9  S   UNL     1      47.843   9.082  18.156  0.00  0.00    +0.000 S 
ATOM     10  C   UNL     1      48.141   7.418  18.349  0.00  0.00    +0.000 A 
ATOM     11  N   UNL     1      47.758   6.756  19.474  0.00  0.00    +0.000 NA
ATOM     12  C   UNL     1      48.045   5.495  19.471  0.00  0.00    +0.000 A 
ATOM     13  N   UNL     1      48.714   4.846  18.466  0.00  0.00    +0.000 N 
ATOM     14  C   UNL     1      49.252   5.511  17.392  0.00  0.00    +0.000 A 
ATOM     15  O   UNL     1      50.082   4.987  16.657  0.00  0.00    +0.000 OA
ATOM     16  C   UNL     1      48.807   6.886  17.261  0.00  0.00    +0.000 A 
ATOM     17  H   UNL     1      48.987   3.880  18.571  0.00  0.00    +0.000 HD
ENDBRANCH   5   7
ENDBRANCH   1   5
BRANCH   1  18
ATOM     18  C   UNL     1      47.239   7.090  13.598  0.00  0.00    +0.000 C 
BRANCH  18  19
ATOM     19  C   UNL     1      46.490   6.149  12.678  0.00  0.00    +0.000 A 
ATOM     20  C   UNL     1      46.220   4.838  13.090  0.00  0.00    +0.000 A 
ATOM     21  C   UNL     1      45.577   3.945  12.235  0.00  0.00    +0.000 A 
ATOM     22  C   UNL     1      45.199   4.343  10.947  0.00  0.00    +0.000 A 
ATOM     23  C   UNL     1      45.437   5.661  10.544  0.00  0.00    +0.000 A 
ATOM     24  C   UNL     1      46.087   6.558  11.400  0.00  0.00    +0.000 A 
BRANCH  22  25
ATOM     25  C   UNL     1      44.550   3.351  10.009  0.00  0.00    +0.000 C 
BRANCH  25  26
ATOM     26  O   UNL     1      44.838   3.705   8.657  0.00  0.00    +0.000 OA
BRANCH  26  27
ATOM     27  C   UNL     1      45.820   2.974   8.040  0.00  0.00    +0.000 A 
ATOM     28  C   UNL     1      46.768   3.470   7.149  0.00  0.00    +0.000 A 
ATOM     29  C   UNL     1      47.697   2.588   6.621  0.00  0.00    +0.000 A 
ATOM     30  N   UNL     1      47.741   1.273   6.915  0.00  0.00    +0.000 NA
ATOM     31  C   UNL     1      46.808   0.817   7.779  0.00  0.00    +0.000 A 
ATOM     32  C   UNL     1      45.840   1.619   8.359  0.00  0.00    +0.000 A 
ENDBRANCH  26  27
ENDBRANCH  25  26
ENDBRANCH  22  25
ENDBRANCH  18  19
ENDBRANCH   1  18
TORSDOF 8
ENDMDL
MODEL 4
REMARK VINA RESULT:    -7.593      2.054      2.661
REMARK INTER + INTRA:         -11.712
REMARK INTER:                 -10.600
REMARK INTRA:                  -1.112
REMARK UNBOUND:                -0.790
REMARK  Name = 
REMARK  8 active torsions:
REMARK  status: ('A' for Active; 'I' for Inactive)
REMARK    1  A    between atoms: N_1  and  C_2
REMARK    2  A    between atoms: C_2  and  C_3
REMARK    3  A    between atoms: C_2  and  C_18
REMARK    4  A    between atoms: C_3  and  C_4
REMARK    5  A    between atoms: C_7  and  C_8
REMARK    6  A    between atoms: C_8  and  O_9
REMARK    7  A    between atoms: O_9  and  C_10
REMARK    8  A    between atoms: C_18  and  C_20
REMARK                            x       y       z     vdW  Elec       q    Type
REMARK                         _______ _______ _______ _____ _____    ______ ____
ROOT
ATOM      1  C   UNL     1      48.561   6.565  14.132  0.00  0.00    +0.000 C 
ENDROOT
BRANCH   1   2
ATOM      2  N   UNL     1      49.725   6.997  13.319  0.00  0.00    +0.000 NA
ATOM      3  H   UNL     1      50.478   7.255  13.961  0.00  0.00    +0.000 HD
ATOM      4  H   UNL     1      49.465   7.867  12.843  0.00  0.00    +0.000 HD
ENDBRANCH   1   2
BRANCH   1   5
ATOM      5  C   UNL     1      48.763   7.046  15.588  0.00  0.00    +0.000 C 
ATOM      6  O   UNL     1      48.542   8.229  15.877  0.00  0.00    +0.000 OA
BRANCH   5   7
ATOM      7  C   UNL     1      49.162   6.097  16.641  0.00  0.00    +0.000 A 
ATOM      8  C   UNL     1      48.206   5.463  17.420  0.00  0.00    +0.000 A 
ATOM      9  S   UNL     1      48.865   4.294  18.478  0.00  0.00    +0.000 S 
ATOM     10  C   UNL     1      50.449   4.643  17.964  0.00  0.00    +0.000 A 
ATOM     11  N   UNL     1      51.518   3.953  18.445  0.00  0.00    +0.000 NA
ATOM     12  C   UNL     1      52.654   4.325  17.955  0.00  0.00    +0.000 A 
ATOM     13  N   UNL     1      52.823   5.349  17.059  0.00  0.00    +0.000 N 
ATOM     14  C   UNL     1      51.789   6.166  16.673  0.00  0.00    +0.000 A 
ATOM     15  O   UNL     1      51.989   7.238  16.110  0.00  0.00    +0.000 OA
ATOM     16  C   UNL     1      50.476   5.683  17.053  0.00  0.00    +0.000 A 
ATOM     17  H   UNL     1      53.749   5.647  16.789  0.00  0.00    +0.000 HD
ENDBRANCH   5   7
ENDBRANCH   1   5
BRANCH   1  18
ATOM     18  C   UNL     1      47.271   7.137  13.524  0.00  0.00    +0.000 C 
BRANCH  18  19
ATOM     19  C   UNL     1      46.591   6.159  12.587  0.00  0.00    +0.000 A 
ATOM     20  C   UNL     1      46.266   6.554  11.283  0.00  0.00    +0.000 A 
ATOM     21  C   UNL     1      45.596   5.683  10.427  0.00  0.00    +0.000 A 
ATOM     22  C   UNL     1      45.228   4.404  10.859  0.00  0.00    +0.000 A 
ATOM     23  C   UNL     1      45.581   3.994  12.150  0.00  0.00    +0.000 A 
ATOM     24  C   UNL     1      46.251   4.869  13.013  0.00  0.00    +0.000 A 
BRANCH  22  25
ATOM     25  C   UNL     1      44.454   3.487   9.941  0.00  0.00    +0.000 C 
BRANCH  25  26
ATOM     26  O   UNL     1      44.781   3.775   8.582  0.00  0.00    +0.000 OA
BRANCH  26  27
ATOM     27  C   UNL     1      45.785   3.021   8.032  0.00  0.00    +0.000 A 
ATOM     28  C   UNL     1      46.799   3.494   7.202  0.00  0.00    +0.000 A 
ATOM     29  C   UNL     1      47.741   2.591   6.737  0.00  0.00    +0.000 A 
ATOM     30  N   UNL     1      47.739   1.276   7.037  0.00  0.00    +0.000 NA
ATOM     31  C   UNL     1      46.743   0.844   7.840  0.00  0.00    +0.000 A 
ATOM     32  C   UNL     1      45.756   1.668   8.355  0.00  0.00    +0.000 A 
ENDBRANCH  26  27
ENDBRANCH  25  26
ENDBRANCH  22  25
ENDBRANCH  18  19
ENDBRANCH   1  18
TORSDOF 8
ENDMDL
MODEL 5
REMARK VINA RESULT:    -7.495      2.858      8.896
REMARK INTER + INTRA:         -11.571
REMARK INTER:                 -10.256
REMARK INTRA:                  -1.315
REMARK UNBOUND:                -0.790
REMARK  Name = 
REMARK  8 active torsions:
REMARK  status: ('A' for Active; 'I' for Inactive)
REMARK    1  A    between atoms: N_1  and  C_2
REMARK    2  A    between atoms: C_2  and  C_3
REMARK    3  A    between atoms: C_2  and  C_18
REMARK    4  A    between atoms: C_3  and  C_4
REMARK    5  A    between atoms: C_7  and  C_8
REMARK    6  A    between atoms: C_8  and  O_9
REMARK    7  A    between atoms: O_9  and  C_10
REMARK    8  A    between atoms: C_18  and  C_20
REMARK                            x       y       z     vdW  Elec       q    Type
REMARK                         _______ _______ _______ _____ _____    ______ ____
ROOT
ATOM      1  C   UNL     1      45.288   7.193  12.775  0.00  0.00    +0.000 C 
ENDROOT
BRANCH   1   2
ATOM      2  N   UNL     1      45.319   8.673  12.677  0.00  0.00    +0.000 NA
ATOM      3  H   UNL     1      46.083   8.931  12.047  0.00  0.00    +0.000 HD
ATOM      4  H   UNL     1      45.591   9.039  13.595  0.00  0.00    +0.000 HD
ENDBRANCH   1   2
BRANCH   1   5
ATOM      5  C   UNL     1      44.305   6.642  11.715  0.00  0.00    +0.000 C 
ATOM      6  O   UNL     1      43.637   7.431  11.034  0.00  0.00    +0.000 OA
BRANCH   5   7
ATOM      7  C   UNL     1      44.200   5.194  11.473  0.00  0.00    +0.000 A 
ATOM      8  C   UNL     1      43.614   4.361  12.416  0.00  0.00    +0.000 A 
ATOM      9  S   UNL     1      43.456   2.746  11.882  0.00  0.00    +0.000 S 
ATOM     10  C   UNL     1      44.215   3.103  10.402  0.00  0.00    +0.000 A 
ATOM     11  N   UNL     1      44.365   2.157   9.435  0.00  0.00    +0.000 NA
ATOM     12  C   UNL     1      44.952   2.580   8.365  0.00  0.00    +0.000 A 
ATOM     13  N   UNL     1      45.439   3.850   8.187  0.00  0.00    +0.000 N 
ATOM     14  C   UNL     1      45.446   4.782   9.196  0.00  0.00    +0.000 A 
ATOM     15  O   UNL     1      46.128   5.799   9.131  0.00  0.00    +0.000 OA
ATOM     16  C   UNL     1      44.644   4.417  10.348  0.00  0.00    +0.000 A 
ATOM     17  H   UNL     1      45.969   4.086   7.361  0.00  0.00    +0.000 HD
ENDBRANCH   5   7
ENDBRANCH   1   5
BRANCH   1  18
ATOM     18  C   UNL     1      46.707   6.638  12.570  0.00  0.00    +0.000 C 
BRANCH  18  19
ATOM     19  C   UNL     1      47.285   6.048  13.840  0.00  0.00    +0.000 A 
ATOM     20  C   UNL     1      46.836   4.803  14.299  0.00  0.00    +0.000 A 
ATOM     21  C   UNL     1      47.322   4.272  15.493  0.00  0.00    +0.000 A 
ATOM     22  C   UNL     1      48.260   4.978  16.255  0.00  0.00    +0.000 A 
ATOM     23  C   UNL     1      48.735   6.206  15.782  0.00  0.00    +0.000 A 
ATOM     24  C   UNL     1      48.245   6.743  14.586  0.00  0.00    +0.000 A 
BRANCH  22  25
ATOM     25  C   UNL     1      48.740   4.417  17.573  0.00  0.00    +0.000 C 
BRANCH  25  26
ATOM     26  O   UNL     1      50.116   4.743  17.765  0.00  0.00    +0.000 OA
BRANCH  26  27
ATOM     27  C   UNL     1      50.985   3.684  17.808  0.00  0.00    +0.000 A 
ATOM     28  C   UNL     1      52.294   3.723  18.279  0.00  0.00    +0.000 A 
ATOM     29  C   UNL     1      53.035   2.551  18.256  0.00  0.00    +0.000 A 
ATOM     30  N   UNL     1      52.567   1.372  17.802  0.00  0.00    +0.000 NA
ATOM     31  C   UNL     1      51.295   1.363  17.348  0.00  0.00    +0.000 A 
ATOM     32  C   UNL     1      50.477   2.480  17.331  0.00  0.00    +0.000 A 
ENDBRANCH  26  27
ENDBRANCH  25  26
ENDBRANCH  22  25
ENDBRANCH  18  19
ENDBRANCH   1  18
TORSDOF 8
ENDMDL
MODEL 6
REMARK VINA RESULT:    -7.451      2.045      2.627
REMARK INTER + INTRA:         -11.507
REMARK INTER:                 -10.672
REMARK INTRA:                  -0.835
REMARK UNBOUND:                -0.790
REMARK  Name = 
REMARK  8 active torsions:
REMARK  status: ('A' for Active; 'I' for Inactive)
REMARK    1  A    between atoms: N_1  and  C_2
REMARK    2  A    between atoms: C_2  and  C_3
REMARK    3  A    between atoms: C_2  and  C_18
REMARK    4  A    between atoms: C_3  and  C_4
REMARK    5  A    between atoms: C_7  and  C_8
REMARK    6  A    between atoms: C_8  and  O_9
REMARK    7  A    between atoms: O_9  and  C_10
REMARK    8  A    between atoms: C_18  and  C_20
REMARK                            x       y       z     vdW  Elec       q    Type
REMARK                         _______ _______ _______ _____ _____    ______ ____
ROOT
ATOM      1  C   UNL     1      48.077   6.664  13.860  0.00  0.00    +0.000 C 
ENDROOT
BRANCH   1   2
ATOM      2  N   UNL     1      49.007   6.253  12.779  0.00  0.00    +0.000 NA
ATOM      3  H   UNL     1      49.081   5.233  12.800  0.00  0.00    +0.000 HD
ATOM      4  H   UNL     1      49.941   6.597  13.026  0.00  0.00    +0.000 HD
ENDBRANCH   1   2
BRANCH   1   5
ATOM      5  C   UNL     1      48.752   7.767  14.708  0.00  0.00    +0.000 C 
ATOM      6  O   UNL     1      48.118   8.790  14.994  0.00  0.00    +0.000 OA
BRANCH   5   7
ATOM      7  C   UNL     1      50.119   7.583  15.223  0.00  0.00    +0.000 A 
ATOM      8  C   UNL     1      51.163   8.362  14.748  0.00  0.00    +0.000 A 
ATOM      9  S   UNL     1      52.634   8.096  15.576  0.00  0.00    +0.000 S 
ATOM     10  C   UNL     1      51.930   6.895  16.553  0.00  0.00    +0.000 A 
ATOM     11  N   UNL     1      52.639   6.273  17.534  0.00  0.00    +0.000 NA
ATOM     12  C   UNL     1      51.966   5.390  18.196  0.00  0.00    +0.000 A 
ATOM     13  N   UNL     1      50.664   5.044  17.942  0.00  0.00    +0.000 N 
ATOM     14  C   UNL     1      49.970   5.536  16.865  0.00  0.00    +0.000 A 
ATOM     15  O   UNL     1      48.927   5.019  16.478  0.00  0.00    +0.000 OA
ATOM     16  C   UNL     1      50.614   6.653  16.202  0.00  0.00    +0.000 A 
ATOM     17  H   UNL     1      50.230   4.280  18.439  0.00  0.00    +0.000 HD
ENDBRANCH   5   7
ENDBRANCH   1   5
BRANCH   1  18
ATOM     18  C   UNL     1      46.760   7.156  13.241  0.00  0.00    +0.000 C 
BRANCH  18  19
ATOM     19  C   UNL     1      46.102   6.105  12.370  0.00  0.00    +0.000 A 
ATOM     20  C   UNL     1      45.684   4.893  12.934  0.00  0.00    +0.000 A 
ATOM     21  C   UNL     1      45.124   3.897  12.136  0.00  0.00    +0.000 A 
ATOM     22  C   UNL     1      44.979   4.089  10.758  0.00  0.00    +0.000 A 
ATOM     23  C   UNL     1      45.364   5.311  10.196  0.00  0.00    +0.000 A 
ATOM     24  C   UNL     1      45.931   6.311  10.995  0.00  0.00    +0.000 A 
BRANCH  22  25
ATOM     25  C   UNL     1      44.420   2.982   9.894  0.00  0.00    +0.000 C 
BRANCH  25  26
ATOM     26  O   UNL     1      44.637   3.286   8.517  0.00  0.00    +0.000 OA
BRANCH  26  27
ATOM     27  C   UNL     1      45.742   2.714   7.942  0.00  0.00    +0.000 A 
ATOM     28  C   UNL     1      46.693   3.375   7.168  0.00  0.00    +0.000 A 
ATOM     29  C   UNL     1      47.756   2.641   6.667  0.00  0.00    +0.000 A 
ATOM     30  N   UNL     1      47.930   1.321   6.881  0.00  0.00    +0.000 NA
ATOM     31  C   UNL     1      46.992   0.705   7.632  0.00  0.00    +0.000 A 
ATOM     32  C   UNL     1      45.895   1.351   8.176  0.00  0.00    +0.000 A 
ENDBRANCH  26  27
ENDBRANCH  25  26
ENDBRANCH  22  25
ENDBRANCH  18  19
ENDBRANCH   1  18
TORSDOF 8
ENDMDL
MODEL 7
REMARK VINA RESULT:    -7.143      3.710      4.571
REMARK INTER + INTRA:         -11.065
REMARK INTER:                 -10.034
REMARK INTRA:                  -1.030
REMARK UNBOUND:                -0.790
REMARK  Name = 
REMARK  8 active torsions:
REMARK  status: ('A' for Active; 'I' for Inactive)
REMARK    1  A    between atoms: N_1  and  C_2
REMARK    2  A    between atoms: C_2  and  C_3
REMARK    3  A    between atoms: C_2  and  C_18
REMARK    4  A    between atoms: C_3  and  C_4
REMARK    5  A    between atoms: C_7  and  C_8
REMARK    6  A    between atoms: C_8  and  O_9
REMARK    7  A    between atoms: O_9  and  C_10
REMARK    8  A    between atoms: C_18  and  C_20
REMARK                            x       y       z     vdW  Elec       q    Type
REMARK                         _______ _______ _______ _____ _____    ______ ____
ROOT
ATOM      1  C   UNL     1      46.844   8.297  12.881  0.00  0.00    +0.000 C 
ENDROOT
BRANCH   1   2
ATOM      2  N   UNL     1      45.641   9.155  13.027  0.00  0.00    +0.000 NA
ATOM      3  H   UNL     1      45.667   9.860  12.287  0.00  0.00    +0.000 HD
ATOM      4  H   UNL     1      45.738   9.679  13.903  0.00  0.00    +0.000 HD
ENDBRANCH   1   2
BRANCH   1   5
ATOM      5  C   UNL     1      48.047   9.006  13.546  0.00  0.00    +0.000 C 
ATOM      6  O   UNL     1      47.916   9.505  14.671  0.00  0.00    +0.000 OA
BRANCH   5   7
ATOM      7  C   UNL     1      49.357   9.042  12.876  0.00  0.00    +0.000 A 
ATOM      8  C   UNL     1      49.489   9.601  11.613  0.00  0.00    +0.000 A 
ATOM      9  S   UNL     1      51.110   9.679  11.076  0.00  0.00    +0.000 S 
ATOM     10  C   UNL     1      51.672   8.918  12.491  0.00  0.00    +0.000 A 
ATOM     11  N   UNL     1      53.000   8.714  12.706  0.00  0.00    +0.000 NA
ATOM     12  C   UNL     1      53.272   8.133  13.829  0.00  0.00    +0.000 A 
ATOM     13  N   UNL     1      52.338   7.703  14.736  0.00  0.00    +0.000 N 
ATOM     14  C   UNL     1      50.990   7.751  14.480  0.00  0.00    +0.000 A 
ATOM     15  O   UNL     1      50.183   7.115  15.150  0.00  0.00    +0.000 OA
ATOM     16  C   UNL     1      50.631   8.549  13.324  0.00  0.00    +0.000 A 
ATOM     17  H   UNL     1      52.618   7.174  15.548  0.00  0.00    +0.000 HD
ENDBRANCH   5   7
ENDBRANCH   1   5
BRANCH   1  18
ATOM     18  C   UNL     1      46.574   6.926  13.520  0.00  0.00    +0.000 C 
BRANCH  18  19
ATOM     19  C   UNL     1      46.060   5.913  12.517  0.00  0.00    +0.000 A 
ATOM     20  C   UNL     1      45.871   6.288  11.181  0.00  0.00    +0.000 A 
ATOM     21  C   UNL     1      45.351   5.381  10.259  0.00  0.00    +0.000 A 
ATOM     22  C   UNL     1      45.001   4.086  10.656  0.00  0.00    +0.000 A 
ATOM     23  C   UNL     1      45.220   3.698  11.982  0.00  0.00    +0.000 A 
ATOM     24  C   UNL     1      45.738   4.608  12.911  0.00  0.00    +0.000 A 
BRANCH  22  25
ATOM     25  C   UNL     1      44.388   3.128   9.660  0.00  0.00    +0.000 C 
BRANCH  25  26
ATOM     26  O   UNL     1      44.748   3.514   8.334  0.00  0.00    +0.000 OA
BRANCH  26  27
ATOM     27  C   UNL     1      45.812   2.850   7.781  0.00  0.00    +0.000 A 
ATOM     28  C   UNL     1      46.735   3.388   6.889  0.00  0.00    +0.000 A 
ATOM     29  C   UNL     1      47.758   2.573   6.432  0.00  0.00    +0.000 A 
ATOM     30  N   UNL     1      47.916   1.284   6.796  0.00  0.00    +0.000 NA
ATOM     31  C   UNL     1      47.004   0.786   7.659  0.00  0.00    +0.000 A 
ATOM     32  C   UNL     1      45.949   1.521   8.171  0.00  0.00    +0.000 A 
ENDBRANCH  26  27
ENDBRANCH  25  26
ENDBRANCH  22  25
ENDBRANCH  18  19
ENDBRANCH   1  18
TORSDOF 8
ENDMDL
MODEL 8
REMARK VINA RESULT:    -6.975      2.422      3.678
REMARK INTER + INTRA:         -10.823
REMARK INTER:                  -9.586
REMARK INTRA:                  -1.237
REMARK UNBOUND:                -0.790
REMARK  Name = 
REMARK  8 active torsions:
REMARK  status: ('A' for Active; 'I' for Inactive)
REMARK    1  A    between atoms: N_1  and  C_2
REMARK    2  A    between atoms: C_2  and  C_3
REMARK    3  A    between atoms: C_2  and  C_18
REMARK    4  A    between atoms: C_3  and  C_4
REMARK    5  A    between atoms: C_7  and  C_8
REMARK    6  A    between atoms: C_8  and  O_9
REMARK    7  A    between atoms: O_9  and  C_10
REMARK    8  A    between atoms: C_18  and  C_20
REMARK                            x       y       z     vdW  Elec       q    Type
REMARK                         _______ _______ _______ _____ _____    ______ ____
ROOT
ATOM      1  C   UNL     1      50.111   7.575  14.546  0.00  0.00    +0.000 C 
ENDROOT
BRANCH   1   2
ATOM      2  N   UNL     1      51.560   7.893  14.608  0.00  0.00    +0.000 NA
ATOM      3  H   UNL     1      51.661   8.908  14.532  0.00  0.00    +0.000 HD
ATOM      4  H   UNL     1      51.998   7.513  13.763  0.00  0.00    +0.000 HD
ENDBRANCH   1   2
BRANCH   1   5
ATOM      5  C   UNL     1      49.547   7.529  15.985  0.00  0.00    +0.000 C 
ATOM      6  O   UNL     1      48.951   8.514  16.438  0.00  0.00    +0.000 OA
BRANCH   5   7
ATOM      7  C   UNL     1      49.665   6.306  16.796  0.00  0.00    +0.000 A 
ATOM      8  C   UNL     1      50.702   6.160  17.706  0.00  0.00    +0.000 A 
ATOM      9  S   UNL     1      50.576   4.740  18.649  0.00  0.00    +0.000 S 
ATOM     10  C   UNL     1      49.165   4.257  17.830  0.00  0.00    +0.000 A 
ATOM     11  N   UNL     1      48.495   3.125  18.180  0.00  0.00    +0.000 NA
ATOM     12  C   UNL     1      47.439   2.894  17.472  0.00  0.00    +0.000 A 
ATOM     13  N   UNL     1      47.013   3.668  16.423  0.00  0.00    +0.000 N 
ATOM     14  C   UNL     1      47.747   4.725  15.944  0.00  0.00    +0.000 A 
ATOM     15  O   UNL     1      47.518   5.226  14.849  0.00  0.00    +0.000 OA
ATOM     16  C   UNL     1      48.840   5.129  16.808  0.00  0.00    +0.000 A 
ATOM     17  H   UNL     1      46.231   3.377  15.855  0.00  0.00    +0.000 HD
ENDBRANCH   5   7
ENDBRANCH   1   5
BRANCH   1  18
ATOM     18  C   UNL     1      49.392   8.631  13.692  0.00  0.00    +0.000 C 
BRANCH  18  19
ATOM     19  C   UNL     1      48.147   8.084  13.025  0.00  0.00    +0.000 A 
ATOM     20  C   UNL     1      46.882   8.484  13.475  0.00  0.00    +0.000 A 
ATOM     21  C   UNL     1      45.727   7.950  12.904  0.00  0.00    +0.000 A 
ATOM     22  C   UNL     1      45.814   7.001  11.880  0.00  0.00    +0.000 A 
ATOM     23  C   UNL     1      47.075   6.626  11.405  0.00  0.00    +0.000 A 
ATOM     24  C   UNL     1      48.236   7.156  11.979  0.00  0.00    +0.000 A 
BRANCH  22  25
ATOM     25  C   UNL     1      44.557   6.390  11.305  0.00  0.00    +0.000 C 
BRANCH  25  26
ATOM     26  O   UNL     1      44.599   4.971  11.449  0.00  0.00    +0.000 OA
BRANCH  26  27
ATOM     27  C   UNL     1      44.815   4.256  10.300  0.00  0.00    +0.000 A 
ATOM     28  C   UNL     1      45.350   4.757   9.116  0.00  0.00    +0.000 A 
ATOM     29  C   UNL     1      45.506   3.889   8.047  0.00  0.00    +0.000 A 
ATOM     30  N   UNL     1      45.169   2.584   8.080  0.00  0.00    +0.000 NA
ATOM     31  C   UNL     1      44.649   2.125   9.239  0.00  0.00    +0.000 A 
ATOM     32  C   UNL     1      44.455   2.913  10.360  0.00  0.00    +0.000 A 
ENDBRANCH  26  27
ENDBRANCH  25  26
ENDBRANCH  22  25
ENDBRANCH  18  19
ENDBRANCH   1  18
TORSDOF 8
ENDMDL
MODEL 9
REMARK VINA RESULT:    -6.887      2.735      4.206
REMARK INTER + INTRA:         -10.696
REMARK INTER:                  -9.206
REMARK INTRA:                  -1.490
REMARK UNBOUND:                -0.790
REMARK  Name = 
REMARK  8 active torsions:
REMARK  status: ('A' for Active; 'I' for Inactive)
REMARK    1  A    between atoms: N_1  and  C_2
REMARK    2  A    between atoms: C_2  and  C_3
REMARK    3  A    between atoms: C_2  and  C_18
REMARK    4  A    between atoms: C_3  and  C_4
REMARK    5  A    between atoms: C_7  and  C_8
REMARK    6  A    between atoms: C_8  and  O_9
REMARK    7  A    between atoms: O_9  and  C_10
REMARK    8  A    between atoms: C_18  and  C_20
REMARK                            x       y       z     vdW  Elec       q    Type
REMARK                         _______ _______ _______ _____ _____    ______ ____
ROOT
ATOM      1  C   UNL     1      50.610   7.421  15.021  0.00  0.00    +0.000 C 
ENDROOT
BRANCH   1   2
ATOM      2  N   UNL     1      52.087   7.494  15.152  0.00  0.00    +0.000 NA
ATOM      3  H   UNL     1      52.496   7.193  14.264  0.00  0.00    +0.000 HD
ATOM      4  H   UNL     1      52.373   6.787  15.836  0.00  0.00    +0.000 HD
ENDBRANCH   1   2
BRANCH   1   5
ATOM      5  C   UNL     1      49.982   7.426  16.434  0.00  0.00    +0.000 C 
ATOM      6  O   UNL     1      49.500   8.473  16.884  0.00  0.00    +0.000 OA
BRANCH   5   7
ATOM      7  C   UNL     1      49.904   6.185  17.222  0.00  0.00    +0.000 A 
ATOM      8  C   UNL     1      50.825   5.926  18.226  0.00  0.00    +0.000 A 
ATOM      9  S   UNL     1      50.473   4.510  19.116  0.00  0.00    +0.000 S 
ATOM     10  C   UNL     1      49.114   4.175  18.148  0.00  0.00    +0.000 A 
ATOM     11  N   UNL     1      48.311   3.106  18.401  0.00  0.00    +0.000 NA
ATOM     12  C   UNL     1      47.314   2.987  17.586  0.00  0.00    +0.000 A 
ATOM     13  N   UNL     1      47.071   3.815  16.520  0.00  0.00    +0.000 N 
ATOM     14  C   UNL     1      47.944   4.805  16.143  0.00  0.00    +0.000 A 
ATOM     15  O   UNL     1      47.874   5.343  15.044  0.00  0.00    +0.000 OA
ATOM     16  C   UNL     1      48.976   5.091  17.121  0.00  0.00    +0.000 A 
ATOM     17  H   UNL     1      46.326   3.608  15.870  0.00  0.00    +0.000 HD
ENDBRANCH   5   7
ENDBRANCH   1   5
BRANCH   1  18
ATOM     18  C   UNL     1      50.113   8.607  14.179  0.00  0.00    +0.000 C 
BRANCH  18  19
ATOM     19  C   UNL     1      48.834   8.288  13.431  0.00  0.00    +0.000 A 
ATOM     20  C   UNL     1      47.617   8.823  13.871  0.00  0.00    +0.000 A 
ATOM     21  C   UNL     1      46.426   8.498  13.223  0.00  0.00    +0.000 A 
ATOM     22  C   UNL     1      46.428   7.625  12.129  0.00  0.00    +0.000 A 
ATOM     23  C   UNL     1      47.646   7.116  11.666  0.00  0.00    +0.000 A 
ATOM     24  C   UNL     1      48.842   7.438  12.318  0.00  0.00    +0.000 A 
BRANCH  22  25
ATOM     25  C   UNL     1      45.125   7.238  11.468  0.00  0.00    +0.000 C 
BRANCH  25  26
ATOM     26  O   UNL     1      45.343   6.150  10.570  0.00  0.00    +0.000 OA
BRANCH  26  27
ATOM     27  C   UNL     1      44.683   4.986  10.864  0.00  0.00    +0.000 A 
ATOM     28  C   UNL     1      43.932   4.742  12.011  0.00  0.00    +0.000 A 
ATOM     29  C   UNL     1      43.322   3.505  12.145  0.00  0.00    +0.000 A 
ATOM     30  N   UNL     1      43.412   2.516  11.233  0.00  0.00    +0.000 NA
ATOM     31  C   UNL     1      44.149   2.778  10.132  0.00  0.00    +0.000 A 
ATOM     32  C   UNL     1      44.795   3.982   9.907  0.00  0.00    +0.000 A 
ENDBRANCH  26  27
ENDBRANCH  25  26
ENDBRANCH  22  25
ENDBRANCH  18  19
ENDBRANCH   1  18
TORSDOF 8
ENDMDL
