MODEL 1
REMARK VINA RESULT:    -7.765      0.000      0.000
REMARK INTER + INTRA:         -11.165
REMARK INTER:                 -10.035
REMARK INTRA:                  -1.130
REMARK UNBOUND:                -1.130
REMARK  Name = 
REMARK  7 active torsions:
REMARK  status: ('A' for Active; 'I' for Inactive)
REMARK    1  A    between atoms: C_1  and  C_2
REMARK    2  A    between atoms: C_2  and  N_3
REMARK    3  A    between atoms: C_2  and  C_17
REMARK    4  A    between atoms: C_4  and  C_6
REMARK    5  A    between atoms: N_12  and  C_13
REMARK    6  A    between atoms: C_20  and  O_21
REMARK    7  A    between atoms: O_21  and  C_22
REMARK                            x       y       z     vdW  Elec       q    Type
REMARK                         _______ _______ _______ _____ _____    ______ ____
ROOT
ATOM      1  C   UNL     1      46.744   4.583  14.689  0.00  0.00    +0.000 C 
ATOM      2  C   UNL     1      46.391   5.664  13.667  0.00  0.00    +0.000 C 
ENDROOT
BRANCH   2   3
ATOM      3  C   UNL     1      45.856   5.052  12.383  0.00  0.00    +0.000 A 
ATOM      4  C   UNL     1      45.928   5.785  11.192  0.00  0.00    +0.000 A 
ATOM      5  C   UNL     1      45.491   5.224   9.991  0.00  0.00    +0.000 A 
ATOM      6  C   UNL     1      45.028   3.908   9.947  0.00  0.00    +0.000 A 
ATOM      7  C   UNL     1      44.912   3.182  11.132  0.00  0.00    +0.000 A 
ATOM      8  C   UNL     1      45.321   3.751  12.342  0.00  0.00    +0.000 A 
BRANCH   6   9
ATOM      9  O   UNL     1      44.612   3.282   8.794  0.00  0.00    +0.000 OA
BRANCH   9  10
ATOM     10  C   UNL     1      45.571   2.647   8.013  0.00  0.00    +0.000 A 
ATOM     11  C   UNL     1      46.012   3.333   6.892  0.00  0.00    +0.000 A 
ATOM     12  C   UNL     1      47.003   2.746   6.109  0.00  0.00    +0.000 A 
ATOM     13  C   UNL     1      47.512   1.503   6.470  0.00  0.00    +0.000 A 
ATOM     14  C   UNL     1      46.989   0.880   7.590  0.00  0.00    +0.000 A 
ATOM     15  N   UNL     1      46.017   1.415   8.355  0.00  0.00    +0.000 NA
ENDBRANCH   9  10
ENDBRANCH   6   9
ENDBRANCH   2   3
BRANCH   2  16
ATOM     16  N   UNL     1      47.538   6.488  13.347  0.00  0.00    +0.000 N 
ATOM     17  C   UNL     1      47.567   7.850  13.431  0.00  0.00    +0.000 C 
ATOM     18  O   UNL     1      46.572   8.528  13.668  0.00  0.00    +0.000 OA
ATOM     19  H   UNL     1      48.417   5.993  13.277  0.00  0.00    +0.000 HD
BRANCH  17  20
ATOM     20  C   UNL     1      48.875   8.459  13.157  0.00  0.00    +0.000 A 
ATOM     21  C   UNL     1      49.018   9.404  12.154  0.00  0.00    +0.000 A 
ATOM     22  S   UNL     1      50.622   9.962  11.972  0.00  0.00    +0.000 S 
ATOM     23  C   UNL     1      51.167   8.992  13.257  0.00  0.00    +0.000 A 
ATOM     24  N   UNL     1      52.467   9.008  13.649  0.00  0.00    +0.000 NA
ATOM     25  C   UNL     1      52.739   8.243  14.652  0.00  0.00    +0.000 A 
ATOM     26  N   UNL     1      51.833   7.443  15.317  0.00  0.00    +0.000 N 
ATOM     27  C   UNL     1      52.242   6.610  16.425  0.00  0.00    +0.000 C 
ATOM     28  C   UNL     1      50.500   7.383  14.929  0.00  0.00    +0.000 A 
ATOM     29  O   UNL     1      49.688   6.639  15.473  0.00  0.00    +0.000 OA
ATOM     30  C   UNL     1      50.149   8.241  13.807  0.00  0.00    +0.000 A 
ENDBRANCH  17  20
ENDBRANCH   2  16
TORSDOF 5
ENDMDL
MODEL 2
REMARK VINA RESULT:    -7.409      2.594      3.320
REMARK INTER + INTRA:         -10.705
REMARK INTER:                 -10.870
REMARK INTRA:                   0.165
REMARK UNBOUND:                -1.130
REMARK  Name = 
REMARK  7 active torsions:
REMARK  status: ('A' for Active; 'I' for Inactive)
REMARK    1  A    between atoms: C_1  and  C_2
REMARK    2  A    between atoms: C_2  and  N_3
REMARK    3  A    between atoms: C_2  and  C_17
REMARK    4  A    between atoms: C_4  and  C_6
REMARK    5  A    between atoms: N_12  and  C_13
REMARK    6  A    between atoms: C_20  and  O_21
REMARK    7  A    between atoms: O_21  and  C_22
REMARK                            x       y       z     vdW  Elec       q    Type
REMARK                         _______ _______ _______ _____ _____    ______ ____
ROOT
ATOM      1  C   UNL     1      43.471   4.036  13.510  0.00  0.00    +0.000 C 
ATOM      2  C   UNL     1      44.083   5.308  12.920  0.00  0.00    +0.000 C 
ENDROOT
BRANCH   2   3
ATOM      3  C   UNL     1      44.436   5.119  11.454  0.00  0.00    +0.000 A 
ATOM      4  C   UNL     1      45.520   5.822  10.913  0.00  0.00    +0.000 A 
ATOM      5  C   UNL     1      45.895   5.625   9.584  0.00  0.00    +0.000 A 
ATOM      6  C   UNL     1      45.236   4.686   8.790  0.00  0.00    +0.000 A 
ATOM      7  C   UNL     1      44.130   4.009   9.303  0.00  0.00    +0.000 A 
ATOM      8  C   UNL     1      43.732   4.226  10.626  0.00  0.00    +0.000 A 
BRANCH   6   9
ATOM      9  O   UNL     1      45.574   4.418   7.483  0.00  0.00    +0.000 OA
BRANCH   9  10
ATOM     10  C   UNL     1      46.206   3.210   7.205  0.00  0.00    +0.000 A 
ATOM     11  C   UNL     1      46.929   3.146   6.024  0.00  0.00    +0.000 A 
ATOM     12  C   UNL     1      47.610   1.967   5.734  0.00  0.00    +0.000 A 
ATOM     13  C   UNL     1      47.543   0.901   6.625  0.00  0.00    +0.000 A 
ATOM     14  C   UNL     1      46.771   1.048   7.765  0.00  0.00    +0.000 A 
ATOM     15  N   UNL     1      46.087   2.169   8.063  0.00  0.00    +0.000 NA
ENDBRANCH   9  10
ENDBRANCH   6   9
ENDBRANCH   2   3
BRANCH   2  16
ATOM     16  N   UNL     1      45.274   5.708  13.639  0.00  0.00    +0.000 N 
ATOM     17  C   UNL     1      46.347   4.899  13.882  0.00  0.00    +0.000 C 
ATOM     18  O   UNL     1      46.355   3.701  13.622  0.00  0.00    +0.000 OA
ATOM     19  H   UNL     1      45.388   6.705  13.761  0.00  0.00    +0.000 HD
BRANCH  17  20
ATOM     20  C   UNL     1      47.483   5.560  14.539  0.00  0.00    +0.000 A 
ATOM     21  C   UNL     1      48.110   6.643  13.944  0.00  0.00    +0.000 A 
ATOM     22  S   UNL     1      49.428   7.243  14.849  0.00  0.00    +0.000 S 
ATOM     23  C   UNL     1      49.173   6.104  16.085  0.00  0.00    +0.000 A 
ATOM     24  N   UNL     1      49.957   6.081  17.194  0.00  0.00    +0.000 NA
ATOM     25  C   UNL     1      49.639   5.181  18.063  0.00  0.00    +0.000 A 
ATOM     26  N   UNL     1      48.602   4.281  17.939  0.00  0.00    +0.000 N 
ATOM     27  C   UNL     1      48.334   3.301  18.968  0.00  0.00    +0.000 C 
ATOM     28  C   UNL     1      47.794   4.259  16.808  0.00  0.00    +0.000 A 
ATOM     29  O   UNL     1      46.898   3.433  16.654  0.00  0.00    +0.000 OA
ATOM     30  C   UNL     1      48.113   5.266  15.807  0.00  0.00    +0.000 A 
ENDBRANCH  17  20
ENDBRANCH   2  16
TORSDOF 5
ENDMDL
MODEL 3
REMARK VINA RESULT:    -7.193      3.069      4.196
REMARK INTER + INTRA:         -10.425
REMARK INTER:                  -9.148
REMARK INTRA:                  -1.277
REMARK UNBOUND:                -1.130
REMARK  Name = 
REMARK  7 active torsions:
REMARK  status: ('A' for Active; 'I' for Inactive)
REMARK    1  A    between atoms: C_1  and  C_2
REMARK    2  A    between atoms: C_2  and  N_3
REMARK    3  A    between atoms: C_2  and  C_17
REMARK    4  A    between atoms: C_4  and  C_6
REMARK    5  A    between atoms: N_12  and  C_13
REMARK    6  A    between atoms: C_20  and  O_21
REMARK    7  A    between atoms: O_21  and  C_22
REMARK                            x       y       z     vdW  Elec       q    Type
REMARK                         _______ _______ _______ _____ _____    ______ ____
ROOT
ATOM      1  C   UNL     1      47.380   9.683  13.192  0.00  0.00    +0.000 C 
ATOM      2  C   UNL     1      47.818   8.235  13.410  0.00  0.00    +0.000 C 
ENDROOT
BRANCH   2   3
ATOM      3  C   UNL     1      46.844   7.263  12.764  0.00  0.00    +0.000 A 
ATOM      4  C   UNL     1      45.797   7.761  11.979  0.00  0.00    +0.000 A 
ATOM      5  C   UNL     1      44.922   6.887  11.333  0.00  0.00    +0.000 A 
ATOM      6  C   UNL     1      45.108   5.506  11.413  0.00  0.00    +0.000 A 
ATOM      7  C   UNL     1      46.121   4.996  12.224  0.00  0.00    +0.000 A 
ATOM      8  C   UNL     1      46.982   5.869  12.896  0.00  0.00    +0.000 A 
BRANCH   6   9
ATOM      9  O   UNL     1      44.304   4.588  10.776  0.00  0.00    +0.000 OA
BRANCH   9  10
ATOM     10  C   UNL     1      44.864   3.822   9.759  0.00  0.00    +0.000 A 
ATOM     11  C   UNL     1      45.499   4.513   8.740  0.00  0.00    +0.000 A 
ATOM     12  C   UNL     1      46.109   3.777   7.726  0.00  0.00    +0.000 A 
ATOM     13  C   UNL     1      46.059   2.388   7.767  0.00  0.00    +0.000 A 
ATOM     14  C   UNL     1      45.376   1.786   8.809  0.00  0.00    +0.000 A 
ATOM     15  N   UNL     1      44.761   2.472   9.793  0.00  0.00    +0.000 NA
ENDBRANCH   9  10
ENDBRANCH   6   9
ENDBRANCH   2   3
BRANCH   2  16
ATOM     16  N   UNL     1      47.926   7.918  14.819  0.00  0.00    +0.000 N 
ATOM     17  C   UNL     1      49.013   8.192  15.598  0.00  0.00    +0.000 C 
ATOM     18  O   UNL     1      50.069   8.624  15.147  0.00  0.00    +0.000 OA
ATOM     19  H   UNL     1      47.054   7.687  15.276  0.00  0.00    +0.000 HD
BRANCH  17  20
ATOM     20  C   UNL     1      48.849   7.872  17.022  0.00  0.00    +0.000 A 
ATOM     21  C   UNL     1      48.840   8.879  17.975  0.00  0.00    +0.000 A 
ATOM     22  S   UNL     1      48.674   8.298  19.572  0.00  0.00    +0.000 S 
ATOM     23  C   UNL     1      48.562   6.688  19.038  0.00  0.00    +0.000 A 
ATOM     24  N   UNL     1      48.385   5.666  19.914  0.00  0.00    +0.000 NA
ATOM     25  C   UNL     1      48.294   4.498  19.372  0.00  0.00    +0.000 A 
ATOM     26  N   UNL     1      48.366   4.237  18.019  0.00  0.00    +0.000 N 
ATOM     27  C   UNL     1      48.263   2.887  17.512  0.00  0.00    +0.000 C 
ATOM     28  C   UNL     1      48.571   5.255  17.095  0.00  0.00    +0.000 A 
ATOM     29  O   UNL     1      48.689   5.038  15.892  0.00  0.00    +0.000 OA
ATOM     30  C   UNL     1      48.669   6.590  17.666  0.00  0.00    +0.000 A 
ENDBRANCH  17  20
ENDBRANCH   2  16
TORSDOF 5
ENDMDL
MODEL 4
REMARK VINA RESULT:    -7.151      3.818      4.994
REMARK INTER + INTRA:         -10.372
REMARK INTER:                  -9.083
REMARK INTRA:                  -1.289
REMARK UNBOUND:                -1.130
REMARK  Name = 
REMARK  7 active torsions:
REMARK  status: ('A' for Active; 'I' for Inactive)
REMARK    1  A    between atoms: C_1  and  C_2
REMARK    2  A    between atoms: C_2  and  N_3
REMARK    3  A    between atoms: C_2  and  C_17
REMARK    4  A    between atoms: C_4  and  C_6
REMARK    5  A    between atoms: N_12  and  C_13
REMARK    6  A    between atoms: C_20  and  O_21
REMARK    7  A    between atoms: O_21  and  C_22
REMARK                            x       y       z     vdW  Elec       q    Type
REMARK                         _______ _______ _______ _____ _____    ______ ____
ROOT
ATOM      1  C   UNL     1      48.234   9.217  14.101  0.00  0.00    +0.000 C 
ATOM      2  C   UNL     1      48.394   7.696  14.114  0.00  0.00    +0.000 C 
ENDROOT
BRANCH   2   3
ATOM      3  C   UNL     1      47.362   7.027  13.221  0.00  0.00    +0.000 A 
ATOM      4  C   UNL     1      47.153   5.646  13.329  0.00  0.00    +0.000 A 
ATOM      5  C   UNL     1      46.175   5.019  12.558  0.00  0.00    +0.000 A 
ATOM      6  C   UNL     1      45.352   5.762  11.710  0.00  0.00    +0.000 A 
ATOM      7  C   UNL     1      45.576   7.130  11.562  0.00  0.00    +0.000 A 
ATOM      8  C   UNL     1      46.576   7.758  12.311  0.00  0.00    +0.000 A 
BRANCH   6   9
ATOM      9  O   UNL     1      44.348   5.213  10.946  0.00  0.00    +0.000 OA
BRANCH   9  10
ATOM     10  C   UNL     1      44.694   4.253  10.001  0.00  0.00    +0.000 A 
ATOM     11  C   UNL     1      45.441   4.689   8.918  0.00  0.00    +0.000 A 
ATOM     12  C   UNL     1      45.843   3.747   7.974  0.00  0.00    +0.000 A 
ATOM     13  C   UNL     1      45.484   2.414   8.143  0.00  0.00    +0.000 A 
ATOM     14  C   UNL     1      44.712   2.077   9.241  0.00  0.00    +0.000 A 
ATOM     15  N   UNL     1      44.293   2.969  10.160  0.00  0.00    +0.000 NA
ENDBRANCH   9  10
ENDBRANCH   6   9
ENDBRANCH   2   3
BRANCH   2  16
ATOM     16  N   UNL     1      48.270   7.160  15.453  0.00  0.00    +0.000 N 
ATOM     17  C   UNL     1      49.302   6.655  16.190  0.00  0.00    +0.000 C 
ATOM     18  O   UNL     1      50.429   6.488  15.738  0.00  0.00    +0.000 OA
ATOM     19  H   UNL     1      47.406   7.388  15.929  0.00  0.00    +0.000 HD
BRANCH  17  20
ATOM     20  C   UNL     1      48.949   6.267  17.563  0.00  0.00    +0.000 A 
ATOM     21  C   UNL     1      49.198   4.982  18.018  0.00  0.00    +0.000 A 
ATOM     22  S   UNL     1      48.684   4.722  19.626  0.00  0.00    +0.000 S 
ATOM     23  C   UNL     1      48.155   6.330  19.778  0.00  0.00    +0.000 A 
ATOM     24  N   UNL     1      47.617   6.787  20.938  0.00  0.00    +0.000 NA
ATOM     25  C   UNL     1      47.280   8.034  20.925  0.00  0.00    +0.000 A 
ATOM     26  N   UNL     1      47.421   8.888  19.851  0.00  0.00    +0.000 N 
ATOM     27  C   UNL     1      47.000  10.269  19.933  0.00  0.00    +0.000 C 
ATOM     28  C   UNL     1      47.945   8.449  18.641  0.00  0.00    +0.000 A 
ATOM     29  O   UNL     1      48.033   9.180  17.657  0.00  0.00    +0.000 OA
ATOM     30  C   UNL     1      48.348   7.051  18.619  0.00  0.00    +0.000 A 
ENDBRANCH  17  20
ENDBRANCH   2  16
TORSDOF 5
ENDMDL
MODEL 5
REMARK VINA RESULT:    -6.940      3.313      9.224
REMARK INTER + INTRA:         -10.099
REMARK INTER:                  -9.073
REMARK INTRA:                  -1.026
REMARK UNBOUND:                -1.130
REMARK  Name = 
REMARK  7 active torsions:
REMARK  status: ('A' for Active; 'I' for Inactive)
REMARK    1  A    between atoms: C_1  and  C_2
REMARK    2  A    between atoms: C_2  and  N_3
REMARK    3  A    between atoms: C_2  and  C_17
REMARK    4  A    between atoms: C_4  and  C_6
REMARK    5  A    between atoms: N_12  and  C_13
REMARK    6  A    between atoms: C_20  and  O_21
REMARK    7  A    between atoms: O_21  and  C_22
REMARK                            x       y       z     vdW  Elec       q    Type
REMARK                         _______ _______ _______ _____ _____    ______ ____
ROOT
ATOM      1  C   UNL     1      48.532   7.889  11.399  0.00  0.00    +0.000 C 
ATOM      2  C   UNL     1      47.387   7.808  12.410  0.00  0.00    +0.000 C 
ENDROOT
BRANCH   2   3
ATOM      3  C   UNL     1      47.912   7.805  13.836  0.00  0.00    +0.000 A 
ATOM      4  C   UNL     1      48.515   6.647  14.343  0.00  0.00    +0.000 A 
ATOM      5  C   UNL     1      49.051   6.637  15.631  0.00  0.00    +0.000 A 
ATOM      6  C   UNL     1      49.047   7.794  16.412  0.00  0.00    +0.000 A 
ATOM      7  C   UNL     1      48.414   8.941  15.936  0.00  0.00    +0.000 A 
ATOM      8  C   UNL     1      47.849   8.946  14.658  0.00  0.00    +0.000 A 
BRANCH   6   9
ATOM      9  O   UNL     1      49.587   7.864  17.676  0.00  0.00    +0.000 OA
BRANCH   9  10
ATOM     10  C   UNL     1      49.106   6.987  18.643  0.00  0.00    +0.000 A 
ATOM     11  C   UNL     1      49.962   5.971  19.040  0.00  0.00    +0.000 A 
ATOM     12  C   UNL     1      49.531   5.100  20.037  0.00  0.00    +0.000 A 
ATOM     13  C   UNL     1      48.269   5.271  20.595  0.00  0.00    +0.000 A 
ATOM     14  C   UNL     1      47.472   6.295  20.113  0.00  0.00    +0.000 A 
ATOM     15  N   UNL     1      47.855   7.141  19.137  0.00  0.00    +0.000 NA
ENDBRANCH   9  10
ENDBRANCH   6   9
ENDBRANCH   2   3
BRANCH   2  16
ATOM     16  N   UNL     1      46.581   6.622  12.208  0.00  0.00    +0.000 N 
ATOM     17  C   UNL     1      45.342   6.609  11.636  0.00  0.00    +0.000 C 
ATOM     18  O   UNL     1      44.726   7.630  11.348  0.00  0.00    +0.000 OA
ATOM     19  H   UNL     1      47.077   5.745  12.298  0.00  0.00    +0.000 HD
BRANCH  17  20
ATOM     20  C   UNL     1      44.764   5.273  11.442  0.00  0.00    +0.000 A 
ATOM     21  C   UNL     1      43.952   4.707  12.411  0.00  0.00    +0.000 A 
ATOM     22  S   UNL     1      43.412   3.137  12.010  0.00  0.00    +0.000 S 
ATOM     23  C   UNL     1      44.208   3.183  10.509  0.00  0.00    +0.000 A 
ATOM     24  N   UNL     1      44.135   2.141   9.641  0.00  0.00    +0.000 NA
ATOM     25  C   UNL     1      44.767   2.318   8.529  0.00  0.00    +0.000 A 
ATOM     26  N   UNL     1      45.483   3.446   8.187  0.00  0.00    +0.000 N 
ATOM     27  C   UNL     1      46.167   3.541   6.917  0.00  0.00    +0.000 C 
ATOM     28  C   UNL     1      45.599   4.522   9.059  0.00  0.00    +0.000 A 
ATOM     29  O   UNL     1      46.274   5.514   8.795  0.00  0.00    +0.000 OA
ATOM     30  C   UNL     1      44.892   4.366  10.321  0.00  0.00    +0.000 A 
ENDBRANCH  17  20
ENDBRANCH   2  16
TORSDOF 5
ENDMDL
MODEL 6
REMARK VINA RESULT:    -6.702      1.845      2.239
REMARK INTER + INTRA:          -9.791
REMARK INTER:                  -9.803
REMARK INTRA:                   0.012
REMARK UNBOUND:                -1.130
REMARK  Name = 
REMARK  7 active torsions:
REMARK  status: ('A' for Active; 'I' for Inactive)
REMARK    1  A    between atoms: C_1  and  C_2
REMARK    2  A    between atoms: C_2  and  N_3
REMARK    3  A    between atoms: C_2  and  C_17
REMARK    4  A    between atoms: C_4  and  C_6
REMARK    5  A    between atoms: N_12  and  C_13
REMARK    6  A    between atoms: C_20  and  O_21
REMARK    7  A    between atoms: O_21  and  C_22
REMARK                            x       y       z     vdW  Elec       q    Type
REMARK                         _______ _______ _______ _____ _____    ______ ____
ROOT
ATOM      1  C   UNL     1      46.779   4.296  14.539  0.00  0.00    +0.000 C 
ATOM      2  C   UNL     1      46.205   5.464  13.737  0.00  0.00    +0.000 C 
ENDROOT
BRANCH   2   3
ATOM      3  C   UNL     1      45.742   5.012  12.362  0.00  0.00    +0.000 A 
ATOM      4  C   UNL     1      45.976   5.836  11.254  0.00  0.00    +0.000 A 
ATOM      5  C   UNL     1      45.607   5.419   9.974  0.00  0.00    +0.000 A 
ATOM      6  C   UNL     1      45.051   4.154   9.771  0.00  0.00    +0.000 A 
ATOM      7  C   UNL     1      44.775   3.342  10.869  0.00  0.00    +0.000 A 
ATOM      8  C   UNL     1      45.116   3.768  12.156  0.00  0.00    +0.000 A 
BRANCH   6   9
ATOM      9  O   UNL     1      44.694   3.666   8.535  0.00  0.00    +0.000 OA
BRANCH   9  10
ATOM     10  C   UNL     1      45.685   3.086   7.749  0.00  0.00    +0.000 A 
ATOM     11  C   UNL     1      46.133   1.834   8.142  0.00  0.00    +0.000 A 
ATOM     12  C   UNL     1      47.093   1.202   7.355  0.00  0.00    +0.000 A 
ATOM     13  C   UNL     1      47.570   1.841   6.215  0.00  0.00    +0.000 A 
ATOM     14  C   UNL     1      47.085   3.103   5.920  0.00  0.00    +0.000 A 
ATOM     15  N   UNL     1      46.170   3.746   6.672  0.00  0.00    +0.000 NA
ENDBRANCH   9  10
ENDBRANCH   6   9
ENDBRANCH   2   3
BRANCH   2  16
ATOM     16  N   UNL     1      47.176   6.527  13.575  0.00  0.00    +0.000 N 
ATOM     17  C   UNL     1      48.333   6.641  14.290  0.00  0.00    +0.000 C 
ATOM     18  O   UNL     1      48.608   5.915  15.240  0.00  0.00    +0.000 OA
ATOM     19  H   UNL     1      47.078   7.074  12.730  0.00  0.00    +0.000 HD
BRANCH  17  20
ATOM     20  C   UNL     1      49.209   7.745  13.875  0.00  0.00    +0.000 A 
ATOM     21  C   UNL     1      49.933   7.666  12.696  0.00  0.00    +0.000 A 
ATOM     22  S   UNL     1      50.916   9.033  12.413  0.00  0.00    +0.000 S 
ATOM     23  C   UNL     1      50.371   9.792  13.834  0.00  0.00    +0.000 A 
ATOM     24  N   UNL     1      50.812  11.027  14.186  0.00  0.00    +0.000 NA
ATOM     25  C   UNL     1      50.300  11.495  15.275  0.00  0.00    +0.000 A 
ATOM     26  N   UNL     1      49.378  10.844  16.068  0.00  0.00    +0.000 N 
ATOM     27  C   UNL     1      48.873  11.451  17.279  0.00  0.00    +0.000 C 
ATOM     28  C   UNL     1      48.923   9.570  15.752  0.00  0.00    +0.000 A 
ATOM     29  O   UNL     1      48.142   8.952  16.472  0.00  0.00    +0.000 OA
ATOM     30  C   UNL     1      49.469   9.011  14.525  0.00  0.00    +0.000 A 
ENDBRANCH  17  20
ENDBRANCH   2  16
TORSDOF 5
ENDMDL
MODEL 7
REMARK VINA RESULT:    -5.976      2.612      3.309
REMARK INTER + INTRA:          -8.853
REMARK INTER:                  -9.572
REMARK INTRA:                   0.720
REMARK UNBOUND:                -1.130
REMARK  Name = 
REMARK  7 active torsions:
REMARK  status: ('A' for Active; 'I' for Inactive)
REMARK    1  A    between atoms: C_1  and  C_2
REMARK    2  A    between atoms: C_2  and  N_3
REMARK    3  A    between atoms: C_2  and  C_17
REMARK    4  A    between atoms: C_4  and  C_6
REMARK    5  A    between atoms: N_12  and  C_13
REMARK    6  A    between atoms: C_20  and  O_21
REMARK    7  A    between atoms: O_21  and  C_22
REMARK                            x       y       z     vdW  Elec       q    Type
REMARK                         _______ _______ _______ _____ _____    ______ ____
ROOT
ATOM      1  C   UNL     1      43.010   4.896  13.547  0.00  0.00    +0.000 C 
ATOM      2  C   UNL     1      43.046   5.427  12.113  0.00  0.00    +0.000 C 
ENDROOT
BRANCH   2   3
ATOM      3  C   UNL     1      43.665   4.412  11.166  0.00  0.00    +0.000 A 
ATOM      4  C   UNL     1      44.493   4.857  10.129  0.00  0.00    +0.000 A 
ATOM      5  C   UNL     1      45.115   3.941   9.279  0.00  0.00    +0.000 A 
ATOM      6  C   UNL     1      44.967   2.568   9.484  0.00  0.00    +0.000 A 
ATOM      7  C   UNL     1      44.113   2.112  10.487  0.00  0.00    +0.000 A 
ATOM      8  C   UNL     1      43.465   3.028  11.321  0.00  0.00    +0.000 A 
BRANCH   6   9
ATOM      9  O   UNL     1      45.575   1.610   8.706  0.00  0.00    +0.000 OA
BRANCH   9  10
ATOM     10  C   UNL     1      46.284   2.030   7.585  0.00  0.00    +0.000 A 
ATOM     11  C   UNL     1      47.477   1.374   7.324  0.00  0.00    +0.000 A 
ATOM     12  C   UNL     1      48.192   1.738   6.186  0.00  0.00    +0.000 A 
ATOM     13  C   UNL     1      47.695   2.740   5.357  0.00  0.00    +0.000 A 
ATOM     14  C   UNL     1      46.510   3.359   5.716  0.00  0.00    +0.000 A 
ATOM     15  N   UNL     1      45.806   3.040   6.820  0.00  0.00    +0.000 NA
ENDBRANCH   9  10
ENDBRANCH   6   9
ENDBRANCH   2   3
BRANCH   2  16
ATOM     16  N   UNL     1      43.793   6.664  12.023  0.00  0.00    +0.000 N 
ATOM     17  C   UNL     1      45.022   6.876  12.578  0.00  0.00    +0.000 C 
ATOM     18  O   UNL     1      45.567   6.070  13.325  0.00  0.00    +0.000 OA
ATOM     19  H   UNL     1      43.467   7.313  11.319  0.00  0.00    +0.000 HD
BRANCH  17  20
ATOM     20  C   UNL     1      45.628   8.176  12.263  0.00  0.00    +0.000 A 
ATOM     21  C   UNL     1      44.846   9.318  12.182  0.00  0.00    +0.000 A 
ATOM     22  S   UNL     1      45.734  10.718  11.770  0.00  0.00    +0.000 S 
ATOM     23  C   UNL     1      47.196   9.851  11.732  0.00  0.00    +0.000 A 
ATOM     24  N   UNL     1      48.373  10.469  11.457  0.00  0.00    +0.000 NA
ATOM     25  C   UNL     1      49.409   9.697  11.484  0.00  0.00    +0.000 A 
ATOM     26  N   UNL     1      49.391   8.346  11.758  0.00  0.00    +0.000 N 
ATOM     27  C   UNL     1      50.608   7.566  11.752  0.00  0.00    +0.000 C 
ATOM     28  C   UNL     1      48.202   7.676  12.020  0.00  0.00    +0.000 A 
ATOM     29  O   UNL     1      48.158   6.464  12.216  0.00  0.00    +0.000 OA
ATOM     30  C   UNL     1      47.012   8.513  12.010  0.00  0.00    +0.000 A 
ENDBRANCH  17  20
ENDBRANCH   2  16
TORSDOF 5
ENDMDL
MODEL 8
REMARK VINA RESULT:    -5.874      3.980      8.526
REMARK INTER + INTRA:          -8.721
REMARK INTER:                  -7.919
REMARK INTRA:                  -0.802
REMARK UNBOUND:                -1.130
REMARK  Name = 
REMARK  7 active torsions:
REMARK  status: ('A' for Active; 'I' for Inactive)
REMARK    1  A    between atoms: C_1  and  C_2
REMARK    2  A    between atoms: C_2  and  N_3
REMARK    3  A    between atoms: C_2  and  C_17
REMARK    4  A    between atoms: C_4  and  C_6
REMARK    5  A    between atoms: N_12  and  C_13
REMARK    6  A    between atoms: C_20  and  O_21
REMARK    7  A    between atoms: O_21  and  C_22
REMARK                            x       y       z     vdW  Elec       q    Type
REMARK                         _______ _______ _______ _____ _____    ______ ____
ROOT
ATOM      1  C   UNL     1      49.803   8.950  13.853  0.00  0.00    +0.000 C 
ATOM      2  C   UNL     1      48.800   8.453  14.894  0.00  0.00    +0.000 C 
ENDROOT
BRANCH   2   3
ATOM      3  C   UNL     1      49.480   7.593  15.946  0.00  0.00    +0.000 A 
ATOM      4  C   UNL     1      48.744   7.154  17.053  0.00  0.00    +0.000 A 
ATOM      5  C   UNL     1      49.332   6.320  18.005  0.00  0.00    +0.000 A 
ATOM      6  C   UNL     1      50.642   5.866  17.841  0.00  0.00    +0.000 A 
ATOM      7  C   UNL     1      51.399   6.328  16.765  0.00  0.00    +0.000 A 
ATOM      8  C   UNL     1      50.822   7.188  15.825  0.00  0.00    +0.000 A 
BRANCH   6   9
ATOM      9  O   UNL     1      51.273   5.018  18.723  0.00  0.00    +0.000 OA
BRANCH   9  10
ATOM     10  C   UNL     1      51.538   3.718  18.304  0.00  0.00    +0.000 A 
ATOM     11  C   UNL     1      50.501   3.043  17.680  0.00  0.00    +0.000 A 
ATOM     12  C   UNL     1      50.743   1.755  17.209  0.00  0.00    +0.000 A 
ATOM     13  C   UNL     1      52.003   1.191  17.379  0.00  0.00    +0.000 A 
ATOM     14  C   UNL     1      52.968   1.930  18.041  0.00  0.00    +0.000 A 
ATOM     15  N   UNL     1      52.757   3.170  18.524  0.00  0.00    +0.000 NA
ENDBRANCH   9  10
ENDBRANCH   6   9
ENDBRANCH   2   3
BRANCH   2  16
ATOM     16  N   UNL     1      47.735   7.686  14.282  0.00  0.00    +0.000 N 
ATOM     17  C   UNL     1      47.919   6.613  13.460  0.00  0.00    +0.000 C 
ATOM     18  O   UNL     1      49.022   6.264  13.051  0.00  0.00    +0.000 OA
ATOM     19  H   UNL     1      46.816   7.834  14.679  0.00  0.00    +0.000 HD
BRANCH  17  20
ATOM     20  C   UNL     1      46.686   5.931  13.046  0.00  0.00    +0.000 A 
ATOM     21  C   UNL     1      46.499   4.585  13.316  0.00  0.00    +0.000 A 
ATOM     22  S   UNL     1      45.018   3.975  12.722  0.00  0.00    +0.000 S 
ATOM     23  C   UNL     1      44.561   5.500  12.128  0.00  0.00    +0.000 A 
ATOM     24  N   UNL     1      43.366   5.685  11.510  0.00  0.00    +0.000 NA
ATOM     25  C   UNL     1      43.135   6.897  11.129  0.00  0.00    +0.000 A 
ATOM     26  N   UNL     1      43.992   7.965  11.299  0.00  0.00    +0.000 N 
ATOM     27  C   UNL     1      43.645   9.286  10.824  0.00  0.00    +0.000 C 
ATOM     28  C   UNL     1      45.233   7.808  11.905  0.00  0.00    +0.000 A 
ATOM     29  O   UNL     1      46.031   8.734  12.020  0.00  0.00    +0.000 OA
ATOM     30  C   UNL     1      45.527   6.457  12.359  0.00  0.00    +0.000 A 
ENDBRANCH  17  20
ENDBRANCH   2  16
TORSDOF 5
ENDMDL
MODEL 9
REMARK VINA RESULT:    -5.708      3.215      4.813
REMARK INTER + INTRA:          -8.507
REMARK INTER:                  -7.957
REMARK INTRA:                  -0.550
REMARK UNBOUND:                -1.130
REMARK  Name = 
REMARK  7 active torsions:
REMARK  status: ('A' for Active; 'I' for Inactive)
REMARK    1  A    between atoms: C_1  and  C_2
REMARK    2  A    between atoms: C_2  and  N_3
REMARK    3  A    between atoms: C_2  and  C_17
REMARK    4  A    between atoms: C_4  and  C_6
REMARK    5  A    between atoms: N_12  and  C_13
REMARK    6  A    between atoms: C_20  and  O_21
REMARK    7  A    between atoms: O_21  and  C_22
REMARK                            x       y       z     vdW  Elec       q    Type
REMARK                         _______ _______ _______ _____ _____    ______ ____
ROOT
ATOM      1  C   UNL     1      49.691  10.044  12.252  0.00  0.00    +0.000 C 
ATOM      2  C   UNL     1      49.571   8.522  12.169  0.00  0.00    +0.000 C 
ENDROOT
BRANCH   2   3
ATOM      3  C   UNL     1      48.116   8.090  12.092  0.00  0.00    +0.000 A 
ATOM      4  C   UNL     1      47.109   9.062  12.121  0.00  0.00    +0.000 A 
ATOM      5  C   UNL     1      45.768   8.693  11.999  0.00  0.00    +0.000 A 
ATOM      6  C   UNL     1      45.414   7.360  11.788  0.00  0.00    +0.000 A 
ATOM      7  C   UNL     1      46.403   6.377  11.798  0.00  0.00    +0.000 A 
ATOM      8  C   UNL     1      47.745   6.740  11.950  0.00  0.00    +0.000 A 
BRANCH   6   9
ATOM      9  O   UNL     1      44.116   6.930  11.627  0.00  0.00    +0.000 OA
BRANCH   9  10
ATOM     10  C   UNL     1      43.864   5.565  11.705  0.00  0.00    +0.000 A 
ATOM     11  C   UNL     1      43.922   4.854  10.517  0.00  0.00    +0.000 A 
ATOM     12  C   UNL     1      43.717   3.477  10.563  0.00  0.00    +0.000 A 
ATOM     13  C   UNL     1      43.462   2.865  11.786  0.00  0.00    +0.000 A 
ATOM     14  C   UNL     1      43.394   3.661  12.916  0.00  0.00    +0.000 A 
ATOM     15  N   UNL     1      43.569   4.997  12.899  0.00  0.00    +0.000 NA
ENDBRANCH   9  10
ENDBRANCH   6   9
ENDBRANCH   2   3
BRANCH   2  16
ATOM     16  N   UNL     1      50.189   7.877  13.308  0.00  0.00    +0.000 N 
ATOM     17  C   UNL     1      49.925   8.178  14.613  0.00  0.00    +0.000 C 
ATOM     18  O   UNL     1      49.222   9.124  14.954  0.00  0.00    +0.000 OA
ATOM     19  H   UNL     1      50.669   7.010  13.103  0.00  0.00    +0.000 HD
BRANCH  17  20
ATOM     20  C   UNL     1      50.597   7.315  15.595  0.00  0.00    +0.000 A 
ATOM     21  C   UNL     1      51.902   7.571  15.983  0.00  0.00    +0.000 A 
ATOM     22  S   UNL     1      52.511   6.435  17.103  0.00  0.00    +0.000 S 
ATOM     23  C   UNL     1      51.034   5.593  17.139  0.00  0.00    +0.000 A 
ATOM     24  N   UNL     1      50.866   4.502  17.930  0.00  0.00    +0.000 NA
ATOM     25  C   UNL     1      49.689   3.973  17.879  0.00  0.00    +0.000 A 
ATOM     26  N   UNL     1      48.643   4.425  17.101  0.00  0.00    +0.000 N 
ATOM     27  C   UNL     1      47.363   3.752  17.106  0.00  0.00    +0.000 C 
ATOM     28  C   UNL     1      48.787   5.522  16.261  0.00  0.00    +0.000 A 
ATOM     29  O   UNL     1      47.885   5.909  15.523  0.00  0.00    +0.000 OA
ATOM     30  C   UNL     1      50.097   6.155  16.298  0.00  0.00    +0.000 A 
ENDBRANCH  17  20
ENDBRANCH   2  16
TORSDOF 5
ENDMDL
