MODEL 1
REMARK VINA RESULT:    -8.644      0.000      0.000
REMARK INTER + INTRA:         -13.262
REMARK INTER:                 -12.182
REMARK INTRA:                  -1.080
REMARK UNBOUND:                -1.080
REMARK  Name = 
REMARK  8 active torsions:
REMARK  status: ('A' for Active; 'I' for Inactive)
REMARK    1  A    between atoms: C_1  and  O_2
REMARK    2  A    between atoms: O_2  and  C_3
REMARK    3  A    between atoms: C_10  and  C_11
REMARK    4  A    between atoms: N_13  and  C_14
REMARK    5  A    between atoms: C_14  and  C_15
REMARK    6  A    between atoms: C_18  and  N_19
REMARK    7  A    between atoms: N_19  and  C_20
REMARK    8  A    between atoms: C_20  and  C_21
REMARK                            x       y       z     vdW  Elec       q    Type
REMARK                         _______ _______ _______ _____ _____    ______ ____
ROOT
ATOM      1  C   UNL     1      47.169   8.189  13.385  0.00  0.00    +0.000 C 
ENDROOT
BRANCH   1   2
ATOM      2  C   UNL     1      46.307   7.443  12.403  0.00  0.00    +0.000 A 
ATOM      3  C   UNL     1      46.878   6.706  11.360  0.00  0.00    +0.000 A 
ATOM      4  C   UNL     1      46.085   5.878  10.555  0.00  0.00    +0.000 A 
ATOM      5  C   UNL     1      44.711   5.756  10.786  0.00  0.00    +0.000 A 
ATOM      6  C   UNL     1      44.128   6.606  11.730  0.00  0.00    +0.000 A 
ATOM      7  C   UNL     1      44.914   7.431  12.542  0.00  0.00    +0.000 A 
BRANCH   5   8
ATOM      8  N   UNL     1      43.873   4.875  10.087  0.00  0.00    +0.000 N 
ATOM      9  H   UNL     1      43.719   5.203   9.136  0.00  0.00    +0.000 HD
BRANCH   8  10
ATOM     10  C   UNL     1      44.225   3.457  10.120  0.00  0.00    +0.000 C 
BRANCH  10  11
ATOM     11  C   UNL     1      45.089   3.062   8.938  0.00  0.00    +0.000 A 
ATOM     12  C   UNL     1      45.393   4.022   7.958  0.00  0.00    +0.000 A 
ATOM     13  C   UNL     1      46.269   3.724   6.911  0.00  0.00    +0.000 A 
ATOM     14  C   UNL     1      46.857   2.464   6.836  0.00  0.00    +0.000 A 
ATOM     15 CL   UNL     1      47.948   2.104   5.556  0.00  0.00    +0.000 Cl
ATOM     16  C   UNL     1      46.578   1.500   7.801  0.00  0.00    +0.000 A 
ATOM     17  C   UNL     1      45.703   1.801   8.852  0.00  0.00    +0.000 A 
ENDBRANCH  10  11
ENDBRANCH   8  10
ENDBRANCH   5   8
ENDBRANCH   1   2
BRANCH   1  20
ATOM     18  C   UNL     1      48.747   6.852  14.673  0.00  0.00    +0.000 C 
ATOM     19  O   UNL     1      49.595   6.997  13.796  0.00  0.00    +0.000 OA
ATOM     20  N   UNL     1      47.502   7.411  14.548  0.00  0.00    +0.000 N 
ATOM     21  H   UNL     1      46.803   7.293  15.269  0.00  0.00    +0.000 HD
BRANCH  18  29
ATOM     22  C   UNL     1      47.260   4.135  16.186  0.00  0.00    +0.000 A 
ATOM     23  N   UNL     1      46.862   3.137  17.001  0.00  0.00    +0.000 NA
ATOM     24  C   UNL     1      47.573   2.909  18.110  0.00  0.00    +0.000 A 
ATOM     25  N   UNL     1      48.658   3.563  18.512  0.00  0.00    +0.000 NA
ATOM     26  C   UNL     1      49.010   4.559  17.681  0.00  0.00    +0.000 A 
ATOM     27  S   UNL     1      50.378   5.497  18.037  0.00  0.00    +0.000 S 
ATOM     28  C   UNL     1      50.147   6.445  16.648  0.00  0.00    +0.000 A 
ATOM     29  C   UNL     1      49.041   6.077  15.889  0.00  0.00    +0.000 A 
ATOM     30  C   UNL     1      48.370   4.935  16.502  0.00  0.00    +0.000 A 
BRANCH  22  32
ATOM     31  C   UNL     1      47.061   3.669  13.906  0.00  0.00    +0.000 C 
ATOM     32  O   UNL     1      46.531   4.362  15.035  0.00  0.00    +0.000 OA
ENDBRANCH  22  32
ENDBRANCH  18  29
ENDBRANCH   1  20
TORSDOF 7
ENDMDL
MODEL 2
REMARK VINA RESULT:    -8.240      1.757      2.263
REMARK INTER + INTRA:         -12.692
REMARK INTER:                 -11.455
REMARK INTRA:                  -1.237
REMARK UNBOUND:                -1.080
REMARK  Name = 
REMARK  8 active torsions:
REMARK  status: ('A' for Active; 'I' for Inactive)
REMARK    1  A    between atoms: C_1  and  O_2
REMARK    2  A    between atoms: O_2  and  C_3
REMARK    3  A    between atoms: C_10  and  C_11
REMARK    4  A    between atoms: N_13  and  C_14
REMARK    5  A    between atoms: C_14  and  C_15
REMARK    6  A    between atoms: C_18  and  N_19
REMARK    7  A    between atoms: N_19  and  C_20
REMARK    8  A    between atoms: C_20  and  C_21
REMARK                            x       y       z     vdW  Elec       q    Type
REMARK                         _______ _______ _______ _____ _____    ______ ____
ROOT
ATOM      1  C   UNL     1      47.862   7.011  13.726  0.00  0.00    +0.000 C 
ENDROOT
BRANCH   1   2
ATOM      2  C   UNL     1      46.897   5.961  13.247  0.00  0.00    +0.000 A 
ATOM      3  C   UNL     1      45.857   6.287  12.369  0.00  0.00    +0.000 A 
ATOM      4  C   UNL     1      45.069   5.282  11.794  0.00  0.00    +0.000 A 
ATOM      5  C   UNL     1      45.314   3.932  12.069  0.00  0.00    +0.000 A 
ATOM      6  C   UNL     1      46.254   3.626  13.057  0.00  0.00    +0.000 A 
ATOM      7  C   UNL     1      47.049   4.624  13.632  0.00  0.00    +0.000 A 
BRANCH   5   8
ATOM      8  N   UNL     1      44.633   2.870  11.456  0.00  0.00    +0.000 N 
ATOM      9  H   UNL     1      43.977   2.441  12.105  0.00  0.00    +0.000 HD
BRANCH   8  10
ATOM     10  C   UNL     1      44.015   3.138  10.159  0.00  0.00    +0.000 C 
BRANCH  10  11
ATOM     11  C   UNL     1      44.971   2.871   9.012  0.00  0.00    +0.000 A 
ATOM     12  C   UNL     1      45.425   3.947   8.231  0.00  0.00    +0.000 A 
ATOM     13  C   UNL     1      46.385   3.753   7.234  0.00  0.00    +0.000 A 
ATOM     14  C   UNL     1      46.908   2.482   7.013  0.00  0.00    +0.000 A 
ATOM     15 CL   UNL     1      48.102   2.248   5.797  0.00  0.00    +0.000 Cl
ATOM     16  C   UNL     1      46.481   1.402   7.781  0.00  0.00    +0.000 A 
ATOM     17  C   UNL     1      45.522   1.599   8.782  0.00  0.00    +0.000 A 
ENDBRANCH  10  11
ENDBRANCH   8  10
ENDBRANCH   5   8
ENDBRANCH   1   2
BRANCH   1  20
ATOM     18  C   UNL     1      49.084   6.921  15.833  0.00  0.00    +0.000 C 
ATOM     19  O   UNL     1      50.114   6.633  15.231  0.00  0.00    +0.000 OA
ATOM     20  N   UNL     1      47.907   7.124  15.160  0.00  0.00    +0.000 N 
ATOM     21  H   UNL     1      47.058   7.361  15.654  0.00  0.00    +0.000 HD
BRANCH  18  29
ATOM     22  C   UNL     1      48.806   4.688  18.445  0.00  0.00    +0.000 A 
ATOM     23  N   UNL     1      48.669   4.060  19.630  0.00  0.00    +0.000 NA
ATOM     24  C   UNL     1      48.696   4.802  20.742  0.00  0.00    +0.000 A 
ATOM     25  N   UNL     1      48.851   6.120  20.819  0.00  0.00    +0.000 NA
ATOM     26  C   UNL     1      48.967   6.708  19.617  0.00  0.00    +0.000 A 
ATOM     27  S   UNL     1      49.178   8.389  19.528  0.00  0.00    +0.000 S 
ATOM     28  C   UNL     1      49.220   8.340  17.832  0.00  0.00    +0.000 A 
ATOM     29  C   UNL     1      49.077   7.064  17.298  0.00  0.00    +0.000 A 
ATOM     30  C   UNL     1      48.942   6.085  18.371  0.00  0.00    +0.000 A 
BRANCH  22  32
ATOM     31  C   UNL     1      47.517   3.323  17.055  0.00  0.00    +0.000 C 
ATOM     32  O   UNL     1      48.790   3.919  17.298  0.00  0.00    +0.000 OA
ENDBRANCH  22  32
ENDBRANCH  18  29
ENDBRANCH   1  20
TORSDOF 7
ENDMDL
MODEL 3
REMARK VINA RESULT:    -7.802      2.242      2.893
REMARK INTER + INTRA:         -12.075
REMARK INTER:                 -10.901
REMARK INTRA:                  -1.174
REMARK UNBOUND:                -1.080
REMARK  Name = 
REMARK  8 active torsions:
REMARK  status: ('A' for Active; 'I' for Inactive)
REMARK    1  A    between atoms: C_1  and  O_2
REMARK    2  A    between atoms: O_2  and  C_3
REMARK    3  A    between atoms: C_10  and  C_11
REMARK    4  A    between atoms: N_13  and  C_14
REMARK    5  A    between atoms: C_14  and  C_15
REMARK    6  A    between atoms: C_18  and  N_19
REMARK    7  A    between atoms: N_19  and  C_20
REMARK    8  A    between atoms: C_20  and  C_21
REMARK                            x       y       z     vdW  Elec       q    Type
REMARK                         _______ _______ _______ _____ _____    ______ ____
ROOT
ATOM      1  C   UNL     1      47.873   7.897  13.876  0.00  0.00    +0.000 C 
ENDROOT
BRANCH   1   2
ATOM      2  C   UNL     1      46.767   7.268  13.073  0.00  0.00    +0.000 A 
ATOM      3  C   UNL     1      45.759   8.051  12.499  0.00  0.00    +0.000 A 
ATOM      4  C   UNL     1      44.833   7.484  11.615  0.00  0.00    +0.000 A 
ATOM      5  C   UNL     1      44.904   6.130  11.272  0.00  0.00    +0.000 A 
ATOM      6  C   UNL     1      45.819   5.327  11.961  0.00  0.00    +0.000 A 
ATOM      7  C   UNL     1      46.751   5.888  12.841  0.00  0.00    +0.000 A 
BRANCH   5   8
ATOM      8  N   UNL     1      44.076   5.516  10.321  0.00  0.00    +0.000 N 
ATOM      9  H   UNL     1      44.259   5.887   9.391  0.00  0.00    +0.000 HD
BRANCH   8  10
ATOM     10  C   UNL     1      44.034   4.055  10.321  0.00  0.00    +0.000 C 
BRANCH  10  11
ATOM     11  C   UNL     1      44.914   3.464   9.236  0.00  0.00    +0.000 A 
ATOM     12  C   UNL     1      45.584   4.326   8.351  0.00  0.00    +0.000 A 
ATOM     13  C   UNL     1      46.484   3.824   7.406  0.00  0.00    +0.000 A 
ATOM     14  C   UNL     1      46.729   2.455   7.342  0.00  0.00    +0.000 A 
ATOM     15 CL   UNL     1      47.849   1.840   6.190  0.00  0.00    +0.000 Cl
ATOM     16  C   UNL     1      46.085   1.583   8.215  0.00  0.00    +0.000 A 
ATOM     17  C   UNL     1      45.188   2.088   9.164  0.00  0.00    +0.000 A 
ENDBRANCH  10  11
ENDBRANCH   8  10
ENDBRANCH   5   8
ENDBRANCH   1   2
BRANCH   1  20
ATOM     18  C   UNL     1      49.015   6.828  15.744  0.00  0.00    +0.000 C 
ATOM     19  O   UNL     1      50.000   6.632  15.039  0.00  0.00    +0.000 OA
ATOM     20  N   UNL     1      47.902   7.451  15.243  0.00  0.00    +0.000 N 
ATOM     21  H   UNL     1      47.090   7.614  15.822  0.00  0.00    +0.000 HD
BRANCH  18  29
ATOM     22  C   UNL     1      47.957   8.318  18.667  0.00  0.00    +0.000 A 
ATOM     23  N   UNL     1      47.680   8.671  19.939  0.00  0.00    +0.000 NA
ATOM     24  C   UNL     1      47.958   7.795  20.910  0.00  0.00    +0.000 A 
ATOM     25  N   UNL     1      48.484   6.583  20.766  0.00  0.00    +0.000 NA
ATOM     26  C   UNL     1      48.760   6.278  19.487  0.00  0.00    +0.000 A 
ATOM     27  S   UNL     1      49.432   4.764  19.118  0.00  0.00    +0.000 S 
ATOM     28  C   UNL     1      49.482   5.139  17.463  0.00  0.00    +0.000 A 
ATOM     29  C   UNL     1      48.997   6.405  17.154  0.00  0.00    +0.000 A 
ATOM     30  C   UNL     1      48.548   7.079  18.368  0.00  0.00    +0.000 A 
BRANCH  22  32
ATOM     31  C   UNL     1      48.657  10.226  17.517  0.00  0.00    +0.000 C 
ATOM     32  O   UNL     1      47.658   9.219  17.665  0.00  0.00    +0.000 OA
ENDBRANCH  22  32
ENDBRANCH  18  29
ENDBRANCH   1  20
TORSDOF 7
ENDMDL
MODEL 4
REMARK VINA RESULT:    -7.524      2.302      2.695
REMARK INTER + INTRA:         -11.683
REMARK INTER:                 -10.424
REMARK INTRA:                  -1.259
REMARK UNBOUND:                -1.080
REMARK  Name = 
REMARK  8 active torsions:
REMARK  status: ('A' for Active; 'I' for Inactive)
REMARK    1  A    between atoms: C_1  and  O_2
REMARK    2  A    between atoms: O_2  and  C_3
REMARK    3  A    between atoms: C_10  and  C_11
REMARK    4  A    between atoms: N_13  and  C_14
REMARK    5  A    between atoms: C_14  and  C_15
REMARK    6  A    between atoms: C_18  and  N_19
REMARK    7  A    between atoms: N_19  and  C_20
REMARK    8  A    between atoms: C_20  and  C_21
REMARK                            x       y       z     vdW  Elec       q    Type
REMARK                         _______ _______ _______ _____ _____    ______ ____
ROOT
ATOM      1  C   UNL     1      47.670   8.800  13.558  0.00  0.00    +0.000 C 
ENDROOT
BRANCH   1   2
ATOM      2  C   UNL     1      46.822   7.744  12.902  0.00  0.00    +0.000 A 
ATOM      3  C   UNL     1      47.228   6.405  12.883  0.00  0.00    +0.000 A 
ATOM      4  C   UNL     1      46.361   5.404  12.425  0.00  0.00    +0.000 A 
ATOM      5  C   UNL     1      45.067   5.717  11.995  0.00  0.00    +0.000 A 
ATOM      6  C   UNL     1      44.725   7.068  11.879  0.00  0.00    +0.000 A 
ATOM      7  C   UNL     1      45.583   8.072  12.339  0.00  0.00    +0.000 A 
BRANCH   5   8
ATOM      8  N   UNL     1      44.112   4.761  11.618  0.00  0.00    +0.000 N 
ATOM      9  H   UNL     1      43.294   4.814  12.220  0.00  0.00    +0.000 HD
BRANCH   8  10
ATOM     10  C   UNL     1      43.742   4.714  10.205  0.00  0.00    +0.000 C 
BRANCH  10  11
ATOM     11  C   UNL     1      44.724   3.892   9.392  0.00  0.00    +0.000 A 
ATOM     12  C   UNL     1      44.720   2.493   9.518  0.00  0.00    +0.000 A 
ATOM     13  C   UNL     1      45.537   1.698   8.710  0.00  0.00    +0.000 A 
ATOM     14  C   UNL     1      46.362   2.294   7.760  0.00  0.00    +0.000 A 
ATOM     15 CL   UNL     1      47.355   1.313   6.754  0.00  0.00    +0.000 Cl
ATOM     16  C   UNL     1      46.376   3.678   7.610  0.00  0.00    +0.000 A 
ATOM     17  C   UNL     1      45.553   4.472   8.417  0.00  0.00    +0.000 A 
ENDBRANCH  10  11
ENDBRANCH   8  10
ENDBRANCH   5   8
ENDBRANCH   1   2
BRANCH   1  20
ATOM     18  C   UNL     1      48.491   8.440  15.824  0.00  0.00    +0.000 C 
ATOM     19  O   UNL     1      49.546   7.999  15.379  0.00  0.00    +0.000 OA
ATOM     20  N   UNL     1      47.493   8.860  14.984  0.00  0.00    +0.000 N 
ATOM     21  H   UNL     1      46.623   9.224  15.349  0.00  0.00    +0.000 HD
BRANCH  18  29
ATOM     22  C   UNL     1      48.446   6.139  18.390  0.00  0.00    +0.000 A 
ATOM     23  N   UNL     1      48.320   5.464  19.551  0.00  0.00    +0.000 NA
ATOM     24  C   UNL     1      48.020   6.160  20.652  0.00  0.00    +0.000 A 
ATOM     25  N   UNL     1      47.832   7.473  20.742  0.00  0.00    +0.000 NA
ATOM     26  C   UNL     1      47.950   8.103  19.562  0.00  0.00    +0.000 A 
ATOM     27  S   UNL     1      47.747   9.786  19.491  0.00  0.00    +0.000 S 
ATOM     28  C   UNL     1      48.015   9.795  17.815  0.00  0.00    +0.000 A 
ATOM     29  C   UNL     1      48.262   8.537  17.275  0.00  0.00    +0.000 A 
ATOM     30  C   UNL     1      48.240   7.527  18.327  0.00  0.00    +0.000 A 
BRANCH  22  32
ATOM     31  C   UNL     1      47.659   4.687  16.738  0.00  0.00    +0.000 C 
ATOM     32  O   UNL     1      48.768   5.420  17.255  0.00  0.00    +0.000 OA
ENDBRANCH  22  32
ENDBRANCH  18  29
ENDBRANCH   1  20
TORSDOF 7
ENDMDL
MODEL 5
REMARK VINA RESULT:    -7.362      2.890      3.882
REMARK INTER + INTRA:         -11.454
REMARK INTER:                 -10.031
REMARK INTRA:                  -1.423
REMARK UNBOUND:                -1.080
REMARK  Name = 
REMARK  8 active torsions:
REMARK  status: ('A' for Active; 'I' for Inactive)
REMARK    1  A    between atoms: C_1  and  O_2
REMARK    2  A    between atoms: O_2  and  C_3
REMARK    3  A    between atoms: C_10  and  C_11
REMARK    4  A    between atoms: N_13  and  C_14
REMARK    5  A    between atoms: C_14  and  C_15
REMARK    6  A    between atoms: C_18  and  N_19
REMARK    7  A    between atoms: N_19  and  C_20
REMARK    8  A    between atoms: C_20  and  C_21
REMARK                            x       y       z     vdW  Elec       q    Type
REMARK                         _______ _______ _______ _____ _____    ______ ____
ROOT
ATOM      1  C   UNL     1      48.001   5.095  15.110  0.00  0.00    +0.000 C 
ENDROOT
BRANCH   1   2
ATOM      2  C   UNL     1      46.981   4.805  14.043  0.00  0.00    +0.000 A 
ATOM      3  C   UNL     1      46.740   3.494  13.615  0.00  0.00    +0.000 A 
ATOM      4  C   UNL     1      45.676   3.211  12.749  0.00  0.00    +0.000 A 
ATOM      5  C   UNL     1      44.820   4.226  12.309  0.00  0.00    +0.000 A 
ATOM      6  C   UNL     1      45.155   5.547  12.622  0.00  0.00    +0.000 A 
ATOM      7  C   UNL     1      46.214   5.837  13.491  0.00  0.00    +0.000 A 
BRANCH   5   8
ATOM      8  N   UNL     1      43.678   4.006  11.525  0.00  0.00    +0.000 N 
ATOM      9  H   UNL     1      42.837   4.277  12.029  0.00  0.00    +0.000 HD
BRANCH   8  10
ATOM     10  C   UNL     1      43.691   4.544  10.166  0.00  0.00    +0.000 C 
BRANCH  10  11
ATOM     11  C   UNL     1      44.600   3.745   9.251  0.00  0.00    +0.000 A 
ATOM     12  C   UNL     1      45.489   4.425   8.402  0.00  0.00    +0.000 A 
ATOM     13  C   UNL     1      46.412   3.722   7.622  0.00  0.00    +0.000 A 
ATOM     14  C   UNL     1      46.462   2.333   7.690  0.00  0.00    +0.000 A 
ATOM     15 CL   UNL     1      47.610   1.471   6.742  0.00  0.00    +0.000 Cl
ATOM     16  C   UNL     1      45.598   1.639   8.533  0.00  0.00    +0.000 A 
ATOM     17  C   UNL     1      44.677   2.344   9.316  0.00  0.00    +0.000 A 
ENDBRANCH  10  11
ENDBRANCH   8  10
ENDBRANCH   5   8
ENDBRANCH   1   2
BRANCH   1  20
ATOM     18  C   UNL     1      49.037   7.258  15.542  0.00  0.00    +0.000 C 
ATOM     19  O   UNL     1      50.098   6.851  15.078  0.00  0.00    +0.000 OA
ATOM     20  N   UNL     1      47.935   6.445  15.602  0.00  0.00    +0.000 N 
ATOM     21  H   UNL     1      47.060   6.778  15.984  0.00  0.00    +0.000 HD
BRANCH  18  29
ATOM     22  C   UNL     1      47.737   8.631  18.425  0.00  0.00    +0.000 A 
ATOM     23  N   UNL     1      47.265   9.424  19.409  0.00  0.00    +0.000 NA
ATOM     24  C   UNL     1      47.409  10.746  19.273  0.00  0.00    +0.000 A 
ATOM     25  N   UNL     1      47.982  11.388  18.261  0.00  0.00    +0.000 NA
ATOM     26  C   UNL     1      48.423  10.563  17.296  0.00  0.00    +0.000 A 
ATOM     27  S   UNL     1      49.188  11.213  15.929  0.00  0.00    +0.000 S 
ATOM     28  C   UNL     1      49.405   9.668  15.259  0.00  0.00    +0.000 A 
ATOM     29  C   UNL     1      48.910   8.635  16.047  0.00  0.00    +0.000 A 
ATOM     30  C   UNL     1      48.336   9.173  17.276  0.00  0.00    +0.000 A 
BRANCH  22  32
ATOM     31  C   UNL     1      48.682   6.678  19.292  0.00  0.00    +0.000 C 
ATOM     32  O   UNL     1      47.599   7.265  18.572  0.00  0.00    +0.000 OA
ENDBRANCH  22  32
ENDBRANCH  18  29
ENDBRANCH   1  20
TORSDOF 7
ENDMDL
MODEL 6
REMARK VINA RESULT:    -6.973      2.478      3.715
REMARK INTER + INTRA:         -10.907
REMARK INTER:                  -9.694
REMARK INTRA:                  -1.212
REMARK UNBOUND:                -1.080
REMARK  Name = 
REMARK  8 active torsions:
REMARK  status: ('A' for Active; 'I' for Inactive)
REMARK    1  A    between atoms: C_1  and  O_2
REMARK    2  A    between atoms: O_2  and  C_3
REMARK    3  A    between atoms: C_10  and  C_11
REMARK    4  A    between atoms: N_13  and  C_14
REMARK    5  A    between atoms: C_14  and  C_15
REMARK    6  A    between atoms: C_18  and  N_19
REMARK    7  A    between atoms: N_19  and  C_20
REMARK    8  A    between atoms: C_20  and  C_21
REMARK                            x       y       z     vdW  Elec       q    Type
REMARK                         _______ _______ _______ _____ _____    ______ ____
ROOT
ATOM      1  C   UNL     1      48.760   7.643  13.442  0.00  0.00    +0.000 C 
ENDROOT
BRANCH   1   2
ATOM      2  C   UNL     1      47.663   6.783  12.876  0.00  0.00    +0.000 A 
ATOM      3  C   UNL     1      47.417   5.503  13.385  0.00  0.00    +0.000 A 
ATOM      4  C   UNL     1      46.292   4.777  12.973  0.00  0.00    +0.000 A 
ATOM      5  C   UNL     1      45.382   5.320  12.060  0.00  0.00    +0.000 A 
ATOM      6  C   UNL     1      45.714   6.533  11.448  0.00  0.00    +0.000 A 
ATOM      7  C   UNL     1      46.833   7.266  11.858  0.00  0.00    +0.000 A 
BRANCH   5   8
ATOM      8  N   UNL     1      44.186   4.696  11.678  0.00  0.00    +0.000 N 
ATOM      9  H   UNL     1      43.416   5.001  12.269  0.00  0.00    +0.000 HD
BRANCH   8  10
ATOM     10  C   UNL     1      43.833   4.746  10.261  0.00  0.00    +0.000 C 
BRANCH  10  11
ATOM     11  C   UNL     1      44.774   3.910   9.415  0.00  0.00    +0.000 A 
ATOM     12  C   UNL     1      44.769   2.512   9.560  0.00  0.00    +0.000 A 
ATOM     13  C   UNL     1      45.546   1.703   8.726  0.00  0.00    +0.000 A 
ATOM     14  C   UNL     1      46.330   2.282   7.732  0.00  0.00    +0.000 A 
ATOM     15 CL   UNL     1      47.272   1.284   6.695  0.00  0.00    +0.000 Cl
ATOM     16  C   UNL     1      46.343   3.664   7.563  0.00  0.00    +0.000 A 
ATOM     17  C   UNL     1      45.561   4.473   8.397  0.00  0.00    +0.000 A 
ENDBRANCH  10  11
ENDBRANCH   8  10
ENDBRANCH   5   8
ENDBRANCH   1   2
BRANCH   1  20
ATOM     18  C   UNL     1      49.510   7.063  15.687  0.00  0.00    +0.000 C 
ATOM     19  O   UNL     1      48.656   7.801  16.171  0.00  0.00    +0.000 OA
ATOM     20  N   UNL     1      49.637   6.927  14.330  0.00  0.00    +0.000 N 
ATOM     21  H   UNL     1      50.340   6.319  13.930  0.00  0.00    +0.000 HD
BRANCH  18  29
ATOM     22  C   UNL     1      52.942   6.807  15.892  0.00  0.00    +0.000 A 
ATOM     23  N   UNL     1      54.224   6.481  16.156  0.00  0.00    +0.000 NA
ATOM     24  C   UNL     1      54.460   5.591  17.124  0.00  0.00    +0.000 A 
ATOM     25  N   UNL     1      53.558   4.976  17.883  0.00  0.00    +0.000 NA
ATOM     26  C   UNL     1      52.295   5.315  17.577  0.00  0.00    +0.000 A 
ATOM     27  S   UNL     1      51.012   4.629  18.450  0.00  0.00    +0.000 S 
ATOM     28  C   UNL     1      49.868   5.481  17.529  0.00  0.00    +0.000 A 
ATOM     29  C   UNL     1      50.424   6.296  16.549  0.00  0.00    +0.000 A 
ATOM     30  C   UNL     1      51.880   6.208  16.591  0.00  0.00    +0.000 A 
BRANCH  22  32
ATOM     31  C   UNL     1      53.764   8.674  14.756  0.00  0.00    +0.000 C 
ATOM     32  O   UNL     1      52.700   7.735  14.900  0.00  0.00    +0.000 OA
ENDBRANCH  22  32
ENDBRANCH  18  29
ENDBRANCH   1  20
TORSDOF 7
ENDMDL
MODEL 7
REMARK VINA RESULT:    -6.955      5.017      9.156
REMARK INTER + INTRA:         -10.880
REMARK INTER:                  -9.839
REMARK INTRA:                  -1.041
REMARK UNBOUND:                -1.080
REMARK  Name = 
REMARK  8 active torsions:
REMARK  status: ('A' for Active; 'I' for Inactive)
REMARK    1  A    between atoms: C_1  and  O_2
REMARK    2  A    between atoms: O_2  and  C_3
REMARK    3  A    between atoms: C_10  and  C_11
REMARK    4  A    between atoms: N_13  and  C_14
REMARK    5  A    between atoms: C_14  and  C_15
REMARK    6  A    between atoms: C_18  and  N_19
REMARK    7  A    between atoms: N_19  and  C_20
REMARK    8  A    between atoms: C_20  and  C_21
REMARK                            x       y       z     vdW  Elec       q    Type
REMARK                         _______ _______ _______ _____ _____    ______ ____
ROOT
ATOM      1  C   UNL     1      47.446   3.491  16.884  0.00  0.00    +0.000 C 
ENDROOT
BRANCH   1   2
ATOM      2  C   UNL     1      48.922   3.334  17.127  0.00  0.00    +0.000 A 
ATOM      3  C   UNL     1      49.683   4.390  17.640  0.00  0.00    +0.000 A 
ATOM      4  C   UNL     1      51.015   4.188  18.023  0.00  0.00    +0.000 A 
ATOM      5  C   UNL     1      51.608   2.926  17.920  0.00  0.00    +0.000 A 
ATOM      6  C   UNL     1      50.890   1.916  17.272  0.00  0.00    +0.000 A 
ATOM      7  C   UNL     1      49.557   2.109  16.891  0.00  0.00    +0.000 A 
BRANCH   5   8
ATOM      8  N   UNL     1      52.900   2.625  18.375  0.00  0.00    +0.000 N 
ATOM      9  H   UNL     1      52.877   1.861  19.045  0.00  0.00    +0.000 HD
BRANCH   8  10
ATOM     10  C   UNL     1      53.932   2.423  17.359  0.00  0.00    +0.000 C 
BRANCH  10  11
ATOM     11  C   UNL     1      54.414   0.985  17.323  0.00  0.00    +0.000 A 
ATOM     12  C   UNL     1      54.059   0.115  18.368  0.00  0.00    +0.000 A 
ATOM     13  C   UNL     1      54.397  -1.240  18.317  0.00  0.00    +0.000 A 
ATOM     14  C   UNL     1      55.086  -1.742  17.216  0.00  0.00    +0.000 A 
ATOM     15 CL   UNL     1      55.486  -3.414  17.147  0.00  0.00    +0.000 Cl
ATOM     16  C   UNL     1      55.439  -0.901  16.165  0.00  0.00    +0.000 A 
ATOM     17  C   UNL     1      55.097   0.456  16.215  0.00  0.00    +0.000 A 
ENDBRANCH  10  11
ENDBRANCH   8  10
ENDBRANCH   5   8
ENDBRANCH   1   2
BRANCH   1  20
ATOM     18  C   UNL     1      47.039   4.314  14.626  0.00  0.00    +0.000 C 
ATOM     19  O   UNL     1      47.225   3.187  14.175  0.00  0.00    +0.000 OA
ATOM     20  N   UNL     1      47.135   4.558  15.971  0.00  0.00    +0.000 N 
ATOM     21  H   UNL     1      46.982   5.485  16.345  0.00  0.00    +0.000 HD
BRANCH  18  29
ATOM     22  C   UNL     1      44.280   5.106  12.718  0.00  0.00    +0.000 A 
ATOM     23  N   UNL     1      43.378   5.626  11.861  0.00  0.00    +0.000 NA
ATOM     24  C   UNL     1      43.686   6.770  11.242  0.00  0.00    +0.000 A 
ATOM     25  N   UNL     1      44.802   7.478  11.380  0.00  0.00    +0.000 NA
ATOM     26  C   UNL     1      45.680   6.917  12.228  0.00  0.00    +0.000 A 
ATOM     27  S   UNL     1      47.160   7.690  12.528  0.00  0.00    +0.000 S 
ATOM     28  C   UNL     1      47.643   6.454  13.588  0.00  0.00    +0.000 A 
ATOM     29  C   UNL     1      46.705   5.439  13.739  0.00  0.00    +0.000 A 
ATOM     30  C   UNL     1      45.521   5.727  12.935  0.00  0.00    +0.000 A 
BRANCH  22  32
ATOM     31  C   UNL     1      43.697   2.859  12.459  0.00  0.00    +0.000 C 
ATOM     32  O   UNL     1      43.956   3.930  13.365  0.00  0.00    +0.000 OA
ENDBRANCH  22  32
ENDBRANCH  18  29
ENDBRANCH   1  20
TORSDOF 7
ENDMDL
MODEL 8
REMARK VINA RESULT:    -6.880      3.813      8.550
REMARK INTER + INTRA:         -10.776
REMARK INTER:                  -9.514
REMARK INTRA:                  -1.261
REMARK UNBOUND:                -1.080
REMARK  Name = 
REMARK  8 active torsions:
REMARK  status: ('A' for Active; 'I' for Inactive)
REMARK    1  A    between atoms: C_1  and  O_2
REMARK    2  A    between atoms: O_2  and  C_3
REMARK    3  A    between atoms: C_10  and  C_11
REMARK    4  A    between atoms: N_13  and  C_14
REMARK    5  A    between atoms: C_14  and  C_15
REMARK    6  A    between atoms: C_18  and  N_19
REMARK    7  A    between atoms: N_19  and  C_20
REMARK    8  A    between atoms: C_20  and  C_21
REMARK                            x       y       z     vdW  Elec       q    Type
REMARK                         _______ _______ _______ _____ _____    ______ ____
ROOT
ATOM      1  C   UNL     1      47.331   3.217  16.901  0.00  0.00    +0.000 C 
ENDROOT
BRANCH   1   2
ATOM      2  C   UNL     1      48.760   3.210  17.374  0.00  0.00    +0.000 A 
ATOM      3  C   UNL     1      49.644   2.200  16.978  0.00  0.00    +0.000 A 
ATOM      4  C   UNL     1      51.009   2.289  17.279  0.00  0.00    +0.000 A 
ATOM      5  C   UNL     1      51.522   3.396  17.963  0.00  0.00    +0.000 A 
ATOM      6  C   UNL     1      50.613   4.324  18.481  0.00  0.00    +0.000 A 
ATOM      7  C   UNL     1      49.249   4.244  18.180  0.00  0.00    +0.000 A 
BRANCH   5   8
ATOM      8  N   UNL     1      52.887   3.602  18.212  0.00  0.00    +0.000 N 
ATOM      9  H   UNL     1      53.455   3.105  17.530  0.00  0.00    +0.000 HD
BRANCH   8  10
ATOM     10  C   UNL     1      53.330   4.984  18.381  0.00  0.00    +0.000 C 
BRANCH  10  11
ATOM     11  C   UNL     1      53.630   5.648  17.050  0.00  0.00    +0.000 A 
ATOM     12  C   UNL     1      52.788   6.674  16.589  0.00  0.00    +0.000 A 
ATOM     13  C   UNL     1      53.091   7.378  15.421  0.00  0.00    +0.000 A 
ATOM     14  C   UNL     1      54.245   7.069  14.705  0.00  0.00    +0.000 A 
ATOM     15 CL   UNL     1      54.626   7.948  13.276  0.00  0.00    +0.000 Cl
ATOM     16  C   UNL     1      55.099   6.063  15.148  0.00  0.00    +0.000 A 
ATOM     17  C   UNL     1      54.796   5.362  16.321  0.00  0.00    +0.000 A 
ENDBRANCH  10  11
ENDBRANCH   8  10
ENDBRANCH   5   8
ENDBRANCH   1   2
BRANCH   1  20
ATOM     18  C   UNL     1      47.059   4.178  14.679  0.00  0.00    +0.000 C 
ATOM     19  O   UNL     1      47.354   3.101  14.169  0.00  0.00    +0.000 OA
ATOM     20  N   UNL     1      47.027   4.329  16.041  0.00  0.00    +0.000 N 
ATOM     21  H   UNL     1      46.784   5.215  16.462  0.00  0.00    +0.000 HD
BRANCH  18  29
ATOM     22  C   UNL     1      44.337   5.020  12.738  0.00  0.00    +0.000 A 
ATOM     23  N   UNL     1      43.448   5.569  11.885  0.00  0.00    +0.000 NA
ATOM     24  C   UNL     1      43.748   6.752  11.339  0.00  0.00    +0.000 A 
ATOM     25  N   UNL     1      44.845   7.473  11.547  0.00  0.00    +0.000 NA
ATOM     26  C   UNL     1      45.711   6.883  12.388  0.00  0.00    +0.000 A 
ATOM     27  S   UNL     1      47.166   7.667  12.773  0.00  0.00    +0.000 S 
ATOM     28  C   UNL     1      47.645   6.385  13.777  0.00  0.00    +0.000 A 
ATOM     29  C   UNL     1      46.724   5.344  13.845  0.00  0.00    +0.000 A 
ATOM     30  C   UNL     1      45.558   5.653  13.024  0.00  0.00    +0.000 A 
BRANCH  22  32
ATOM     31  C   UNL     1      43.637   2.827  12.344  0.00  0.00    +0.000 C 
ATOM     32  O   UNL     1      44.020   3.804  13.310  0.00  0.00    +0.000 OA
ENDBRANCH  22  32
ENDBRANCH  18  29
ENDBRANCH   1  20
TORSDOF 7
ENDMDL
MODEL 9
REMARK VINA RESULT:    -6.721      2.627      3.658
REMARK INTER + INTRA:         -10.550
REMARK INTER:                  -9.391
REMARK INTRA:                  -1.159
REMARK UNBOUND:                -1.080
REMARK  Name = 
REMARK  8 active torsions:
REMARK  status: ('A' for Active; 'I' for Inactive)
REMARK    1  A    between atoms: C_1  and  O_2
REMARK    2  A    between atoms: O_2  and  C_3
REMARK    3  A    between atoms: C_10  and  C_11
REMARK    4  A    between atoms: N_13  and  C_14
REMARK    5  A    between atoms: C_14  and  C_15
REMARK    6  A    between atoms: C_18  and  N_19
REMARK    7  A    between atoms: N_19  and  C_20
REMARK    8  A    between atoms: C_20  and  C_21
REMARK                            x       y       z     vdW  Elec       q    Type
REMARK                         _______ _______ _______ _____ _____    ______ ____
ROOT
ATOM      1  C   UNL     1      47.426   4.388  16.234  0.00  0.00    +0.000 C 
ENDROOT
BRANCH   1   2
ATOM      2  C   UNL     1      47.070   4.684  14.802  0.00  0.00    +0.000 A 
ATOM      3  C   UNL     1      46.415   3.733  14.012  0.00  0.00    +0.000 A 
ATOM      4  C   UNL     1      45.935   4.070  12.741  0.00  0.00    +0.000 A 
ATOM      5  C   UNL     1      46.082   5.368  12.240  0.00  0.00    +0.000 A 
ATOM      6  C   UNL     1      46.864   6.267  12.971  0.00  0.00    +0.000 A 
ATOM      7  C   UNL     1      47.342   5.939  14.245  0.00  0.00    +0.000 A 
BRANCH   5   8
ATOM      8  N   UNL     1      45.542   5.806  11.022  0.00  0.00    +0.000 N 
ATOM      9  H   UNL     1      46.282   6.042  10.364  0.00  0.00    +0.000 HD
BRANCH   8  10
ATOM     10  C   UNL     1      44.521   4.960  10.406  0.00  0.00    +0.000 C 
BRANCH  10  11
ATOM     11  C   UNL     1      45.113   4.024   9.370  0.00  0.00    +0.000 A 
ATOM     12  C   UNL     1      45.891   4.556   8.328  0.00  0.00    +0.000 A 
ATOM     13  C   UNL     1      46.538   3.717   7.416  0.00  0.00    +0.000 A 
ATOM     14  C   UNL     1      46.420   2.335   7.542  0.00  0.00    +0.000 A 
ATOM     15 CL   UNL     1      47.231   1.303   6.429  0.00  0.00    +0.000 Cl
ATOM     16  C   UNL     1      45.663   1.785   8.572  0.00  0.00    +0.000 A 
ATOM     17  C   UNL     1      45.020   2.627   9.487  0.00  0.00    +0.000 A 
ENDBRANCH  10  11
ENDBRANCH   8  10
ENDBRANCH   5   8
ENDBRANCH   1   2
BRANCH   1  20
ATOM     18  C   UNL     1      49.038   5.512  17.675  0.00  0.00    +0.000 C 
ATOM     19  O   UNL     1      48.127   5.904  18.399  0.00  0.00    +0.000 OA
ATOM     20  N   UNL     1      48.778   4.751  16.565  0.00  0.00    +0.000 N 
ATOM     21  H   UNL     1      49.526   4.427  15.968  0.00  0.00    +0.000 HD
BRANCH  18  29
ATOM     22  C   UNL     1      51.951   3.672  17.778  0.00  0.00    +0.000 A 
ATOM     23  N   UNL     1      53.203   3.197  17.941  0.00  0.00    +0.000 NA
ATOM     24  C   UNL     1      54.157   4.056  18.313  0.00  0.00    +0.000 A 
ATOM     25  N   UNL     1      54.016   5.357  18.543  0.00  0.00    +0.000 NA
ATOM     26  C   UNL     1      52.752   5.785  18.386  0.00  0.00    +0.000 A 
ATOM     27  S   UNL     1      52.390   7.424  18.633  0.00  0.00    +0.000 S 
ATOM     28  C   UNL     1      50.750   7.162  18.285  0.00  0.00    +0.000 A 
ATOM     29  C   UNL     1      50.441   5.842  17.976  0.00  0.00    +0.000 A 
ATOM     30  C   UNL     1      51.646   5.021  18.020  0.00  0.00    +0.000 A 
BRANCH  22  32
ATOM     31  C   UNL     1      51.417   1.431  17.388  0.00  0.00    +0.000 C 
ATOM     32  O   UNL     1      50.969   2.786  17.381  0.00  0.00    +0.000 OA
ENDBRANCH  22  32
ENDBRANCH  18  29
ENDBRANCH   1  20
TORSDOF 7
ENDMDL
