MODEL 1
REMARK VINA RESULT:    -8.175      0.000      0.000
REMARK INTER + INTRA:         -13.614
REMARK INTER:                 -11.998
REMARK INTRA:                  -1.617
REMARK UNBOUND:                -1.617
REMARK  Name = 
REMARK  10 active torsions:
REMARK  status: ('A' for Active; 'I' for Inactive)
REMARK    1  A    between atoms: C_1  and  C_2
REMARK    2  A    between atoms: C_2  and  C_3
REMARK    3  A    between atoms: C_3  and  N_4
REMARK    4  A    between atoms: C_3  and  C_18
REMARK    5  A    between atoms: C_5  and  C_7
REMARK    6  A    between atoms: N_13  and  C_14
REMARK    7  A    between atoms: C_21  and  C_22
REMARK    8  A    between atoms: C_22  and  N_23
REMARK    9  A    between atoms: N_23  and  C_24
REMARK   10  A    between atoms: C_24  and  C_25
REMARK                            x       y       z     vdW  Elec       q    Type
REMARK                         _______ _______ _______ _____ _____    ______ ____
ROOT
ATOM      1  C   UNL     1      47.553   7.580  12.941  0.00  0.00    +0.000 C 
ENDROOT
BRANCH   1   2
ATOM      2  C   UNL     1      46.663   6.473  12.380  0.00  0.00    +0.000 A 
ATOM      3  C   UNL     1      46.306   5.383  13.189  0.00  0.00    +0.000 A 
ATOM      4  C   UNL     1      45.369   4.441  12.747  0.00  0.00    +0.000 A 
ATOM      5  C   UNL     1      44.767   4.569  11.487  0.00  0.00    +0.000 A 
ATOM      6  C   UNL     1      45.202   5.593  10.640  0.00  0.00    +0.000 A 
ATOM      7  C   UNL     1      46.154   6.517  11.074  0.00  0.00    +0.000 A 
BRANCH   5   8
ATOM      8  C   UNL     1      43.648   3.649  11.059  0.00  0.00    +0.000 C 
BRANCH   8   9
ATOM      9  N   UNL     1      43.798   3.287   9.650  0.00  0.00    +0.000 NA
ATOM     10  H   UNL     1      44.325   4.022   9.176  0.00  0.00    +0.000 HD
BRANCH   9  11
ATOM     11  C   UNL     1      44.533   2.027   9.494  0.00  0.00    +0.000 C 
BRANCH  11  12
ATOM     12  C   UNL     1      45.602   2.126   8.421  0.00  0.00    +0.000 A 
ATOM     13  C   UNL     1      45.787   3.322   7.728  0.00  0.00    +0.000 A 
ATOM     14  C   UNL     1      46.768   3.390   6.743  0.00  0.00    +0.000 A 
ATOM     15  C   UNL     1      47.536   2.264   6.473  0.00  0.00    +0.000 A 
ATOM     16  C   UNL     1      47.292   1.114   7.206  0.00  0.00    +0.000 A 
ATOM     17  N   UNL     1      46.347   1.018   8.170  0.00  0.00    +0.000 NA
ENDBRANCH  11  12
ENDBRANCH   9  11
ENDBRANCH   8   9
ENDBRANCH   5   8
ENDBRANCH   1   2
BRANCH   1  18
ATOM     18  N   UNL     1      48.500   7.017  13.883  0.00  0.00    +0.000 N 
ATOM     19  C   UNL     1      48.866   7.649  15.043  0.00  0.00    +0.000 C 
ATOM     20  O   UNL     1      48.462   8.767  15.342  0.00  0.00    +0.000 OA
ATOM     21  H   UNL     1      48.773   6.052  13.729  0.00  0.00    +0.000 HD
BRANCH  19  22
ATOM     22  C   UNL     1      49.815   6.924  15.901  0.00  0.00    +0.000 A 
ATOM     23  C   UNL     1      51.081   7.449  16.132  0.00  0.00    +0.000 A 
ATOM     24  S   UNL     1      52.039   6.484  17.162  0.00  0.00    +0.000 S 
ATOM     25  C   UNL     1      50.778   5.361  17.374  0.00  0.00    +0.000 A 
ATOM     26  N   UNL     1      50.926   4.293  18.200  0.00  0.00    +0.000 NA
ATOM     27  C   UNL     1      49.876   3.543  18.300  0.00  0.00    +0.000 A 
ATOM     28  N   UNL     1      48.686   3.741  17.632  0.00  0.00    +0.000 N 
ATOM     29  C   UNL     1      47.579   2.823  17.792  0.00  0.00    +0.000 C 
ATOM     30  C   UNL     1      48.525   4.787  16.732  0.00  0.00    +0.000 A 
ATOM     31  O   UNL     1      47.516   4.918  16.045  0.00  0.00    +0.000 OA
ATOM     32  C   UNL     1      49.661   5.689  16.634  0.00  0.00    +0.000 A 
ENDBRANCH  19  22
ENDBRANCH   1  18
BRANCH   1  34
ATOM     33  C   UNL     1      49.663   7.831  11.501  0.00  0.00    +0.000 C 
ATOM     34  C   UNL     1      48.294   8.397  11.860  0.00  0.00    +0.000 C 
ENDBRANCH   1  34
TORSDOF 8
ENDMDL
MODEL 2
REMARK VINA RESULT:    -7.877      1.758      2.082
REMARK INTER + INTRA:         -13.177
REMARK INTER:                 -11.787
REMARK INTRA:                  -1.391
REMARK UNBOUND:                -1.617
REMARK  Name = 
REMARK  10 active torsions:
REMARK  status: ('A' for Active; 'I' for Inactive)
REMARK    1  A    between atoms: C_1  and  C_2
REMARK    2  A    between atoms: C_2  and  C_3
REMARK    3  A    between atoms: C_3  and  N_4
REMARK    4  A    between atoms: C_3  and  C_18
REMARK    5  A    between atoms: C_5  and  C_7
REMARK    6  A    between atoms: N_13  and  C_14
REMARK    7  A    between atoms: C_21  and  C_22
REMARK    8  A    between atoms: C_22  and  N_23
REMARK    9  A    between atoms: N_23  and  C_24
REMARK   10  A    between atoms: C_24  and  C_25
REMARK                            x       y       z     vdW  Elec       q    Type
REMARK                         _______ _______ _______ _____ _____    ______ ____
ROOT
ATOM      1  C   UNL     1      47.941   7.656  13.414  0.00  0.00    +0.000 C 
ENDROOT
BRANCH   1   2
ATOM      2  C   UNL     1      46.702   6.954  12.863  0.00  0.00    +0.000 A 
ATOM      3  C   UNL     1      45.816   7.650  12.026  0.00  0.00    +0.000 A 
ATOM      4  C   UNL     1      44.764   6.984  11.387  0.00  0.00    +0.000 A 
ATOM      5  C   UNL     1      44.575   5.606  11.570  0.00  0.00    +0.000 A 
ATOM      6  C   UNL     1      45.391   4.936  12.486  0.00  0.00    +0.000 A 
ATOM      7  C   UNL     1      46.424   5.608  13.141  0.00  0.00    +0.000 A 
BRANCH   5   8
ATOM      8  C   UNL     1      43.540   4.847  10.773  0.00  0.00    +0.000 C 
BRANCH   8   9
ATOM      9  N   UNL     1      44.103   4.400   9.500  0.00  0.00    +0.000 NA
ATOM     10  H   UNL     1      44.976   4.902   9.332  0.00  0.00    +0.000 HD
BRANCH   9  11
ATOM     11  C   UNL     1      44.401   2.963   9.520  0.00  0.00    +0.000 C 
BRANCH  11  12
ATOM     12  C   UNL     1      45.460   2.592   8.498  0.00  0.00    +0.000 A 
ATOM     13  C   UNL     1      45.894   3.537   7.568  0.00  0.00    +0.000 A 
ATOM     14  C   UNL     1      46.861   3.174   6.635  0.00  0.00    +0.000 A 
ATOM     15  C   UNL     1      47.367   1.881   6.651  0.00  0.00    +0.000 A 
ATOM     16  C   UNL     1      46.885   1.002   7.608  0.00  0.00    +0.000 A 
ATOM     17  N   UNL     1      45.948   1.325   8.528  0.00  0.00    +0.000 NA
ENDBRANCH  11  12
ENDBRANCH   9  11
ENDBRANCH   8   9
ENDBRANCH   5   8
ENDBRANCH   1   2
BRANCH   1  18
ATOM     18  N   UNL     1      47.998   7.490  14.853  0.00  0.00    +0.000 N 
ATOM     19  C   UNL     1      48.535   8.430  15.694  0.00  0.00    +0.000 C 
ATOM     20  O   UNL     1      49.062   9.459  15.284  0.00  0.00    +0.000 OA
ATOM     21  H   UNL     1      47.480   6.709  15.240  0.00  0.00    +0.000 HD
BRANCH  19  22
ATOM     22  C   UNL     1      48.485   8.117  17.130  0.00  0.00    +0.000 A 
ATOM     23  C   UNL     1      47.846   8.985  18.006  0.00  0.00    +0.000 A 
ATOM     24  S   UNL     1      47.871   8.454  19.627  0.00  0.00    +0.000 S 
ATOM     25  C   UNL     1      48.691   7.023  19.204  0.00  0.00    +0.000 A 
ATOM     26  N   UNL     1      48.981   6.083  20.139  0.00  0.00    +0.000 NA
ATOM     27  C   UNL     1      49.569   5.028  19.674  0.00  0.00    +0.000 A 
ATOM     28  N   UNL     1      49.922   4.825  18.357  0.00  0.00    +0.000 N 
ATOM     29  C   UNL     1      50.605   3.618  17.944  0.00  0.00    +0.000 C 
ATOM     30  C   UNL     1      49.696   5.796  17.388  0.00  0.00    +0.000 A 
ATOM     31  O   UNL     1      50.101   5.684  16.234  0.00  0.00    +0.000 OA
ATOM     32  C   UNL     1      48.984   6.973  17.857  0.00  0.00    +0.000 A 
ENDBRANCH  19  22
ENDBRANCH   1  18
BRANCH   1  34
ATOM     33  C   UNL     1      49.586   7.900  11.459  0.00  0.00    +0.000 C 
ATOM     34  C   UNL     1      49.266   7.191  12.769  0.00  0.00    +0.000 C 
ENDBRANCH   1  34
TORSDOF 8
ENDMDL
MODEL 3
REMARK VINA RESULT:    -7.542      1.484      2.456
REMARK INTER + INTRA:         -12.685
REMARK INTER:                 -11.421
REMARK INTRA:                  -1.265
REMARK UNBOUND:                -1.617
REMARK  Name = 
REMARK  10 active torsions:
REMARK  status: ('A' for Active; 'I' for Inactive)
REMARK    1  A    between atoms: C_1  and  C_2
REMARK    2  A    between atoms: C_2  and  C_3
REMARK    3  A    between atoms: C_3  and  N_4
REMARK    4  A    between atoms: C_3  and  C_18
REMARK    5  A    between atoms: C_5  and  C_7
REMARK    6  A    between atoms: N_13  and  C_14
REMARK    7  A    between atoms: C_21  and  C_22
REMARK    8  A    between atoms: C_22  and  N_23
REMARK    9  A    between atoms: N_23  and  C_24
REMARK   10  A    between atoms: C_24  and  C_25
REMARK                            x       y       z     vdW  Elec       q    Type
REMARK                         _______ _______ _______ _____ _____    ______ ____
ROOT
ATOM      1  C   UNL     1      47.646   7.159  13.455  0.00  0.00    +0.000 C 
ENDROOT
BRANCH   1   2
ATOM      2  C   UNL     1      46.447   6.386  12.909  0.00  0.00    +0.000 A 
ATOM      3  C   UNL     1      45.527   7.026  12.065  0.00  0.00    +0.000 A 
ATOM      4  C   UNL     1      44.513   6.298  11.430  0.00  0.00    +0.000 A 
ATOM      5  C   UNL     1      44.398   4.914  11.626  0.00  0.00    +0.000 A 
ATOM      6  C   UNL     1      45.248   4.297  12.548  0.00  0.00    +0.000 A 
ATOM      7  C   UNL     1      46.242   5.029  13.198  0.00  0.00    +0.000 A 
BRANCH   5   8
ATOM      8  C   UNL     1      43.406   4.094  10.835  0.00  0.00    +0.000 C 
BRANCH   8   9
ATOM      9  N   UNL     1      43.945   3.779   9.512  0.00  0.00    +0.000 NA
ATOM     10  H   UNL     1      44.678   4.453   9.287  0.00  0.00    +0.000 HD
BRANCH   9  11
ATOM     11  C   UNL     1      44.534   2.436   9.478  0.00  0.00    +0.000 C 
BRANCH  11  12
ATOM     12  C   UNL     1      45.587   2.309   8.391  0.00  0.00    +0.000 A 
ATOM     13  C   UNL     1      45.862   3.392   7.556  0.00  0.00    +0.000 A 
ATOM     14  C   UNL     1      46.825   3.252   6.561  0.00  0.00    +0.000 A 
ATOM     15  C   UNL     1      47.487   2.039   6.424  0.00  0.00    +0.000 A 
ATOM     16  C   UNL     1      47.157   1.012   7.294  0.00  0.00    +0.000 A 
ATOM     17  N   UNL     1      46.227   1.118   8.270  0.00  0.00    +0.000 NA
ENDBRANCH  11  12
ENDBRANCH   9  11
ENDBRANCH   8   9
ENDBRANCH   5   8
ENDBRANCH   1   2
BRANCH   1  18
ATOM     18  N   UNL     1      48.252   6.417  14.543  0.00  0.00    +0.000 N 
ATOM     19  C   UNL     1      48.704   7.010  15.693  0.00  0.00    +0.000 C 
ATOM     20  O   UNL     1      48.681   8.225  15.862  0.00  0.00    +0.000 OA
ATOM     21  H   UNL     1      48.191   5.406  14.491  0.00  0.00    +0.000 HD
BRANCH  19  22
ATOM     22  C   UNL     1      49.264   6.107  16.709  0.00  0.00    +0.000 A 
ATOM     23  C   UNL     1      48.414   5.372  17.526  0.00  0.00    +0.000 A 
ATOM     24  S   UNL     1      49.236   4.367  18.633  0.00  0.00    +0.000 S 
ATOM     25  C   UNL     1      50.752   4.842  18.023  0.00  0.00    +0.000 A 
ATOM     26  N   UNL     1      51.900   4.302  18.508  0.00  0.00    +0.000 NA
ATOM     27  C   UNL     1      52.977   4.722  17.927  0.00  0.00    +0.000 A 
ATOM     28  N   UNL     1      53.027   5.656  16.914  0.00  0.00    +0.000 N 
ATOM     29  C   UNL     1      54.290   6.080  16.351  0.00  0.00    +0.000 C 
ATOM     30  C   UNL     1      51.875   6.273  16.440  0.00  0.00    +0.000 A 
ATOM     31  O   UNL     1      51.905   7.186  15.619  0.00  0.00    +0.000 OA
ATOM     32  C   UNL     1      50.637   5.788  17.025  0.00  0.00    +0.000 A 
ENDBRANCH  19  22
ENDBRANCH   1  18
BRANCH   1  34
ATOM     33  C   UNL     1      49.103   8.979  12.380  0.00  0.00    +0.000 C 
ATOM     34  C   UNL     1      48.708   7.507  12.388  0.00  0.00    +0.000 C 
ENDBRANCH   1  34
TORSDOF 8
ENDMDL
MODEL 4
REMARK VINA RESULT:    -7.489      2.349      2.722
REMARK INTER + INTRA:         -12.608
REMARK INTER:                 -11.587
REMARK INTRA:                  -1.021
REMARK UNBOUND:                -1.617
REMARK  Name = 
REMARK  10 active torsions:
REMARK  status: ('A' for Active; 'I' for Inactive)
REMARK    1  A    between atoms: C_1  and  C_2
REMARK    2  A    between atoms: C_2  and  C_3
REMARK    3  A    between atoms: C_3  and  N_4
REMARK    4  A    between atoms: C_3  and  C_18
REMARK    5  A    between atoms: C_5  and  C_7
REMARK    6  A    between atoms: N_13  and  C_14
REMARK    7  A    between atoms: C_21  and  C_22
REMARK    8  A    between atoms: C_22  and  N_23
REMARK    9  A    between atoms: N_23  and  C_24
REMARK   10  A    between atoms: C_24  and  C_25
REMARK                            x       y       z     vdW  Elec       q    Type
REMARK                         _______ _______ _______ _____ _____    ______ ____
ROOT
ATOM      1  C   UNL     1      47.991   7.188  13.523  0.00  0.00    +0.000 C 
ENDROOT
BRANCH   1   2
ATOM      2  C   UNL     1      46.717   6.617  12.903  0.00  0.00    +0.000 A 
ATOM      3  C   UNL     1      45.958   7.398  12.018  0.00  0.00    +0.000 A 
ATOM      4  C   UNL     1      44.878   6.842  11.320  0.00  0.00    +0.000 A 
ATOM      5  C   UNL     1      44.536   5.493  11.492  0.00  0.00    +0.000 A 
ATOM      6  C   UNL     1      45.225   4.746  12.452  0.00  0.00    +0.000 A 
ATOM      7  C   UNL     1      46.285   5.309  13.164  0.00  0.00    +0.000 A 
BRANCH   5   8
ATOM      8  C   UNL     1      43.473   4.843  10.638  0.00  0.00    +0.000 C 
BRANCH   8   9
ATOM      9  N   UNL     1      44.049   4.367   9.381  0.00  0.00    +0.000 NA
ATOM     10  H   UNL     1      44.898   4.899   9.186  0.00  0.00    +0.000 HD
BRANCH   9  11
ATOM     11  C   UNL     1      44.410   2.947   9.459  0.00  0.00    +0.000 C 
BRANCH  11  12
ATOM     12  C   UNL     1      45.476   2.579   8.443  0.00  0.00    +0.000 A 
ATOM     13  C   UNL     1      45.908   3.523   7.511  0.00  0.00    +0.000 A 
ATOM     14  C   UNL     1      46.881   3.162   6.584  0.00  0.00    +0.000 A 
ATOM     15  C   UNL     1      47.396   1.873   6.608  0.00  0.00    +0.000 A 
ATOM     16  C   UNL     1      46.916   0.994   7.566  0.00  0.00    +0.000 A 
ATOM     17  N   UNL     1      45.972   1.315   8.480  0.00  0.00    +0.000 NA
ENDBRANCH  11  12
ENDBRANCH   9  11
ENDBRANCH   8   9
ENDBRANCH   5   8
ENDBRANCH   1   2
BRANCH   1  18
ATOM     18  N   UNL     1      48.185   6.628  14.846  0.00  0.00    +0.000 N 
ATOM     19  C   UNL     1      48.871   7.277  15.840  0.00  0.00    +0.000 C 
ATOM     20  O   UNL     1      49.424   8.358  15.664  0.00  0.00    +0.000 OA
ATOM     21  H   UNL     1      47.655   5.792  15.066  0.00  0.00    +0.000 HD
BRANCH  19  22
ATOM     22  C   UNL     1      48.947   6.580  17.133  0.00  0.00    +0.000 A 
ATOM     23  C   UNL     1      49.559   5.335  17.213  0.00  0.00    +0.000 A 
ATOM     24  S   UNL     1      49.571   4.685  18.790  0.00  0.00    +0.000 S 
ATOM     25  C   UNL     1      48.806   6.066  19.425  0.00  0.00    +0.000 A 
ATOM     26  N   UNL     1      48.563   6.180  20.756  0.00  0.00    +0.000 NA
ATOM     27  C   UNL     1      48.014   7.298  21.108  0.00  0.00    +0.000 A 
ATOM     28  N   UNL     1      47.657   8.317  20.251  0.00  0.00    +0.000 N 
ATOM     29  C   UNL     1      47.019   9.519  20.744  0.00  0.00    +0.000 C 
ATOM     30  C   UNL     1      47.834   8.204  18.877  0.00  0.00    +0.000 A 
ATOM     31  O   UNL     1      47.423   9.049  18.086  0.00  0.00    +0.000 OA
ATOM     32  C   UNL     1      48.502   6.988  18.444  0.00  0.00    +0.000 A 
ENDBRANCH  19  22
ENDBRANCH   1  18
BRANCH   1  34
ATOM     33  C   UNL     1      49.978   8.276  12.316  0.00  0.00    +0.000 C 
ATOM     34  C   UNL     1      49.257   6.979  12.663  0.00  0.00    +0.000 C 
ENDBRANCH   1  34
TORSDOF 8
ENDMDL
MODEL 5
REMARK VINA RESULT:    -6.982      1.582      2.039
REMARK INTER + INTRA:         -11.864
REMARK INTER:                 -10.566
REMARK INTRA:                  -1.299
REMARK UNBOUND:                -1.617
REMARK  Name = 
REMARK  10 active torsions:
REMARK  status: ('A' for Active; 'I' for Inactive)
REMARK    1  A    between atoms: C_1  and  C_2
REMARK    2  A    between atoms: C_2  and  C_3
REMARK    3  A    between atoms: C_3  and  N_4
REMARK    4  A    between atoms: C_3  and  C_18
REMARK    5  A    between atoms: C_5  and  C_7
REMARK    6  A    between atoms: N_13  and  C_14
REMARK    7  A    between atoms: C_21  and  C_22
REMARK    8  A    between atoms: C_22  and  N_23
REMARK    9  A    between atoms: N_23  and  C_24
REMARK   10  A    between atoms: C_24  and  C_25
REMARK                            x       y       z     vdW  Elec       q    Type
REMARK                         _______ _______ _______ _____ _____    ______ ____
ROOT
ATOM      1  C   UNL     1      46.773   8.841  12.760  0.00  0.00    +0.000 C 
ENDROOT
BRANCH   1   2
ATOM      2  C   UNL     1      46.127   7.549  12.262  0.00  0.00    +0.000 A 
ATOM      3  C   UNL     1      46.691   6.309  12.597  0.00  0.00    +0.000 A 
ATOM      4  C   UNL     1      46.030   5.115  12.285  0.00  0.00    +0.000 A 
ATOM      5  C   UNL     1      44.790   5.136  11.631  0.00  0.00    +0.000 A 
ATOM      6  C   UNL     1      44.280   6.365  11.203  0.00  0.00    +0.000 A 
ATOM      7  C   UNL     1      44.953   7.553  11.494  0.00  0.00    +0.000 A 
BRANCH   5   8
ATOM      8  C   UNL     1      43.996   3.867  11.421  0.00  0.00    +0.000 C 
BRANCH   8   9
ATOM      9  N   UNL     1      44.875   2.782  10.986  0.00  0.00    +0.000 NA
ATOM     10  H   UNL     1      44.872   2.051  11.698  0.00  0.00    +0.000 HD
BRANCH   9  11
ATOM     11  C   UNL     1      44.416   2.192   9.724  0.00  0.00    +0.000 C 
BRANCH  11  12
ATOM     12  C   UNL     1      45.476   2.280   8.641  0.00  0.00    +0.000 A 
ATOM     13  C   UNL     1      45.747   3.504   8.027  0.00  0.00    +0.000 A 
ATOM     14  C   UNL     1      46.717   3.561   7.031  0.00  0.00    +0.000 A 
ATOM     15  C   UNL     1      47.389   2.400   6.671  0.00  0.00    +0.000 A 
ATOM     16  C   UNL     1      47.062   1.225   7.329  0.00  0.00    +0.000 A 
ATOM     17  N   UNL     1      46.126   1.137   8.301  0.00  0.00    +0.000 NA
ENDBRANCH  11  12
ENDBRANCH   9  11
ENDBRANCH   8   9
ENDBRANCH   5   8
ENDBRANCH   1   2
BRANCH   1  18
ATOM     18  N   UNL     1      48.143   8.582  13.155  0.00  0.00    +0.000 N 
ATOM     19  C   UNL     1      48.587   8.710  14.446  0.00  0.00    +0.000 C 
ATOM     20  O   UNL     1      47.867   9.111  15.355  0.00  0.00    +0.000 OA
ATOM     21  H   UNL     1      48.741   8.146  12.461  0.00  0.00    +0.000 HD
BRANCH  19  22
ATOM     22  C   UNL     1      50.000   8.378  14.680  0.00  0.00    +0.000 A 
ATOM     23  C   UNL     1      50.998   9.142  14.086  0.00  0.00    +0.000 A 
ATOM     24  S   UNL     1      52.575   8.624  14.480  0.00  0.00    +0.000 S 
ATOM     25  C   UNL     1      51.977   7.396  15.497  0.00  0.00    +0.000 A 
ATOM     26  N   UNL     1      52.822   6.599  16.200  0.00  0.00    +0.000 NA
ATOM     27  C   UNL     1      52.234   5.736  16.964  0.00  0.00    +0.000 A 
ATOM     28  N   UNL     1      50.870   5.571  17.081  0.00  0.00    +0.000 N 
ATOM     29  C   UNL     1      50.313   4.553  17.945  0.00  0.00    +0.000 C 
ATOM     30  C   UNL     1      49.981   6.328  16.327  0.00  0.00    +0.000 A 
ATOM     31  O   UNL     1      48.770   6.122  16.331  0.00  0.00    +0.000 OA
ATOM     32  C   UNL     1      50.598   7.350  15.499  0.00  0.00    +0.000 A 
ENDBRANCH  19  22
ENDBRANCH   1  18
BRANCH   1  34
ATOM     33  C   UNL     1      47.170  11.338  12.319  0.00  0.00    +0.000 C 
ATOM     34  C   UNL     1      46.720  10.002  11.742  0.00  0.00    +0.000 C 
ENDBRANCH   1  34
TORSDOF 8
ENDMDL
MODEL 6
REMARK VINA RESULT:    -6.707      2.230      3.500
REMARK INTER + INTRA:         -11.460
REMARK INTER:                  -9.807
REMARK INTRA:                  -1.653
REMARK UNBOUND:                -1.617
REMARK  Name = 
REMARK  10 active torsions:
REMARK  status: ('A' for Active; 'I' for Inactive)
REMARK    1  A    between atoms: C_1  and  C_2
REMARK    2  A    between atoms: C_2  and  C_3
REMARK    3  A    between atoms: C_3  and  N_4
REMARK    4  A    between atoms: C_3  and  C_18
REMARK    5  A    between atoms: C_5  and  C_7
REMARK    6  A    between atoms: N_13  and  C_14
REMARK    7  A    between atoms: C_21  and  C_22
REMARK    8  A    between atoms: C_22  and  N_23
REMARK    9  A    between atoms: N_23  and  C_24
REMARK   10  A    between atoms: C_24  and  C_25
REMARK                            x       y       z     vdW  Elec       q    Type
REMARK                         _______ _______ _______ _____ _____    ______ ____
ROOT
ATOM      1  C   UNL     1      48.404   7.921  13.102  0.00  0.00    +0.000 C 
ENDROOT
BRANCH   1   2
ATOM      2  C   UNL     1      47.228   6.958  12.955  0.00  0.00    +0.000 A 
ATOM      3  C   UNL     1      47.434   5.576  13.084  0.00  0.00    +0.000 A 
ATOM      4  C   UNL     1      46.349   4.691  13.109  0.00  0.00    +0.000 A 
ATOM      5  C   UNL     1      45.035   5.170  13.006  0.00  0.00    +0.000 A 
ATOM      6  C   UNL     1      44.836   6.533  12.771  0.00  0.00    +0.000 A 
ATOM      7  C   UNL     1      45.921   7.410  12.722  0.00  0.00    +0.000 A 
BRANCH   5   8
ATOM      8  C   UNL     1      43.851   4.246  13.181  0.00  0.00    +0.000 C 
BRANCH   8   9
ATOM      9  N   UNL     1      44.092   2.976  12.498  0.00  0.00    +0.000 NA
ATOM     10  H   UNL     1      43.773   2.214  13.099  0.00  0.00    +0.000 HD
BRANCH   9  11
ATOM     11  C   UNL     1      43.352   2.897  11.233  0.00  0.00    +0.000 C 
BRANCH  11  12
ATOM     12  C   UNL     1      44.271   3.033  10.032  0.00  0.00    +0.000 A 
ATOM     13  C   UNL     1      44.595   4.298   9.542  0.00  0.00    +0.000 A 
ATOM     14  C   UNL     1      45.434   4.400   8.435  0.00  0.00    +0.000 A 
ATOM     15  C   UNL     1      45.924   3.241   7.847  0.00  0.00    +0.000 A 
ATOM     16  C   UNL     1      45.556   2.023   8.394  0.00  0.00    +0.000 A 
ATOM     17  N   UNL     1      44.745   1.892   9.469  0.00  0.00    +0.000 NA
ENDBRANCH  11  12
ENDBRANCH   9  11
ENDBRANCH   8   9
ENDBRANCH   5   8
ENDBRANCH   1   2
BRANCH   1  18
ATOM     18  N   UNL     1      49.438   7.311  13.916  0.00  0.00    +0.000 N 
ATOM     19  C   UNL     1      49.815   7.804  15.139  0.00  0.00    +0.000 C 
ATOM     20  O   UNL     1      49.345   8.834  15.609  0.00  0.00    +0.000 OA
ATOM     21  H   UNL     1      49.773   6.402  13.616  0.00  0.00    +0.000 HD
BRANCH  19  22
ATOM     22  C   UNL     1      50.858   7.046  15.846  0.00  0.00    +0.000 A 
ATOM     23  C   UNL     1      50.499   6.077  16.776  0.00  0.00    +0.000 A 
ATOM     24  S   UNL     1      51.836   5.289  17.485  0.00  0.00    +0.000 S 
ATOM     25  C   UNL     1      52.934   6.178  16.536  0.00  0.00    +0.000 A 
ATOM     26  N   UNL     1      54.270   5.949  16.616  0.00  0.00    +0.000 NA
ATOM     27  C   UNL     1      54.986   6.666  15.811  0.00  0.00    +0.000 A 
ATOM     28  N   UNL     1      54.499   7.617  14.940  0.00  0.00    +0.000 N 
ATOM     29  C   UNL     1      55.391   8.388  14.101  0.00  0.00    +0.000 C 
ATOM     30  C   UNL     1      53.143   7.920  14.881  0.00  0.00    +0.000 A 
ATOM     31  O   UNL     1      52.701   8.838  14.197  0.00  0.00    +0.000 OA
ATOM     32  C   UNL     1      52.296   7.096  15.727  0.00  0.00    +0.000 A 
ENDBRANCH  19  22
ENDBRANCH   1  18
BRANCH   1  34
ATOM     33  C   UNL     1      50.440   7.968  11.540  0.00  0.00    +0.000 C 
ATOM     34  C   UNL     1      48.995   8.400  11.758  0.00  0.00    +0.000 C 
ENDBRANCH   1  34
TORSDOF 8
ENDMDL
MODEL 7
REMARK VINA RESULT:    -6.661      3.091      5.424
REMARK INTER + INTRA:         -11.393
REMARK INTER:                  -9.798
REMARK INTRA:                  -1.595
REMARK UNBOUND:                -1.617
REMARK  Name = 
REMARK  10 active torsions:
REMARK  status: ('A' for Active; 'I' for Inactive)
REMARK    1  A    between atoms: C_1  and  C_2
REMARK    2  A    between atoms: C_2  and  C_3
REMARK    3  A    between atoms: C_3  and  N_4
REMARK    4  A    between atoms: C_3  and  C_18
REMARK    5  A    between atoms: C_5  and  C_7
REMARK    6  A    between atoms: N_13  and  C_14
REMARK    7  A    between atoms: C_21  and  C_22
REMARK    8  A    between atoms: C_22  and  N_23
REMARK    9  A    between atoms: N_23  and  C_24
REMARK   10  A    between atoms: C_24  and  C_25
REMARK                            x       y       z     vdW  Elec       q    Type
REMARK                         _______ _______ _______ _____ _____    ______ ____
ROOT
ATOM      1  C   UNL     1      47.817   3.947  17.276  0.00  0.00    +0.000 C 
ENDROOT
BRANCH   1   2
ATOM      2  C   UNL     1      47.787   4.646  15.918  0.00  0.00    +0.000 A 
ATOM      3  C   UNL     1      47.120   4.048  14.837  0.00  0.00    +0.000 A 
ATOM      4  C   UNL     1      46.948   4.741  13.633  0.00  0.00    +0.000 A 
ATOM      5  C   UNL     1      47.436   6.047  13.484  0.00  0.00    +0.000 A 
ATOM      6  C   UNL     1      48.192   6.601  14.523  0.00  0.00    +0.000 A 
ATOM      7  C   UNL     1      48.384   5.898  15.713  0.00  0.00    +0.000 A 
BRANCH   5   8
ATOM      8  C   UNL     1      47.129   6.860  12.248  0.00  0.00    +0.000 C 
BRANCH   8   9
ATOM      9  N   UNL     1      45.856   7.563  12.405  0.00  0.00    +0.000 NA
ATOM     10  H   UNL     1      46.019   8.566  12.304  0.00  0.00    +0.000 HD
BRANCH   9  11
ATOM     11  C   UNL     1      44.887   7.154  11.381  0.00  0.00    +0.000 C 
BRANCH  11  12
ATOM     12  C   UNL     1      44.362   5.751  11.628  0.00  0.00    +0.000 A 
ATOM     13  C   UNL     1      44.560   4.754  10.673  0.00  0.00    +0.000 A 
ATOM     14  C   UNL     1      44.064   3.477  10.916  0.00  0.00    +0.000 A 
ATOM     15  C   UNL     1      43.384   3.227  12.101  0.00  0.00    +0.000 A 
ATOM     16  C   UNL     1      43.230   4.271  12.999  0.00  0.00    +0.000 A 
ATOM     17  N   UNL     1      43.702   5.522  12.792  0.00  0.00    +0.000 NA
ENDBRANCH  11  12
ENDBRANCH   9  11
ENDBRANCH   8   9
ENDBRANCH   5   8
ENDBRANCH   1   2
BRANCH   1  18
ATOM     18  N   UNL     1      49.178   3.569  17.602  0.00  0.00    +0.000 N 
ATOM     19  C   UNL     1      49.845   2.554  16.967  0.00  0.00    +0.000 C 
ATOM     20  O   UNL     1      49.318   1.851  16.111  0.00  0.00    +0.000 OA
ATOM     21  H   UNL     1      49.684   4.191  18.222  0.00  0.00    +0.000 HD
BRANCH  19  22
ATOM     22  C   UNL     1      51.231   2.322  17.399  0.00  0.00    +0.000 A 
ATOM     23  C   UNL     1      51.688   1.024  17.594  0.00  0.00    +0.000 A 
ATOM     24  S   UNL     1      53.322   0.945  18.078  0.00  0.00    +0.000 S 
ATOM     25  C   UNL     1      53.487   2.637  17.994  0.00  0.00    +0.000 A 
ATOM     26  N   UNL     1      54.680   3.235  18.243  0.00  0.00    +0.000 NA
ATOM     27  C   UNL     1      54.674   4.522  18.104  0.00  0.00    +0.000 A 
ATOM     28  N   UNL     1      53.578   5.283  17.760  0.00  0.00    +0.000 N 
ATOM     29  C   UNL     1      53.671   6.724  17.659  0.00  0.00    +0.000 C 
ATOM     30  C   UNL     1      52.329   4.707  17.561  0.00  0.00    +0.000 A 
ATOM     31  O   UNL     1      51.317   5.375  17.364  0.00  0.00    +0.000 OA
ATOM     32  C   UNL     1      52.303   3.257  17.650  0.00  0.00    +0.000 A 
ENDBRANCH  19  22
ENDBRANCH   1  18
BRANCH   1  34
ATOM     33  C   UNL     1      48.241   5.370  19.369  0.00  0.00    +0.000 C 
ATOM     34  C   UNL     1      47.203   4.778  18.424  0.00  0.00    +0.000 C 
ENDBRANCH   1  34
TORSDOF 8
ENDMDL
MODEL 8
REMARK VINA RESULT:    -6.620      1.433      2.124
REMARK INTER + INTRA:         -11.333
REMARK INTER:                  -9.718
REMARK INTRA:                  -1.615
REMARK UNBOUND:                -1.617
REMARK  Name = 
REMARK  10 active torsions:
REMARK  status: ('A' for Active; 'I' for Inactive)
REMARK    1  A    between atoms: C_1  and  C_2
REMARK    2  A    between atoms: C_2  and  C_3
REMARK    3  A    between atoms: C_3  and  N_4
REMARK    4  A    between atoms: C_3  and  C_18
REMARK    5  A    between atoms: C_5  and  C_7
REMARK    6  A    between atoms: N_13  and  C_14
REMARK    7  A    between atoms: C_21  and  C_22
REMARK    8  A    between atoms: C_22  and  N_23
REMARK    9  A    between atoms: N_23  and  C_24
REMARK   10  A    between atoms: C_24  and  C_25
REMARK                            x       y       z     vdW  Elec       q    Type
REMARK                         _______ _______ _______ _____ _____    ______ ____
ROOT
ATOM      1  C   UNL     1      49.569   8.980  13.087  0.00  0.00    +0.000 C 
ENDROOT
BRANCH   1   2
ATOM      2  C   UNL     1      48.226   8.437  12.606  0.00  0.00    +0.000 A 
ATOM      3  C   UNL     1      48.163   7.188  11.968  0.00  0.00    +0.000 A 
ATOM      4  C   UNL     1      46.928   6.604  11.661  0.00  0.00    +0.000 A 
ATOM      5  C   UNL     1      45.730   7.254  11.986  0.00  0.00    +0.000 A 
ATOM      6  C   UNL     1      45.794   8.543  12.523  0.00  0.00    +0.000 A 
ATOM      7  C   UNL     1      47.026   9.134  12.806  0.00  0.00    +0.000 A 
BRANCH   5   8
ATOM      8  C   UNL     1      44.395   6.572  11.797  0.00  0.00    +0.000 C 
BRANCH   8   9
ATOM      9  N   UNL     1      44.332   5.930  10.485  0.00  0.00    +0.000 NA
ATOM     10  H   UNL     1      45.225   6.065  10.010  0.00  0.00    +0.000 HD
BRANCH   9  11
ATOM     11  C   UNL     1      44.093   4.487  10.604  0.00  0.00    +0.000 C 
BRANCH  11  12
ATOM     12  C   UNL     1      44.879   3.697   9.574  0.00  0.00    +0.000 A 
ATOM     13  C   UNL     1      45.615   4.365   8.595  0.00  0.00    +0.000 A 
ATOM     14  C   UNL     1      46.323   3.622   7.656  0.00  0.00    +0.000 A 
ATOM     15  C   UNL     1      46.278   2.235   7.715  0.00  0.00    +0.000 A 
ATOM     16  C   UNL     1      45.526   1.647   8.719  0.00  0.00    +0.000 A 
ATOM     17  N   UNL     1      44.828   2.342   9.646  0.00  0.00    +0.000 NA
ENDBRANCH  11  12
ENDBRANCH   9  11
ENDBRANCH   8   9
ENDBRANCH   5   8
ENDBRANCH   1   2
BRANCH   1  18
ATOM     18  N   UNL     1      50.164   8.052  14.029  0.00  0.00    +0.000 N 
ATOM     19  C   UNL     1      50.381   8.359  15.347  0.00  0.00    +0.000 C 
ATOM     20  O   UNL     1      50.138   9.466  15.816  0.00  0.00    +0.000 OA
ATOM     21  H   UNL     1      50.278   7.095  13.711  0.00  0.00    +0.000 HD
BRANCH  19  22
ATOM     22  C   UNL     1      50.965   7.291  16.171  0.00  0.00    +0.000 A 
ATOM     23  C   UNL     1      52.243   7.442  16.697  0.00  0.00    +0.000 A 
ATOM     24  S   UNL     1      52.751   6.114  17.639  0.00  0.00    +0.000 S 
ATOM     25  C   UNL     1      51.264   5.316  17.418  0.00  0.00    +0.000 A 
ATOM     26  N   UNL     1      51.016   4.124  18.017  0.00  0.00    +0.000 NA
ATOM     27  C   UNL     1      49.832   3.649  17.797  0.00  0.00    +0.000 A 
ATOM     28  N   UNL     1      48.867   4.242  17.011  0.00  0.00    +0.000 N 
ATOM     29  C   UNL     1      47.581   3.612  16.806  0.00  0.00    +0.000 C 
ATOM     30  C   UNL     1      49.113   5.430  16.334  0.00  0.00    +0.000 A 
ATOM     31  O   UNL     1      48.311   5.917  15.542  0.00  0.00    +0.000 OA
ATOM     32  C   UNL     1      50.410   6.028  16.599  0.00  0.00    +0.000 A 
ENDBRANCH  19  22
ENDBRANCH   1  18
BRANCH   1  34
ATOM     33  C   UNL     1      50.674  10.785  11.634  0.00  0.00    +0.000 C 
ATOM     34  C   UNL     1      50.563   9.298  11.948  0.00  0.00    +0.000 C 
ENDBRANCH   1  34
TORSDOF 8
ENDMDL
MODEL 9
REMARK VINA RESULT:    -6.050      2.461      4.658
REMARK INTER + INTRA:         -10.496
REMARK INTER:                  -9.293
REMARK INTRA:                  -1.204
REMARK UNBOUND:                -1.617
REMARK  Name = 
REMARK  10 active torsions:
REMARK  status: ('A' for Active; 'I' for Inactive)
REMARK    1  A    between atoms: C_1  and  C_2
REMARK    2  A    between atoms: C_2  and  C_3
REMARK    3  A    between atoms: C_3  and  N_4
REMARK    4  A    between atoms: C_3  and  C_18
REMARK    5  A    between atoms: C_5  and  C_7
REMARK    6  A    between atoms: N_13  and  C_14
REMARK    7  A    between atoms: C_21  and  C_22
REMARK    8  A    between atoms: C_22  and  N_23
REMARK    9  A    between atoms: N_23  and  C_24
REMARK   10  A    between atoms: C_24  and  C_25
REMARK                            x       y       z     vdW  Elec       q    Type
REMARK                         _______ _______ _______ _____ _____    ______ ____
ROOT
ATOM      1  C   UNL     1      48.354   4.691  17.757  0.00  0.00    +0.000 C 
ENDROOT
BRANCH   1   2
ATOM      2  C   UNL     1      48.024   4.970  16.292  0.00  0.00    +0.000 A 
ATOM      3  C   UNL     1      47.221   4.071  15.571  0.00  0.00    +0.000 A 
ATOM      4  C   UNL     1      46.780   4.385  14.280  0.00  0.00    +0.000 A 
ATOM      5  C   UNL     1      47.131   5.604  13.682  0.00  0.00    +0.000 A 
ATOM      6  C   UNL     1      48.016   6.449  14.357  0.00  0.00    +0.000 A 
ATOM      7  C   UNL     1      48.475   6.123  15.634  0.00  0.00    +0.000 A 
BRANCH   5   8
ATOM      8  C   UNL     1      46.542   6.020  12.354  0.00  0.00    +0.000 C 
BRANCH   8   9
ATOM      9  N   UNL     1      45.499   5.081  11.943  0.00  0.00    +0.000 NA
ATOM     10  H   UNL     1      44.719   5.147  12.598  0.00  0.00    +0.000 HD
BRANCH   9  11
ATOM     11  C   UNL     1      44.994   5.393  10.601  0.00  0.00    +0.000 C 
BRANCH  11  12
ATOM     12  C   UNL     1      45.335   4.304   9.601  0.00  0.00    +0.000 A 
ATOM     13  C   UNL     1      45.946   4.633   8.391  0.00  0.00    +0.000 A 
ATOM     14  C   UNL     1      46.244   3.620   7.485  0.00  0.00    +0.000 A 
ATOM     15  C   UNL     1      45.922   2.307   7.806  0.00  0.00    +0.000 A 
ATOM     16  C   UNL     1      45.317   2.062   9.028  0.00  0.00    +0.000 A 
ATOM     17  N   UNL     1      45.016   3.025   9.929  0.00  0.00    +0.000 NA
ENDBRANCH  11  12
ENDBRANCH   9  11
ENDBRANCH   8   9
ENDBRANCH   5   8
ENDBRANCH   1   2
BRANCH   1  18
ATOM     18  N   UNL     1      49.787   4.770  17.959  0.00  0.00    +0.000 N 
ATOM     19  C   UNL     1      50.657   3.796  17.541  0.00  0.00    +0.000 C 
ATOM     20  O   UNL     1      50.278   2.755  17.014  0.00  0.00    +0.000 OA
ATOM     21  H   UNL     1      50.150   5.657  18.291  0.00  0.00    +0.000 HD
BRANCH  19  22
ATOM     22  C   UNL     1      52.082   4.048  17.799  0.00  0.00    +0.000 A 
ATOM     23  C   UNL     1      52.818   3.147  18.559  0.00  0.00    +0.000 A 
ATOM     24  S   UNL     1      54.455   3.591  18.742  0.00  0.00    +0.000 S 
ATOM     25  C   UNL     1      54.247   4.972  17.770  0.00  0.00    +0.000 A 
ATOM     26  N   UNL     1      55.295   5.784  17.476  0.00  0.00    +0.000 NA
ATOM     27  C   UNL     1      55.004   6.774  16.694  0.00  0.00    +0.000 A 
ATOM     28  N   UNL     1      53.751   7.052  16.190  0.00  0.00    +0.000 N 
ATOM     29  C   UNL     1      53.526   8.206  15.345  0.00  0.00    +0.000 C 
ATOM     30  C   UNL     1      52.647   6.278  16.524  0.00  0.00    +0.000 A 
ATOM     31  O   UNL     1      51.506   6.571  16.178  0.00  0.00    +0.000 OA
ATOM     32  C   UNL     1      52.939   5.120  17.352  0.00  0.00    +0.000 A 
ENDBRANCH  19  22
ENDBRANCH   1  18
BRANCH   1  34
ATOM     33  C   UNL     1      48.417   6.864  19.123  0.00  0.00    +0.000 C 
ATOM     34  C   UNL     1      47.622   5.618  18.752  0.00  0.00    +0.000 C 
ENDBRANCH   1  34
TORSDOF 8
ENDMDL
