MODEL 1
REMARK VINA RESULT:    -8.715      0.000      0.000
REMARK INTER + INTRA:         -12.084
REMARK INTER:                 -11.263
REMARK INTRA:                  -0.821
REMARK UNBOUND:                -0.821
REMARK  Name = 
REMARK  5 active torsions:
REMARK  status: ('A' for Active; 'I' for Inactive)
REMARK    1  A    between atoms: C_2  and  C_4
REMARK    2  A    between atoms: C_7  and  O_8
REMARK    3  A    between atoms: O_8  and  C_9
REMARK    4  A    between atoms: C_9  and  C_10
REMARK    5  A    between atoms: C_15  and  C_16
REMARK                            x       y       z     vdW  Elec       q    Type
REMARK                         _______ _______ _______ _____ _____    ______ ____
ROOT
ATOM      1  C   UNL     1      43.695   4.258  11.223  0.00  0.00    +0.000 C 
ENDROOT
BRANCH   1   2
ATOM      2  C   UNL     1      44.898   4.720  12.022  0.00  0.00    +0.000 A 
ATOM      3  C   UNL     1      45.545   3.876  12.926  0.00  0.00    +0.000 A 
ATOM      4  C   UNL     1      46.675   4.322  13.607  0.00  0.00    +0.000 A 
ATOM      5  C   UNL     1      47.165   5.608  13.379  0.00  0.00    +0.000 A 
ATOM      6  F   UNL     1      48.241   5.985  14.087  0.00  0.00    +0.000 F 
ATOM      7  C   UNL     1      46.570   6.488  12.459  0.00  0.00    +0.000 A 
ATOM      8  C   UNL     1      45.430   6.005  11.782  0.00  0.00    +0.000 A 
BRANCH   7   9
ATOM      9  C   UNL     1      47.101   7.848  12.204  0.00  0.00    +0.000 A 
ATOM     10  C   UNL     1      48.415   8.071  11.761  0.00  0.00    +0.000 A 
ATOM     11  C   UNL     1      48.884   9.363  11.523  0.00  0.00    +0.000 A 
ATOM     12  C   UNL     1      48.021  10.423  11.727  0.00  0.00    +0.000 A 
ATOM     13  N   UNL     1      46.754  10.273  12.160  0.00  0.00    +0.000 NA
ATOM     14  C   UNL     1      46.334   9.003  12.387  0.00  0.00    +0.000 A 
ENDBRANCH   7   9
ENDBRANCH   1   2
BRANCH   1  15
ATOM     15  O   UNL     1      43.752   4.722   9.869  0.00  0.00    +0.000 OA
BRANCH  15  19
ATOM     16  C   UNL     1      46.447   2.503   7.679  0.00  0.00    +0.000 A 
ATOM     17  C   UNL     1      45.573   1.857   8.556  0.00  0.00    +0.000 A 
ATOM     18  C   UNL     1      44.658   2.616   9.292  0.00  0.00    +0.000 A 
ATOM     19  C   UNL     1      44.654   3.993   9.119  0.00  0.00    +0.000 A 
ATOM     20  N   UNL     1      45.484   4.642   8.275  0.00  0.00    +0.000 NA
ATOM     21  C   UNL     1      46.367   3.885   7.584  0.00  0.00    +0.000 A 
BRANCH  16  23
ATOM     22  N   UNL     1      48.535   2.550   6.436  0.00  0.00    +0.000 N 
ATOM     23  C   UNL     1      47.479   1.810   6.881  0.00  0.00    +0.000 C 
ATOM     24  O   UNL     1      47.405   0.609   6.655  0.00  0.00    +0.000 OA
ATOM     25  H   UNL     1      49.279   2.030   5.983  0.00  0.00    +0.000 HD
ATOM     26  H   UNL     1      48.763   3.461   6.808  0.00  0.00    +0.000 HD
ENDBRANCH  16  23
ENDBRANCH  15  19
ENDBRANCH   1  15
TORSDOF 5
ENDMDL
MODEL 2
REMARK VINA RESULT:    -8.350      1.941      2.462
REMARK INTER + INTRA:         -11.612
REMARK INTER:                 -10.750
REMARK INTRA:                  -0.862
REMARK UNBOUND:                -0.821
REMARK  Name = 
REMARK  5 active torsions:
REMARK  status: ('A' for Active; 'I' for Inactive)
REMARK    1  A    between atoms: C_2  and  C_4
REMARK    2  A    between atoms: C_7  and  O_8
REMARK    3  A    between atoms: O_8  and  C_9
REMARK    4  A    between atoms: C_9  and  C_10
REMARK    5  A    between atoms: C_15  and  C_16
REMARK                            x       y       z     vdW  Elec       q    Type
REMARK                         _______ _______ _______ _____ _____    ______ ____
ROOT
ATOM      1  C   UNL     1      44.324   3.190  11.418  0.00  0.00    +0.000 C 
ENDROOT
BRANCH   1   2
ATOM      2  C   UNL     1      44.590   4.678  11.542  0.00  0.00    +0.000 A 
ATOM      3  C   UNL     1      43.575   5.620  11.370  0.00  0.00    +0.000 A 
ATOM      4  C   UNL     1      43.849   6.975  11.537  0.00  0.00    +0.000 A 
ATOM      5  C   UNL     1      45.134   7.390  11.886  0.00  0.00    +0.000 A 
ATOM      6  F   UNL     1      45.338   8.711  12.006  0.00  0.00    +0.000 F 
ATOM      7  C   UNL     1      46.185   6.482  12.099  0.00  0.00    +0.000 A 
ATOM      8  C   UNL     1      45.875   5.116  11.926  0.00  0.00    +0.000 A 
BRANCH   7   9
ATOM      9  C   UNL     1      47.547   6.921  12.486  0.00  0.00    +0.000 A 
ATOM     10  C   UNL     1      48.388   7.623  11.608  0.00  0.00    +0.000 A 
ATOM     11  C   UNL     1      49.663   8.030  12.005  0.00  0.00    +0.000 A 
ATOM     12  C   UNL     1      50.078   7.732  13.289  0.00  0.00    +0.000 A 
ATOM     13  N   UNL     1      49.320   7.055  14.173  0.00  0.00    +0.000 NA
ATOM     14  C   UNL     1      48.089   6.669  13.751  0.00  0.00    +0.000 A 
ENDBRANCH   7   9
ENDBRANCH   1   2
BRANCH   1  15
ATOM     15  O   UNL     1      43.736   2.865  10.152  0.00  0.00    +0.000 OA
BRANCH  15  19
ATOM     16  C   UNL     1      46.557   2.503   7.171  0.00  0.00    +0.000 A 
ATOM     17  C   UNL     1      45.853   3.701   7.312  0.00  0.00    +0.000 A 
ATOM     18  C   UNL     1      44.901   3.818   8.330  0.00  0.00    +0.000 A 
ATOM     19  C   UNL     1      44.693   2.731   9.166  0.00  0.00    +0.000 A 
ATOM     20  N   UNL     1      45.362   1.563   9.054  0.00  0.00    +0.000 NA
ATOM     21  C   UNL     1      46.270   1.473   8.055  0.00  0.00    +0.000 A 
BRANCH  16  23
ATOM     22  N   UNL     1      47.571   3.099   5.044  0.00  0.00    +0.000 N 
ATOM     23  C   UNL     1      47.557   2.252   6.112  0.00  0.00    +0.000 C 
ATOM     24  O   UNL     1      48.365   1.337   6.208  0.00  0.00    +0.000 OA
ATOM     25  H   UNL     1      48.334   2.969   4.387  0.00  0.00    +0.000 HD
ATOM     26  H   UNL     1      47.109   3.997   5.048  0.00  0.00    +0.000 HD
ENDBRANCH  16  23
ENDBRANCH  15  19
ENDBRANCH   1  15
TORSDOF 5
ENDMDL
MODEL 3
REMARK VINA RESULT:    -8.010      2.294      3.809
REMARK INTER + INTRA:         -11.172
REMARK INTER:                 -10.775
REMARK INTRA:                  -0.397
REMARK UNBOUND:                -0.821
REMARK  Name = 
REMARK  5 active torsions:
REMARK  status: ('A' for Active; 'I' for Inactive)
REMARK    1  A    between atoms: C_2  and  C_4
REMARK    2  A    between atoms: C_7  and  O_8
REMARK    3  A    between atoms: O_8  and  C_9
REMARK    4  A    between atoms: C_9  and  C_10
REMARK    5  A    between atoms: C_15  and  C_16
REMARK                            x       y       z     vdW  Elec       q    Type
REMARK                         _______ _______ _______ _____ _____    ______ ____
ROOT
ATOM      1  C   UNL     1      44.247   4.378  11.538  0.00  0.00    +0.000 C 
ENDROOT
BRANCH   1   2
ATOM      2  C   UNL     1      45.457   5.068  12.136  0.00  0.00    +0.000 A 
ATOM      3  C   UNL     1      46.027   6.194  11.539  0.00  0.00    +0.000 A 
ATOM      4  C   UNL     1      47.111   6.828  12.142  0.00  0.00    +0.000 A 
ATOM      5  C   UNL     1      47.620   6.343  13.347  0.00  0.00    +0.000 A 
ATOM      6  F   UNL     1      48.681   6.983  13.862  0.00  0.00    +0.000 F 
ATOM      7  C   UNL     1      47.067   5.231  14.005  0.00  0.00    +0.000 A 
ATOM      8  C   UNL     1      45.968   4.614  13.370  0.00  0.00    +0.000 A 
BRANCH   7   9
ATOM      9  C   UNL     1      47.598   4.727  15.294  0.00  0.00    +0.000 A 
ATOM     10  C   UNL     1      47.513   3.375  15.664  0.00  0.00    +0.000 A 
ATOM     11  C   UNL     1      48.029   2.929  16.882  0.00  0.00    +0.000 A 
ATOM     12  C   UNL     1      48.634   3.851  17.715  0.00  0.00    +0.000 A 
ATOM     13  N   UNL     1      48.737   5.160  17.419  0.00  0.00    +0.000 NA
ATOM     14  C   UNL     1      48.219   5.559  16.230  0.00  0.00    +0.000 A 
ENDBRANCH   7   9
ENDBRANCH   1   2
BRANCH   1  15
ATOM     15  O   UNL     1      44.094   4.693  10.148  0.00  0.00    +0.000 OA
BRANCH  15  19
ATOM     16  C   UNL     1      46.495   2.375   7.732  0.00  0.00    +0.000 A 
ATOM     17  C   UNL     1      46.477   3.761   7.560  0.00  0.00    +0.000 A 
ATOM     18  C   UNL     1      45.665   4.541   8.388  0.00  0.00    +0.000 A 
ATOM     19  C   UNL     1      44.901   3.902   9.355  0.00  0.00    +0.000 A 
ATOM     20  N   UNL     1      44.903   2.566   9.545  0.00  0.00    +0.000 NA
ATOM     21  C   UNL     1      45.690   1.833   8.724  0.00  0.00    +0.000 A 
BRANCH  16  23
ATOM     22  N   UNL     1      48.373   1.953   6.248  0.00  0.00    +0.000 N 
ATOM     23  C   UNL     1      47.284   1.448   6.895  0.00  0.00    +0.000 C 
ATOM     24  O   UNL     1      46.991   0.262   6.812  0.00  0.00    +0.000 OA
ATOM     25  H   UNL     1      48.956   1.276   5.768  0.00  0.00    +0.000 HD
ATOM     26  H   UNL     1      48.791   2.841   6.488  0.00  0.00    +0.000 HD
ENDBRANCH  16  23
ENDBRANCH  15  19
ENDBRANCH   1  15
TORSDOF 5
ENDMDL
MODEL 4
REMARK VINA RESULT:    -7.496      3.011      7.028
REMARK INTER + INTRA:         -10.508
REMARK INTER:                  -9.818
REMARK INTRA:                  -0.691
REMARK UNBOUND:                -0.821
REMARK  Name = 
REMARK  5 active torsions:
REMARK  status: ('A' for Active; 'I' for Inactive)
REMARK    1  A    between atoms: C_2  and  C_4
REMARK    2  A    between atoms: C_7  and  O_8
REMARK    3  A    between atoms: O_8  and  C_9
REMARK    4  A    between atoms: C_9  and  C_10
REMARK    5  A    between atoms: C_15  and  C_16
REMARK                            x       y       z     vdW  Elec       q    Type
REMARK                         _______ _______ _______ _____ _____    ______ ____
ROOT
ATOM      1  C   UNL     1      44.605   6.444  10.875  0.00  0.00    +0.000 C 
ENDROOT
BRANCH   1   2
ATOM      2  C   UNL     1      44.592   4.993  10.434  0.00  0.00    +0.000 A 
ATOM      3  C   UNL     1      43.756   4.052  11.039  0.00  0.00    +0.000 A 
ATOM      4  C   UNL     1      43.739   2.738  10.576  0.00  0.00    +0.000 A 
ATOM      5  C   UNL     1      44.550   2.366   9.504  0.00  0.00    +0.000 A 
ATOM      6  F   UNL     1      44.506   1.079   9.124  0.00  0.00    +0.000 F 
ATOM      7  C   UNL     1      45.389   3.279   8.842  0.00  0.00    +0.000 A 
ATOM      8  C   UNL     1      45.380   4.602   9.331  0.00  0.00    +0.000 A 
BRANCH   7   9
ATOM      9  C   UNL     1      46.237   2.886   7.691  0.00  0.00    +0.000 A 
ATOM     10  C   UNL     1      46.276   3.627   6.499  0.00  0.00    +0.000 A 
ATOM     11  C   UNL     1      47.092   3.235   5.436  0.00  0.00    +0.000 A 
ATOM     12  C   UNL     1      47.868   2.102   5.586  0.00  0.00    +0.000 A 
ATOM     13  N   UNL     1      47.867   1.347   6.701  0.00  0.00    +0.000 NA
ATOM     14  C   UNL     1      47.057   1.754   7.712  0.00  0.00    +0.000 A 
ENDBRANCH   7   9
ENDBRANCH   1   2
BRANCH   1  15
ATOM     15  O   UNL     1      44.542   6.561  12.302  0.00  0.00    +0.000 OA
BRANCH  15  19
ATOM     16  C   UNL     1      48.283   6.756  14.018  0.00  0.00    +0.000 A 
ATOM     17  C   UNL     1      47.558   5.564  14.079  0.00  0.00    +0.000 A 
ATOM     18  C   UNL     1      46.292   5.504  13.489  0.00  0.00    +0.000 A 
ATOM     19  C   UNL     1      45.802   6.640  12.861  0.00  0.00    +0.000 A 
ATOM     20  N   UNL     1      46.483   7.803  12.785  0.00  0.00    +0.000 NA
ATOM     21  C   UNL     1      47.701   7.838  13.372  0.00  0.00    +0.000 A 
BRANCH  16  23
ATOM     22  N   UNL     1      50.508   7.733  13.973  0.00  0.00    +0.000 N 
ATOM     23  C   UNL     1      49.611   6.948  14.636  0.00  0.00    +0.000 C 
ATOM     24  O   UNL     1      49.885   6.449  15.719  0.00  0.00    +0.000 OA
ATOM     25  H   UNL     1      51.370   7.935  14.468  0.00  0.00    +0.000 HD
ATOM     26  H   UNL     1      50.244   8.359  13.225  0.00  0.00    +0.000 HD
ENDBRANCH  16  23
ENDBRANCH  15  19
ENDBRANCH   1  15
TORSDOF 5
ENDMDL
MODEL 5
REMARK VINA RESULT:    -7.205      3.100      6.802
REMARK INTER + INTRA:         -10.133
REMARK INTER:                  -9.506
REMARK INTRA:                  -0.626
REMARK UNBOUND:                -0.821
REMARK  Name = 
REMARK  5 active torsions:
REMARK  status: ('A' for Active; 'I' for Inactive)
REMARK    1  A    between atoms: C_2  and  C_4
REMARK    2  A    between atoms: C_7  and  O_8
REMARK    3  A    between atoms: O_8  and  C_9
REMARK    4  A    between atoms: C_9  and  C_10
REMARK    5  A    between atoms: C_15  and  C_16
REMARK                            x       y       z     vdW  Elec       q    Type
REMARK                         _______ _______ _______ _____ _____    ______ ____
ROOT
ATOM      1  C   UNL     1      44.568   6.494  11.504  0.00  0.00    +0.000 C 
ENDROOT
BRANCH   1   2
ATOM      2  C   UNL     1      44.455   5.060  11.028  0.00  0.00    +0.000 A 
ATOM      3  C   UNL     1      43.573   4.157  11.625  0.00  0.00    +0.000 A 
ATOM      4  C   UNL     1      43.464   2.860  11.130  0.00  0.00    +0.000 A 
ATOM      5  C   UNL     1      44.229   2.466  10.031  0.00  0.00    +0.000 A 
ATOM      6  F   UNL     1      44.097   1.195   9.620  0.00  0.00    +0.000 F 
ATOM      7  C   UNL     1      45.110   3.342   9.375  0.00  0.00    +0.000 A 
ATOM      8  C   UNL     1      45.195   4.650   9.898  0.00  0.00    +0.000 A 
BRANCH   7   9
ATOM      9  C   UNL     1      45.910   2.928   8.198  0.00  0.00    +0.000 A 
ATOM     10  C   UNL     1      46.190   3.802   7.134  0.00  0.00    +0.000 A 
ATOM     11  C   UNL     1      46.952   3.384   6.042  0.00  0.00    +0.000 A 
ATOM     12  C   UNL     1      47.434   2.089   6.035  0.00  0.00    +0.000 A 
ATOM     13  N   UNL     1      47.192   1.203   7.020  0.00  0.00    +0.000 NA
ATOM     14  C   UNL     1      46.442   1.642   8.063  0.00  0.00    +0.000 A 
ENDBRANCH   7   9
ENDBRANCH   1   2
BRANCH   1  15
ATOM     15  O   UNL     1      45.199   6.574  12.788  0.00  0.00    +0.000 OA
BRANCH  15  19
ATOM     16  C   UNL     1      49.156   7.657  12.408  0.00  0.00    +0.000 A 
ATOM     17  C   UNL     1      48.163   8.469  11.856  0.00  0.00    +0.000 A 
ATOM     18  C   UNL     1      46.822   8.098  11.995  0.00  0.00    +0.000 A 
ATOM     19  C   UNL     1      46.529   6.928  12.680  0.00  0.00    +0.000 A 
ATOM     20  N   UNL     1      47.469   6.127  13.226  0.00  0.00    +0.000 NA
ATOM     21  C   UNL     1      48.759   6.503  13.069  0.00  0.00    +0.000 A 
BRANCH  16  23
ATOM     22  N   UNL     1      51.264   7.393  11.227  0.00  0.00    +0.000 N 
ATOM     23  C   UNL     1      50.604   7.928  12.293  0.00  0.00    +0.000 C 
ATOM     24  O   UNL     1      51.183   8.636  13.107  0.00  0.00    +0.000 OA
ATOM     25  H   UNL     1      52.230   7.681  11.114  0.00  0.00    +0.000 HD
ATOM     26  H   UNL     1      50.789   7.029  10.413  0.00  0.00    +0.000 HD
ENDBRANCH  16  23
ENDBRANCH  15  19
ENDBRANCH   1  15
TORSDOF 5
ENDMDL
MODEL 6
REMARK VINA RESULT:    -6.918      5.544      8.036
REMARK INTER + INTRA:          -9.761
REMARK INTER:                  -8.911
REMARK INTRA:                  -0.850
REMARK UNBOUND:                -0.821
REMARK  Name = 
REMARK  5 active torsions:
REMARK  status: ('A' for Active; 'I' for Inactive)
REMARK    1  A    between atoms: C_2  and  C_4
REMARK    2  A    between atoms: C_7  and  O_8
REMARK    3  A    between atoms: O_8  and  C_9
REMARK    4  A    between atoms: C_9  and  C_10
REMARK    5  A    between atoms: C_15  and  C_16
REMARK                            x       y       z     vdW  Elec       q    Type
REMARK                         _______ _______ _______ _____ _____    ______ ____
ROOT
ATOM      1  C   UNL     1      49.190   6.512  16.048  0.00  0.00    +0.000 C 
ENDROOT
BRANCH   1   2
ATOM      2  C   UNL     1      48.581   6.573  14.660  0.00  0.00    +0.000 A 
ATOM      3  C   UNL     1      49.188   7.288  13.626  0.00  0.00    +0.000 A 
ATOM      4  C   UNL     1      48.622   7.284  12.353  0.00  0.00    +0.000 A 
ATOM      5  C   UNL     1      47.456   6.558  12.110  0.00  0.00    +0.000 A 
ATOM      6  F   UNL     1      46.948   6.617  10.869  0.00  0.00    +0.000 F 
ATOM      7  C   UNL     1      46.821   5.799  13.108  0.00  0.00    +0.000 A 
ATOM      8  C   UNL     1      47.420   5.820  14.385  0.00  0.00    +0.000 A 
BRANCH   7   9
ATOM      9  C   UNL     1      45.591   5.014  12.845  0.00  0.00    +0.000 A 
ATOM     10  C   UNL     1      44.318   5.605  12.798  0.00  0.00    +0.000 A 
ATOM     11  C   UNL     1      43.180   4.840  12.540  0.00  0.00    +0.000 A 
ATOM     12  C   UNL     1      43.334   3.483  12.325  0.00  0.00    +0.000 A 
ATOM     13  N   UNL     1      44.526   2.859  12.367  0.00  0.00    +0.000 NA
ATOM     14  C   UNL     1      45.611   3.633  12.626  0.00  0.00    +0.000 A 
ENDBRANCH   7   9
ENDBRANCH   1   2
BRANCH   1  15
ATOM     15  O   UNL     1      48.605   5.465  16.833  0.00  0.00    +0.000 OA
BRANCH  15  19
ATOM     16  C   UNL     1      51.327   2.445  17.501  0.00  0.00    +0.000 A 
ATOM     17  C   UNL     1      51.702   3.772  17.721  0.00  0.00    +0.000 A 
ATOM     18  C   UNL     1      50.771   4.791  17.498  0.00  0.00    +0.000 A 
ATOM     19  C   UNL     1      49.501   4.440  17.063  0.00  0.00    +0.000 A 
ATOM     20  N   UNL     1      49.112   3.166  16.846  0.00  0.00    +0.000 NA
ATOM     21  C   UNL     1      50.035   2.200  17.060  0.00  0.00    +0.000 A 
BRANCH  16  23
ATOM     22  N   UNL     1      51.701   0.132  18.147  0.00  0.00    +0.000 N 
ATOM     23  C   UNL     1      52.235   1.292  17.667  0.00  0.00    +0.000 C 
ATOM     24  O   UNL     1      53.416   1.364  17.354  0.00  0.00    +0.000 OA
ATOM     25  H   UNL     1      52.319  -0.672  18.151  0.00  0.00    +0.000 HD
ATOM     26  H   UNL     1      50.707  -0.046  18.173  0.00  0.00    +0.000 HD
ENDBRANCH  16  23
ENDBRANCH  15  19
ENDBRANCH   1  15
TORSDOF 5
ENDMDL
MODEL 7
REMARK VINA RESULT:    -6.758      3.980      7.624
REMARK INTER + INTRA:          -9.555
REMARK INTER:                  -9.070
REMARK INTRA:                  -0.485
REMARK UNBOUND:                -0.821
REMARK  Name = 
REMARK  5 active torsions:
REMARK  status: ('A' for Active; 'I' for Inactive)
REMARK    1  A    between atoms: C_2  and  C_4
REMARK    2  A    between atoms: C_7  and  O_8
REMARK    3  A    between atoms: O_8  and  C_9
REMARK    4  A    between atoms: C_9  and  C_10
REMARK    5  A    between atoms: C_15  and  C_16
REMARK                            x       y       z     vdW  Elec       q    Type
REMARK                         _______ _______ _______ _____ _____    ______ ____
ROOT
ATOM      1  C   UNL     1      45.376   5.816  12.588  0.00  0.00    +0.000 C 
ENDROOT
BRANCH   1   2
ATOM      2  C   UNL     1      44.912   4.588  11.830  0.00  0.00    +0.000 A 
ATOM      3  C   UNL     1      43.834   3.819  12.271  0.00  0.00    +0.000 A 
ATOM      4  C   UNL     1      43.408   2.724  11.522  0.00  0.00    +0.000 A 
ATOM      5  C   UNL     1      44.054   2.402  10.328  0.00  0.00    +0.000 A 
ATOM      6  F   UNL     1      43.611   1.320   9.668  0.00  0.00    +0.000 F 
ATOM      7  C   UNL     1      45.125   3.159   9.824  0.00  0.00    +0.000 A 
ATOM      8  C   UNL     1      45.529   4.264  10.603  0.00  0.00    +0.000 A 
BRANCH   7   9
ATOM      9  C   UNL     1      45.799   2.827   8.546  0.00  0.00    +0.000 A 
ATOM     10  C   UNL     1      46.005   3.779   7.535  0.00  0.00    +0.000 A 
ATOM     11  C   UNL     1      46.650   3.437   6.345  0.00  0.00    +0.000 A 
ATOM     12  C   UNL     1      47.090   2.136   6.187  0.00  0.00    +0.000 A 
ATOM     13  N   UNL     1      46.914   1.177   7.116  0.00  0.00    +0.000 NA
ATOM     14  C   UNL     1      46.277   1.544   8.258  0.00  0.00    +0.000 A 
ENDBRANCH   7   9
ENDBRANCH   1   2
BRANCH   1  15
ATOM     15  O   UNL     1      46.804   5.856  12.702  0.00  0.00    +0.000 OA
BRANCH  15  19
ATOM     16  C   UNL     1      48.107   4.968  16.509  0.00  0.00    +0.000 A 
ATOM     17  C   UNL     1      48.591   6.107  15.863  0.00  0.00    +0.000 A 
ATOM     18  C   UNL     1      48.140   6.405  14.573  0.00  0.00    +0.000 A 
ATOM     19  C   UNL     1      47.221   5.549  13.982  0.00  0.00    +0.000 A 
ATOM     20  N   UNL     1      46.734   4.444  14.586  0.00  0.00    +0.000 NA
ATOM     21  C   UNL     1      47.194   4.173  15.829  0.00  0.00    +0.000 A 
BRANCH  16  23
ATOM     22  N   UNL     1      47.710   3.699  18.544  0.00  0.00    +0.000 N 
ATOM     23  C   UNL     1      48.538   4.534  17.854  0.00  0.00    +0.000 C 
ATOM     24  O   UNL     1      49.616   4.883  18.317  0.00  0.00    +0.000 OA
ATOM     25  H   UNL     1      48.077   3.332  19.415  0.00  0.00    +0.000 HD
ATOM     26  H   UNL     1      46.954   3.191  18.107  0.00  0.00    +0.000 HD
ENDBRANCH  16  23
ENDBRANCH  15  19
ENDBRANCH   1  15
TORSDOF 5
ENDMDL
MODEL 8
REMARK VINA RESULT:    -6.603      4.657      8.179
REMARK INTER + INTRA:          -9.355
REMARK INTER:                  -8.545
REMARK INTRA:                  -0.810
REMARK UNBOUND:                -0.821
REMARK  Name = 
REMARK  5 active torsions:
REMARK  status: ('A' for Active; 'I' for Inactive)
REMARK    1  A    between atoms: C_2  and  C_4
REMARK    2  A    between atoms: C_7  and  O_8
REMARK    3  A    between atoms: O_8  and  C_9
REMARK    4  A    between atoms: C_9  and  C_10
REMARK    5  A    between atoms: C_15  and  C_16
REMARK                            x       y       z     vdW  Elec       q    Type
REMARK                         _______ _______ _______ _____ _____    ______ ____
ROOT
ATOM      1  C   UNL     1      48.377   7.277  14.145  0.00  0.00    +0.000 C 
ENDROOT
BRANCH   1   2
ATOM      2  C   UNL     1      47.131   7.423  13.293  0.00  0.00    +0.000 A 
ATOM      3  C   UNL     1      46.385   8.603  13.282  0.00  0.00    +0.000 A 
ATOM      4  C   UNL     1      45.273   8.714  12.452  0.00  0.00    +0.000 A 
ATOM      5  C   UNL     1      44.910   7.651  11.624  0.00  0.00    +0.000 A 
ATOM      6  F   UNL     1      43.814   7.814  10.867  0.00  0.00    +0.000 F 
ATOM      7  C   UNL     1      45.643   6.453  11.574  0.00  0.00    +0.000 A 
ATOM      8  C   UNL     1      46.766   6.373  12.424  0.00  0.00    +0.000 A 
BRANCH   7   9
ATOM      9  C   UNL     1      45.268   5.331  10.681  0.00  0.00    +0.000 A 
ATOM     10  C   UNL     1      45.714   5.245   9.352  0.00  0.00    +0.000 A 
ATOM     11  C   UNL     1      45.349   4.172   8.539  0.00  0.00    +0.000 A 
ATOM     12  C   UNL     1      44.541   3.186   9.074  0.00  0.00    +0.000 A 
ATOM     13  N   UNL     1      44.075   3.218  10.337  0.00  0.00    +0.000 NA
ATOM     14  C   UNL     1      44.445   4.280  11.098  0.00  0.00    +0.000 A 
ENDBRANCH   7   9
ENDBRANCH   1   2
BRANCH   1  15
ATOM     15  O   UNL     1      48.612   5.910  14.503  0.00  0.00    +0.000 OA
BRANCH  15  19
ATOM     16  C   UNL     1      48.129   5.283  18.547  0.00  0.00    +0.000 A 
ATOM     17  C   UNL     1      47.528   4.411  17.638  0.00  0.00    +0.000 A 
ATOM     18  C   UNL     1      47.701   4.626  16.267  0.00  0.00    +0.000 A 
ATOM     19  C   UNL     1      48.470   5.708  15.862  0.00  0.00    +0.000 A 
ATOM     20  N   UNL     1      49.066   6.564  16.719  0.00  0.00    +0.000 NA
ATOM     21  C   UNL     1      48.874   6.339  18.040  0.00  0.00    +0.000 A 
BRANCH  16  23
ATOM     22  N   UNL     1      48.478   4.056  20.616  0.00  0.00    +0.000 N 
ATOM     23  C   UNL     1      47.986   5.177  20.013  0.00  0.00    +0.000 C 
ATOM     24  O   UNL     1      47.475   6.076  20.668  0.00  0.00    +0.000 OA
ATOM     25  H   UNL     1      48.463   4.057  21.630  0.00  0.00    +0.000 HD
ATOM     26  H   UNL     1      49.122   3.425  20.160  0.00  0.00    +0.000 HD
ENDBRANCH  16  23
ENDBRANCH  15  19
ENDBRANCH   1  15
TORSDOF 5
ENDMDL
MODEL 9
REMARK VINA RESULT:    -6.356      5.574      7.536
REMARK INTER + INTRA:          -9.035
REMARK INTER:                  -8.513
REMARK INTRA:                  -0.522
REMARK UNBOUND:                -0.821
REMARK  Name = 
REMARK  5 active torsions:
REMARK  status: ('A' for Active; 'I' for Inactive)
REMARK    1  A    between atoms: C_2  and  C_4
REMARK    2  A    between atoms: C_7  and  O_8
REMARK    3  A    between atoms: O_8  and  C_9
REMARK    4  A    between atoms: C_9  and  C_10
REMARK    5  A    between atoms: C_15  and  C_16
REMARK                            x       y       z     vdW  Elec       q    Type
REMARK                         _______ _______ _______ _____ _____    ______ ____
ROOT
ATOM      1  C   UNL     1      47.133   4.014  16.019  0.00  0.00    +0.000 C 
ENDROOT
BRANCH   1   2
ATOM      2  C   UNL     1      48.196   4.198  17.085  0.00  0.00    +0.000 A 
ATOM      3  C   UNL     1      47.974   4.994  18.210  0.00  0.00    +0.000 A 
ATOM      4  C   UNL     1      48.958   5.103  19.190  0.00  0.00    +0.000 A 
ATOM      5  C   UNL     1      50.160   4.409  19.051  0.00  0.00    +0.000 A 
ATOM      6  F   UNL     1      51.077   4.578  20.017  0.00  0.00    +0.000 F 
ATOM      7  C   UNL     1      50.424   3.573  17.952  0.00  0.00    +0.000 A 
ATOM      8  C   UNL     1      49.406   3.481  16.980  0.00  0.00    +0.000 A 
BRANCH   7   9
ATOM      9  C   UNL     1      51.695   2.823  17.814  0.00  0.00    +0.000 A 
ATOM     10  C   UNL     1      51.730   1.437  17.592  0.00  0.00    +0.000 A 
ATOM     11  C   UNL     1      52.943   0.760  17.458  0.00  0.00    +0.000 A 
ATOM     12  C   UNL     1      54.114   1.489  17.542  0.00  0.00    +0.000 A 
ATOM     13  N   UNL     1      54.145   2.817  17.763  0.00  0.00    +0.000 NA
ATOM     14  C   UNL     1      52.947   3.441  17.894  0.00  0.00    +0.000 A 
ENDBRANCH   7   9
ENDBRANCH   1   2
BRANCH   1  15
ATOM     15  O   UNL     1      47.709   3.932  14.710  0.00  0.00    +0.000 OA
BRANCH  15  19
ATOM     16  C   UNL     1      44.932   4.841  11.805  0.00  0.00    +0.000 A 
ATOM     17  C   UNL     1      45.690   5.864  12.378  0.00  0.00    +0.000 A 
ATOM     18  C   UNL     1      46.635   5.547  13.359  0.00  0.00    +0.000 A 
ATOM     19  C   UNL     1      46.782   4.217  13.727  0.00  0.00    +0.000 A 
ATOM     20  N   UNL     1      46.065   3.209  13.187  0.00  0.00    +0.000 NA
ATOM     21  C   UNL     1      45.151   3.544  12.247  0.00  0.00    +0.000 A 
BRANCH  16  23
ATOM     22  N   UNL     1      43.056   6.132  10.957  0.00  0.00    +0.000 N 
ATOM     23  C   UNL     1      43.881   5.060  10.790  0.00  0.00    +0.000 C 
ATOM     24  O   UNL     1      43.779   4.326   9.816  0.00  0.00    +0.000 OA
ATOM     25  H   UNL     1      42.415   6.321  10.193  0.00  0.00    +0.000 HD
ATOM     26  H   UNL     1      43.264   6.893  11.588  0.00  0.00    +0.000 HD
ENDBRANCH  16  23
ENDBRANCH  15  19
ENDBRANCH   1  15
TORSDOF 5
ENDMDL
