MODEL 1
REMARK VINA RESULT:    -9.932      0.000      0.000
REMARK INTER + INTRA:         -14.250
REMARK INTER:                 -13.416
REMARK INTRA:                  -0.834
REMARK UNBOUND:                -0.834
REMARK  Name = 
REMARK  6 active torsions:
REMARK  status: ('A' for Active; 'I' for Inactive)
REMARK    1  A    between atoms: C_2  and  C_4
REMARK    2  A    between atoms: N_8  and  C_9
REMARK    3  A    between atoms: C_9  and  C_10
REMARK    4  A    between atoms: C_10  and  C_13
REMARK    5  A    between atoms: C_17  and  N_18
REMARK    6  A    between atoms: N_18  and  C_19
REMARK                            x       y       z     vdW  Elec       q    Type
REMARK                         _______ _______ _______ _____ _____    ______ ____
ROOT
ATOM      1  C   UNL     1      43.490   5.548  12.160  0.00  0.00    +0.000 C 
ATOM      2  F   UNL     1      43.140   6.732  11.567  0.00  0.00    +0.000 F 
ATOM      3  F   UNL     1      42.612   5.392  13.194  0.00  0.00    +0.000 F 
ENDROOT
BRANCH   1   4
ATOM      4  C   UNL     1      44.932   5.558  12.642  0.00  0.00    +0.000 A 
ATOM      5  C   UNL     1      45.867   6.439  12.084  0.00  0.00    +0.000 A 
ATOM      6  C   UNL     1      47.200   6.403  12.495  0.00  0.00    +0.000 A 
ATOM      7  C   UNL     1      47.616   5.480  13.461  0.00  0.00    +0.000 A 
ATOM      8  C   UNL     1      46.706   4.589  14.029  0.00  0.00    +0.000 A 
ATOM      9  C   UNL     1      45.362   4.654  13.631  0.00  0.00    +0.000 A 
BRANCH   8  10
ATOM     10  N   UNL     1      47.060   3.665  15.038  0.00  0.00    +0.000 N 
ATOM     11  H   UNL     1      46.346   2.937  15.075  0.00  0.00    +0.000 HD
BRANCH  10  12
ATOM     12  C   UNL     1      47.437   3.993  16.368  0.00  0.00    +0.000 C 
ATOM     13  C   UNL     1      48.668   3.179  16.817  0.00  0.00    +0.000 C 
ATOM     14  C   UNL     1      47.875   2.962  18.113  0.00  0.00    +0.000 C 
ATOM     15  N   UNL     1      46.641   3.234  17.341  0.00  0.00    +0.000 NA
ATOM     16  H   UNL     1      45.957   3.798  17.843  0.00  0.00    +0.000 HD
ENDBRANCH  10  12
ENDBRANCH   8  10
ENDBRANCH   1   4
BRANCH   1  17
ATOM     17  C   UNL     1      43.270   4.406  11.130  0.00  0.00    +0.000 C 
BRANCH  17  22
ATOM     18  C   UNL     1      46.504   2.500   7.673  0.00  0.00    +0.000 A 
ATOM     19  C   UNL     1      45.656   1.840   8.557  0.00  0.00    +0.000 A 
ATOM     20  C   UNL     1      44.725   2.579   9.287  0.00  0.00    +0.000 A 
ATOM     21  C   UNL     1      44.667   3.962   9.142  0.00  0.00    +0.000 A 
ATOM     22  N   UNL     1      43.715   4.746   9.770  0.00  0.00    +0.000 N 
ATOM     23  N   UNL     1      45.504   4.615   8.312  0.00  0.00    +0.000 NA
ATOM     24  C   UNL     1      46.405   3.880   7.601  0.00  0.00    +0.000 A 
ATOM     25  H   UNL     1      43.949   5.726   9.614  0.00  0.00    +0.000 HD
BRANCH  18  27
ATOM     26  N   UNL     1      48.560   2.508   6.380  0.00  0.00    +0.000 N 
ATOM     27  C   UNL     1      47.485   1.789   6.829  0.00  0.00    +0.000 C 
ATOM     28  O   UNL     1      47.360   0.598   6.568  0.00  0.00    +0.000 OA
ATOM     29  H   UNL     1      49.276   1.983   5.893  0.00  0.00    +0.000 HD
ATOM     30  H   UNL     1      48.823   3.396   6.778  0.00  0.00    +0.000 HD
ENDBRANCH  18  27
ENDBRANCH  17  22
ENDBRANCH   1  17
TORSDOF 6
ENDMDL
MODEL 2
REMARK VINA RESULT:    -8.774      2.230      3.664
REMARK INTER + INTRA:         -12.686
REMARK INTER:                 -11.733
REMARK INTRA:                  -0.953
REMARK UNBOUND:                -0.834
REMARK  Name = 
REMARK  6 active torsions:
REMARK  status: ('A' for Active; 'I' for Inactive)
REMARK    1  A    between atoms: C_2  and  C_4
REMARK    2  A    between atoms: N_8  and  C_9
REMARK    3  A    between atoms: C_9  and  C_10
REMARK    4  A    between atoms: C_10  and  C_13
REMARK    5  A    between atoms: C_17  and  N_18
REMARK    6  A    between atoms: N_18  and  C_19
REMARK                            x       y       z     vdW  Elec       q    Type
REMARK                         _______ _______ _______ _____ _____    ______ ____
ROOT
ATOM      1  C   UNL     1      43.483   5.581  12.114  0.00  0.00    +0.000 C 
ATOM      2  F   UNL     1      43.071   6.754  11.542  0.00  0.00    +0.000 F 
ATOM      3  F   UNL     1      42.653   5.393  13.183  0.00  0.00    +0.000 F 
ENDROOT
BRANCH   1   4
ATOM      4  C   UNL     1      44.942   5.635  12.537  0.00  0.00    +0.000 A 
ATOM      5  C   UNL     1      45.425   4.796  13.549  0.00  0.00    +0.000 A 
ATOM      6  C   UNL     1      46.753   4.890  13.968  0.00  0.00    +0.000 A 
ATOM      7  C   UNL     1      47.610   5.831  13.388  0.00  0.00    +0.000 A 
ATOM      8  C   UNL     1      47.153   6.682  12.382  0.00  0.00    +0.000 A 
ATOM      9  C   UNL     1      45.825   6.557  11.946  0.00  0.00    +0.000 A 
BRANCH   8  10
ATOM     10  N   UNL     1      47.985   7.621  11.731  0.00  0.00    +0.000 N 
ATOM     11  H   UNL     1      48.683   7.113  11.187  0.00  0.00    +0.000 HD
BRANCH  10  12
ATOM     12  C   UNL     1      48.618   8.735  12.345  0.00  0.00    +0.000 C 
ATOM     13  C   UNL     1      47.597   9.840  12.687  0.00  0.00    +0.000 C 
ATOM     14  C   UNL     1      48.640  10.792  12.088  0.00  0.00    +0.000 C 
ATOM     15  N   UNL     1      49.185   9.638  11.336  0.00  0.00    +0.000 NA
ATOM     16  H   UNL     1      50.202   9.619  11.291  0.00  0.00    +0.000 HD
ENDBRANCH  10  12
ENDBRANCH   8  10
ENDBRANCH   1   4
BRANCH   1  17
ATOM     17  C   UNL     1      43.257   4.436  11.089  0.00  0.00    +0.000 C 
BRANCH  17  22
ATOM     18  C   UNL     1      46.520   2.493   7.681  0.00  0.00    +0.000 A 
ATOM     19  C   UNL     1      45.662   1.842   8.561  0.00  0.00    +0.000 A 
ATOM     20  C   UNL     1      44.726   2.589   9.276  0.00  0.00    +0.000 A 
ATOM     21  C   UNL     1      44.672   3.971   9.118  0.00  0.00    +0.000 A 
ATOM     22  N   UNL     1      43.716   4.763   9.731  0.00  0.00    +0.000 N 
ATOM     23  N   UNL     1      45.519   4.616   8.291  0.00  0.00    +0.000 NA
ATOM     24  C   UNL     1      46.425   3.872   7.596  0.00  0.00    +0.000 A 
ATOM     25  H   UNL     1      43.953   5.741   9.568  0.00  0.00    +0.000 HD
BRANCH  18  27
ATOM     26  N   UNL     1      48.555   2.500   6.355  0.00  0.00    +0.000 N 
ATOM     27  C   UNL     1      47.508   1.773   6.852  0.00  0.00    +0.000 C 
ATOM     28  O   UNL     1      47.412   0.569   6.645  0.00  0.00    +0.000 OA
ATOM     29  H   UNL     1      49.279   1.974   5.880  0.00  0.00    +0.000 HD
ATOM     30  H   UNL     1      48.799   3.412   6.710  0.00  0.00    +0.000 HD
ENDBRANCH  18  27
ENDBRANCH  17  22
ENDBRANCH   1  17
TORSDOF 6
ENDMDL
MODEL 3
REMARK VINA RESULT:    -8.546      3.111      4.809
REMARK INTER + INTRA:         -12.378
REMARK INTER:                 -11.603
REMARK INTRA:                  -0.775
REMARK UNBOUND:                -0.834
REMARK  Name = 
REMARK  6 active torsions:
REMARK  status: ('A' for Active; 'I' for Inactive)
REMARK    1  A    between atoms: C_2  and  C_4
REMARK    2  A    between atoms: N_8  and  C_9
REMARK    3  A    between atoms: C_9  and  C_10
REMARK    4  A    between atoms: C_10  and  C_13
REMARK    5  A    between atoms: C_17  and  N_18
REMARK    6  A    between atoms: N_18  and  C_19
REMARK                            x       y       z     vdW  Elec       q    Type
REMARK                         _______ _______ _______ _____ _____    ______ ____
ROOT
ATOM      1  C   UNL     1      44.785   4.932  12.293  0.00  0.00    +0.000 C 
ATOM      2  F   UNL     1      44.207   4.735  13.518  0.00  0.00    +0.000 F 
ATOM      3  F   UNL     1      45.692   3.919  12.158  0.00  0.00    +0.000 F 
ENDROOT
BRANCH   1   4
ATOM      4  C   UNL     1      45.445   6.297  12.188  0.00  0.00    +0.000 A 
ATOM      5  C   UNL     1      46.816   6.409  11.920  0.00  0.00    +0.000 A 
ATOM      6  C   UNL     1      47.424   7.665  11.879  0.00  0.00    +0.000 A 
ATOM      7  C   UNL     1      46.673   8.821  12.115  0.00  0.00    +0.000 A 
ATOM      8  C   UNL     1      45.307   8.736  12.389  0.00  0.00    +0.000 A 
ATOM      9  C   UNL     1      44.700   7.471  12.397  0.00  0.00    +0.000 A 
BRANCH   8  10
ATOM     10  N   UNL     1      44.491   9.872  12.592  0.00  0.00    +0.000 N 
ATOM     11  H   UNL     1      43.747   9.622  13.244  0.00  0.00    +0.000 HD
BRANCH  10  12
ATOM     12  C   UNL     1      43.937  10.689  11.571  0.00  0.00    +0.000 C 
ATOM     13  C   UNL     1      42.721  10.009  10.908  0.00  0.00    +0.000 C 
ATOM     14  C   UNL     1      43.367  10.455   9.590  0.00  0.00    +0.000 C 
ATOM     15  N   UNL     1      44.662  10.512  10.306  0.00  0.00    +0.000 NA
ATOM     16  H   UNL     1      45.241  11.309  10.048  0.00  0.00    +0.000 HD
ENDBRANCH  10  12
ENDBRANCH   8  10
ENDBRANCH   1   4
BRANCH   1  17
ATOM     17  C   UNL     1      43.685   4.776  11.207  0.00  0.00    +0.000 C 
BRANCH  17  22
ATOM     18  C   UNL     1      46.585   2.595   7.618  0.00  0.00    +0.000 A 
ATOM     19  C   UNL     1      45.674   2.018   8.497  0.00  0.00    +0.000 A 
ATOM     20  C   UNL     1      44.859   2.844   9.272  0.00  0.00    +0.000 A 
ATOM     21  C   UNL     1      44.979   4.227   9.175  0.00  0.00    +0.000 A 
ATOM     22  N   UNL     1      44.148   5.105   9.850  0.00  0.00    +0.000 N 
ATOM     23  N   UNL     1      45.879   4.797   8.350  0.00  0.00    +0.000 NA
ATOM     24  C   UNL     1      46.665   3.978   7.595  0.00  0.00    +0.000 A 
ATOM     25  H   UNL     1      44.504   6.052   9.722  0.00  0.00    +0.000 HD
BRANCH  18  27
ATOM     26  N   UNL     1      48.558   2.413   6.213  0.00  0.00    +0.000 N 
ATOM     27  C   UNL     1      47.451   1.795   6.730  0.00  0.00    +0.000 C 
ATOM     28  O   UNL     1      47.207   0.618   6.489  0.00  0.00    +0.000 OA
ATOM     29  H   UNL     1      49.197   1.824   5.694  0.00  0.00    +0.000 HD
ATOM     30  H   UNL     1      48.920   3.277   6.586  0.00  0.00    +0.000 HD
ENDBRANCH  18  27
ENDBRANCH  17  22
ENDBRANCH   1  17
TORSDOF 6
ENDMDL
MODEL 4
REMARK VINA RESULT:    -8.356      2.557      4.337
REMARK INTER + INTRA:         -12.121
REMARK INTER:                 -11.247
REMARK INTRA:                  -0.875
REMARK UNBOUND:                -0.834
REMARK  Name = 
REMARK  6 active torsions:
REMARK  status: ('A' for Active; 'I' for Inactive)
REMARK    1  A    between atoms: C_2  and  C_4
REMARK    2  A    between atoms: N_8  and  C_9
REMARK    3  A    between atoms: C_9  and  C_10
REMARK    4  A    between atoms: C_10  and  C_13
REMARK    5  A    between atoms: C_17  and  N_18
REMARK    6  A    between atoms: N_18  and  C_19
REMARK                            x       y       z     vdW  Elec       q    Type
REMARK                         _______ _______ _______ _____ _____    ______ ____
ROOT
ATOM      1  C   UNL     1      43.407   4.285  12.394  0.00  0.00    +0.000 C 
ATOM      2  F   UNL     1      42.282   5.050  12.551  0.00  0.00    +0.000 F 
ATOM      3  F   UNL     1      43.266   3.255  13.281  0.00  0.00    +0.000 F 
ENDROOT
BRANCH   1   4
ATOM      4  C   UNL     1      44.677   5.080  12.651  0.00  0.00    +0.000 A 
ATOM      5  C   UNL     1      45.710   4.544  13.431  0.00  0.00    +0.000 A 
ATOM      6  C   UNL     1      46.849   5.303  13.706  0.00  0.00    +0.000 A 
ATOM      7  C   UNL     1      46.964   6.607  13.214  0.00  0.00    +0.000 A 
ATOM      8  C   UNL     1      45.948   7.164  12.438  0.00  0.00    +0.000 A 
ATOM      9  C   UNL     1      44.821   6.383  12.142  0.00  0.00    +0.000 A 
BRANCH   8  10
ATOM     10  N   UNL     1      46.029   8.460  11.879  0.00  0.00    +0.000 N 
ATOM     11  H   UNL     1      47.012   8.723  11.814  0.00  0.00    +0.000 HD
BRANCH  10  12
ATOM     12  C   UNL     1      45.288   9.595  12.304  0.00  0.00    +0.000 C 
ATOM     13  C   UNL     1      44.337  10.090  11.195  0.00  0.00    +0.000 C 
ATOM     14  C   UNL     1      44.859  11.484  11.564  0.00  0.00    +0.000 C 
ATOM     15  N   UNL     1      46.064  10.827  12.120  0.00  0.00    +0.000 NA
ATOM     16  H   UNL     1      46.394  11.241  12.990  0.00  0.00    +0.000 HD
ENDBRANCH  10  12
ENDBRANCH   8  10
ENDBRANCH   1   4
BRANCH   1  17
ATOM     17  C   UNL     1      43.407   3.713  10.950  0.00  0.00    +0.000 C 
BRANCH  17  22
ATOM     18  C   UNL     1      46.666   2.549   7.200  0.00  0.00    +0.000 A 
ATOM     19  C   UNL     1      46.233   3.793   7.647  0.00  0.00    +0.000 A 
ATOM     20  C   UNL     1      45.472   3.870   8.814  0.00  0.00    +0.000 A 
ATOM     21  C   UNL     1      45.140   2.708   9.505  0.00  0.00    +0.000 A 
ATOM     22  N   UNL     1      44.461   2.717  10.711  0.00  0.00    +0.000 N 
ATOM     23  N   UNL     1      45.528   1.495   9.064  0.00  0.00    +0.000 NA
ATOM     24  C   UNL     1      46.274   1.436   7.925  0.00  0.00    +0.000 A 
ATOM     25  H   UNL     1      44.225   1.756  10.957  0.00  0.00    +0.000 HD
BRANCH  18  27
ATOM     26  N   UNL     1      47.396   3.330   5.019  0.00  0.00    +0.000 N 
ATOM     27  C   UNL     1      47.512   2.384   6.000  0.00  0.00    +0.000 C 
ATOM     28  O   UNL     1      48.307   1.456   5.902  0.00  0.00    +0.000 OA
ATOM     29  H   UNL     1      48.056   3.263   4.253  0.00  0.00    +0.000 HD
ATOM     30  H   UNL     1      46.954   4.223   5.175  0.00  0.00    +0.000 HD
ENDBRANCH  18  27
ENDBRANCH  17  22
ENDBRANCH   1  17
TORSDOF 6
ENDMDL
MODEL 5
REMARK VINA RESULT:    -8.026      2.646      3.072
REMARK INTER + INTRA:         -11.675
REMARK INTER:                 -11.223
REMARK INTRA:                  -0.451
REMARK UNBOUND:                -0.834
REMARK  Name = 
REMARK  6 active torsions:
REMARK  status: ('A' for Active; 'I' for Inactive)
REMARK    1  A    between atoms: C_2  and  C_4
REMARK    2  A    between atoms: N_8  and  C_9
REMARK    3  A    between atoms: C_9  and  C_10
REMARK    4  A    between atoms: C_10  and  C_13
REMARK    5  A    between atoms: C_17  and  N_18
REMARK    6  A    between atoms: N_18  and  C_19
REMARK                            x       y       z     vdW  Elec       q    Type
REMARK                         _______ _______ _______ _____ _____    ______ ____
ROOT
ATOM      1  C   UNL     1      44.526   4.674  12.260  0.00  0.00    +0.000 C 
ATOM      2  F   UNL     1      43.926   4.424  13.464  0.00  0.00    +0.000 F 
ATOM      3  F   UNL     1      45.422   3.656  12.088  0.00  0.00    +0.000 F 
ENDROOT
BRANCH   1   4
ATOM      4  C   UNL     1      45.207   6.033  12.234  0.00  0.00    +0.000 A 
ATOM      5  C   UNL     1      44.494   7.183  11.872  0.00  0.00    +0.000 A 
ATOM      6  C   UNL     1      45.141   8.418  11.798  0.00  0.00    +0.000 A 
ATOM      7  C   UNL     1      46.508   8.516  12.075  0.00  0.00    +0.000 A 
ATOM      8  C   UNL     1      47.242   7.385  12.434  0.00  0.00    +0.000 A 
ATOM      9  C   UNL     1      46.576   6.154  12.535  0.00  0.00    +0.000 A 
BRANCH   8  10
ATOM     10  N   UNL     1      48.615   7.432  12.766  0.00  0.00    +0.000 N 
ATOM     11  H   UNL     1      49.094   6.682  12.267  0.00  0.00    +0.000 HD
BRANCH  10  12
ATOM     12  C   UNL     1      49.148   7.508  14.080  0.00  0.00    +0.000 C 
ATOM     13  C   UNL     1      49.432   8.970  14.484  0.00  0.00    +0.000 C 
ATOM     14  C   UNL     1      50.766   8.419  15.005  0.00  0.00    +0.000 C 
ATOM     15  N   UNL     1      50.598   7.280  14.072  0.00  0.00    +0.000 NA
ATOM     16  H   UNL     1      50.877   6.383  14.465  0.00  0.00    +0.000 HD
ENDBRANCH  10  12
ENDBRANCH   8  10
ENDBRANCH   1   4
BRANCH   1  17
ATOM     17  C   UNL     1      43.442   4.589  11.151  0.00  0.00    +0.000 C 
BRANCH  17  22
ATOM     18  C   UNL     1      46.543   2.583   7.630  0.00  0.00    +0.000 A 
ATOM     19  C   UNL     1      45.627   1.956   8.468  0.00  0.00    +0.000 A 
ATOM     20  C   UNL     1      44.755   2.737   9.228  0.00  0.00    +0.000 A 
ATOM     21  C   UNL     1      44.823   4.125   9.156  0.00  0.00    +0.000 A 
ATOM     22  N   UNL     1      43.936   4.958   9.816  0.00  0.00    +0.000 N 
ATOM     23  N   UNL     1      45.727   4.743   8.370  0.00  0.00    +0.000 NA
ATOM     24  C   UNL     1      46.569   3.968   7.630  0.00  0.00    +0.000 A 
ATOM     25  H   UNL     1      44.258   5.920   9.714  0.00  0.00    +0.000 HD
BRANCH  18  27
ATOM     26  N   UNL     1      48.560   2.505   6.279  0.00  0.00    +0.000 N 
ATOM     27  C   UNL     1      47.470   1.831   6.758  0.00  0.00    +0.000 C 
ATOM     28  O   UNL     1      47.286   0.648   6.501  0.00  0.00    +0.000 OA
ATOM     29  H   UNL     1      49.240   1.950   5.773  0.00  0.00    +0.000 HD
ATOM     30  H   UNL     1      48.872   3.380   6.670  0.00  0.00    +0.000 HD
ENDBRANCH  18  27
ENDBRANCH  17  22
ENDBRANCH   1  17
TORSDOF 6
ENDMDL
MODEL 6
REMARK VINA RESULT:    -7.692      3.108      8.004
REMARK INTER + INTRA:         -11.225
REMARK INTER:                 -10.531
REMARK INTRA:                  -0.694
REMARK UNBOUND:                -0.834
REMARK  Name = 
REMARK  6 active torsions:
REMARK  status: ('A' for Active; 'I' for Inactive)
REMARK    1  A    between atoms: C_2  and  C_4
REMARK    2  A    between atoms: N_8  and  C_9
REMARK    3  A    between atoms: C_9  and  C_10
REMARK    4  A    between atoms: C_10  and  C_13
REMARK    5  A    between atoms: C_17  and  N_18
REMARK    6  A    between atoms: N_18  and  C_19
REMARK                            x       y       z     vdW  Elec       q    Type
REMARK                         _______ _______ _______ _____ _____    ______ ____
ROOT
ATOM      1  C   UNL     1      45.755   6.287  11.529  0.00  0.00    +0.000 C 
ATOM      2  F   UNL     1      44.922   7.358  11.344  0.00  0.00    +0.000 F 
ATOM      3  F   UNL     1      46.960   6.679  11.020  0.00  0.00    +0.000 F 
ENDROOT
BRANCH   1   4
ATOM      4  C   UNL     1      45.234   5.036  10.842  0.00  0.00    +0.000 A 
ATOM      5  C   UNL     1      44.487   4.088  11.553  0.00  0.00    +0.000 A 
ATOM      6  C   UNL     1      44.059   2.916  10.927  0.00  0.00    +0.000 A 
ATOM      7  C   UNL     1      44.381   2.673   9.588  0.00  0.00    +0.000 A 
ATOM      8  C   UNL     1      45.127   3.598   8.859  0.00  0.00    +0.000 A 
ATOM      9  C   UNL     1      45.526   4.788   9.488  0.00  0.00    +0.000 A 
BRANCH   8  10
ATOM     10  N   UNL     1      45.445   3.426   7.492  0.00  0.00    +0.000 N 
ATOM     11  H   UNL     1      44.945   2.607   7.145  0.00  0.00    +0.000 HD
BRANCH  10  12
ATOM     12  C   UNL     1      46.753   3.421   6.939  0.00  0.00    +0.000 C 
ATOM     13  C   UNL     1      46.740   2.933   5.476  0.00  0.00    +0.000 C 
ATOM     14  C   UNL     1      47.948   2.085   5.895  0.00  0.00    +0.000 C 
ATOM     15  N   UNL     1      47.467   2.187   7.292  0.00  0.00    +0.000 NA
ATOM     16  H   UNL     1      48.211   2.322   7.975  0.00  0.00    +0.000 HD
ENDBRANCH  10  12
ENDBRANCH   8  10
ENDBRANCH   1   4
BRANCH   1  17
ATOM     17  C   UNL     1      45.903   6.046  13.056  0.00  0.00    +0.000 C 
BRANCH  17  22
ATOM     18  C   UNL     1      48.537   4.394  17.103  0.00  0.00    +0.000 A 
ATOM     19  C   UNL     1      47.498   3.784  16.409  0.00  0.00    +0.000 A 
ATOM     20  C   UNL     1      47.051   4.350  15.215  0.00  0.00    +0.000 A 
ATOM     21  C   UNL     1      47.631   5.524  14.743  0.00  0.00    +0.000 A 
ATOM     22  N   UNL     1      47.295   6.095  13.527  0.00  0.00    +0.000 N 
ATOM     23  N   UNL     1      48.617   6.142  15.422  0.00  0.00    +0.000 NA
ATOM     24  C   UNL     1      49.047   5.574  16.585  0.00  0.00    +0.000 A 
ATOM     25  H   UNL     1      47.754   7.002  13.457  0.00  0.00    +0.000 HD
BRANCH  18  27
ATOM     26  N   UNL     1      48.262   3.090  19.133  0.00  0.00    +0.000 N 
ATOM     27  C   UNL     1      49.100   3.836  18.349  0.00  0.00    +0.000 C 
ATOM     28  O   UNL     1      50.274   4.007  18.652  0.00  0.00    +0.000 OA
ATOM     29  H   UNL     1      48.688   2.626  19.926  0.00  0.00    +0.000 HD
ATOM     30  H   UNL     1      47.387   2.722  18.795  0.00  0.00    +0.000 HD
ENDBRANCH  18  27
ENDBRANCH  17  22
ENDBRANCH   1  17
TORSDOF 6
ENDMDL
MODEL 7
REMARK VINA RESULT:    -7.481      3.365      8.116
REMARK INTER + INTRA:         -10.940
REMARK INTER:                 -10.316
REMARK INTRA:                  -0.624
REMARK UNBOUND:                -0.834
REMARK  Name = 
REMARK  6 active torsions:
REMARK  status: ('A' for Active; 'I' for Inactive)
REMARK    1  A    between atoms: C_2  and  C_4
REMARK    2  A    between atoms: N_8  and  C_9
REMARK    3  A    between atoms: C_9  and  C_10
REMARK    4  A    between atoms: C_10  and  C_13
REMARK    5  A    between atoms: C_17  and  N_18
REMARK    6  A    between atoms: N_18  and  C_19
REMARK                            x       y       z     vdW  Elec       q    Type
REMARK                         _______ _______ _______ _____ _____    ______ ____
ROOT
ATOM      1  C   UNL     1      46.467   6.350  12.387  0.00  0.00    +0.000 C 
ATOM      2  F   UNL     1      46.138   7.488  13.072  0.00  0.00    +0.000 F 
ATOM      3  F   UNL     1      47.140   6.781  11.279  0.00  0.00    +0.000 F 
ENDROOT
BRANCH   1   4
ATOM      4  C   UNL     1      45.240   5.533  12.017  0.00  0.00    +0.000 A 
ATOM      5  C   UNL     1      43.964   5.928  12.438  0.00  0.00    +0.000 A 
ATOM      6  C   UNL     1      42.850   5.142  12.140  0.00  0.00    +0.000 A 
ATOM      7  C   UNL     1      42.999   3.948  11.427  0.00  0.00    +0.000 A 
ATOM      8  C   UNL     1      44.259   3.530  11.000  0.00  0.00    +0.000 A 
ATOM      9  C   UNL     1      45.369   4.343  11.278  0.00  0.00    +0.000 A 
BRANCH   8  10
ATOM     10  N   UNL     1      44.464   2.356  10.240  0.00  0.00    +0.000 N 
ATOM     11  H   UNL     1      45.268   1.858  10.623  0.00  0.00    +0.000 HD
BRANCH  10  12
ATOM     12  C   UNL     1      44.527   2.286   8.822  0.00  0.00    +0.000 C 
ATOM     13  C   UNL     1      45.986   2.179   8.332  0.00  0.00    +0.000 C 
ATOM     14  C   UNL     1      45.571   3.242   7.307  0.00  0.00    +0.000 C 
ATOM     15  N   UNL     1      44.478   3.628   8.229  0.00  0.00    +0.000 NA
ATOM     16  H   UNL     1      43.599   3.839   7.759  0.00  0.00    +0.000 HD
ENDBRANCH  10  12
ENDBRANCH   8  10
ENDBRANCH   1   4
BRANCH   1  17
ATOM     17  C   UNL     1      47.431   5.513  13.271  0.00  0.00    +0.000 C 
BRANCH  17  22
ATOM     18  C   UNL     1      48.612   4.540  18.140  0.00  0.00    +0.000 A 
ATOM     19  C   UNL     1      48.929   5.641  17.351  0.00  0.00    +0.000 A 
ATOM     20  C   UNL     1      48.339   5.770  16.093  0.00  0.00    +0.000 A 
ATOM     21  C   UNL     1      47.460   4.793  15.634  0.00  0.00    +0.000 A 
ATOM     22  N   UNL     1      46.776   4.898  14.436  0.00  0.00    +0.000 N 
ATOM     23  N   UNL     1      47.169   3.707  16.377  0.00  0.00    +0.000 NA
ATOM     24  C   UNL     1      47.750   3.596  17.606  0.00  0.00    +0.000 A 
ATOM     25  H   UNL     1      46.296   4.016  14.258  0.00  0.00    +0.000 HD
BRANCH  18  27
ATOM     26  N   UNL     1      48.375   3.673  20.396  0.00  0.00    +0.000 N 
ATOM     27  C   UNL     1      49.156   4.351  19.500  0.00  0.00    +0.000 C 
ATOM     28  O   UNL     1      50.272   4.756  19.804  0.00  0.00    +0.000 OA
ATOM     29  H   UNL     1      48.803   3.459  21.289  0.00  0.00    +0.000 HD
ATOM     30  H   UNL     1      47.584   3.115  20.113  0.00  0.00    +0.000 HD
ENDBRANCH  18  27
ENDBRANCH  17  22
ENDBRANCH   1  17
TORSDOF 6
ENDMDL
MODEL 8
REMARK VINA RESULT:    -7.219      2.868      6.978
REMARK INTER + INTRA:         -10.585
REMARK INTER:                  -9.784
REMARK INTRA:                  -0.800
REMARK UNBOUND:                -0.834
REMARK  Name = 
REMARK  6 active torsions:
REMARK  status: ('A' for Active; 'I' for Inactive)
REMARK    1  A    between atoms: C_2  and  C_4
REMARK    2  A    between atoms: N_8  and  C_9
REMARK    3  A    between atoms: C_9  and  C_10
REMARK    4  A    between atoms: C_10  and  C_13
REMARK    5  A    between atoms: C_17  and  N_18
REMARK    6  A    between atoms: N_18  and  C_19
REMARK                            x       y       z     vdW  Elec       q    Type
REMARK                         _______ _______ _______ _____ _____    ______ ____
ROOT
ATOM      1  C   UNL     1      45.689   7.264  12.047  0.00  0.00    +0.000 C 
ATOM      2  F   UNL     1      45.726   7.736  13.331  0.00  0.00    +0.000 F 
ATOM      3  F   UNL     1      45.264   8.318  11.289  0.00  0.00    +0.000 F 
ENDROOT
BRANCH   1   4
ATOM      4  C   UNL     1      44.767   6.064  11.908  0.00  0.00    +0.000 A 
ATOM      5  C   UNL     1      43.750   5.831  12.844  0.00  0.00    +0.000 A 
ATOM      6  C   UNL     1      42.943   4.697  12.738  0.00  0.00    +0.000 A 
ATOM      7  C   UNL     1      43.148   3.778  11.704  0.00  0.00    +0.000 A 
ATOM      8  C   UNL     1      44.157   3.984  10.763  0.00  0.00    +0.000 A 
ATOM      9  C   UNL     1      44.942   5.143  10.860  0.00  0.00    +0.000 A 
BRANCH   8  10
ATOM     10  N   UNL     1      44.382   3.112   9.673  0.00  0.00    +0.000 N 
ATOM     11  H   UNL     1      43.737   2.326   9.749  0.00  0.00    +0.000 HD
BRANCH  10  12
ATOM     12  C   UNL     1      45.647   2.617   9.255  0.00  0.00    +0.000 C 
ATOM     13  C   UNL     1      45.963   3.043   7.807  0.00  0.00    +0.000 C 
ATOM     14  C   UNL     1      46.401   1.584   7.623  0.00  0.00    +0.000 C 
ATOM     15  N   UNL     1      45.535   1.235   8.773  0.00  0.00    +0.000 NA
ATOM     16  H   UNL     1      45.943   0.545   9.401  0.00  0.00    +0.000 HD
ENDBRANCH  10  12
ENDBRANCH   8  10
ENDBRANCH   1   4
BRANCH   1  17
ATOM     17  C   UNL     1      47.136   6.888  11.627  0.00  0.00    +0.000 C 
BRANCH  17  22
ATOM     18  C   UNL     1      47.586   4.164  15.919  0.00  0.00    +0.000 A 
ATOM     19  C   UNL     1      47.147   3.771  14.658  0.00  0.00    +0.000 A 
ATOM     20  C   UNL     1      47.283   4.653  13.585  0.00  0.00    +0.000 A 
ATOM     21  C   UNL     1      47.833   5.915  13.788  0.00  0.00    +0.000 A 
ATOM     22  N   UNL     1      48.074   6.806  12.757  0.00  0.00    +0.000 N 
ATOM     23  N   UNL     1      48.233   6.317  15.010  0.00  0.00    +0.000 NA
ATOM     24  C   UNL     1      48.099   5.444  16.048  0.00  0.00    +0.000 A 
ATOM     25  H   UNL     1      48.360   7.698  13.159  0.00  0.00    +0.000 HD
BRANCH  18  27
ATOM     26  N   UNL     1      48.703   2.971  17.715  0.00  0.00    +0.000 N 
ATOM     27  C   UNL     1      47.521   3.276  17.097  0.00  0.00    +0.000 C 
ATOM     28  O   UNL     1      46.451   2.857  17.523  0.00  0.00    +0.000 OA
ATOM     29  H   UNL     1      48.633   2.450  18.581  0.00  0.00    +0.000 HD
ATOM     30  H   UNL     1      49.551   3.492  17.552  0.00  0.00    +0.000 HD
ENDBRANCH  18  27
ENDBRANCH  17  22
ENDBRANCH   1  17
TORSDOF 6
ENDMDL
MODEL 9
REMARK VINA RESULT:    -7.106      3.360      6.948
REMARK INTER + INTRA:         -10.432
REMARK INTER:                  -9.716
REMARK INTRA:                  -0.716
REMARK UNBOUND:                -0.834
REMARK  Name = 
REMARK  6 active torsions:
REMARK  status: ('A' for Active; 'I' for Inactive)
REMARK    1  A    between atoms: C_2  and  C_4
REMARK    2  A    between atoms: N_8  and  C_9
REMARK    3  A    between atoms: C_9  and  C_10
REMARK    4  A    between atoms: C_10  and  C_13
REMARK    5  A    between atoms: C_17  and  N_18
REMARK    6  A    between atoms: N_18  and  C_19
REMARK                            x       y       z     vdW  Elec       q    Type
REMARK                         _______ _______ _______ _____ _____    ______ ____
ROOT
ATOM      1  C   UNL     1      44.594   3.478  12.410  0.00  0.00    +0.000 C 
ATOM      2  F   UNL     1      45.681   2.861  12.968  0.00  0.00    +0.000 F 
ATOM      3  F   UNL     1      43.515   2.756  12.837  0.00  0.00    +0.000 F 
ENDROOT
BRANCH   1   4
ATOM      4  C   UNL     1      44.679   3.519  10.893  0.00  0.00    +0.000 A 
ATOM      5  C   UNL     1      44.083   4.562  10.172  0.00  0.00    +0.000 A 
ATOM      6  C   UNL     1      44.119   4.563   8.777  0.00  0.00    +0.000 A 
ATOM      7  C   UNL     1      44.742   3.518   8.086  0.00  0.00    +0.000 A 
ATOM      8  C   UNL     1      45.338   2.465   8.781  0.00  0.00    +0.000 A 
ATOM      9  C   UNL     1      45.323   2.490  10.184  0.00  0.00    +0.000 A 
BRANCH   8  10
ATOM     10  N   UNL     1      46.017   1.406   8.138  0.00  0.00    +0.000 N 
ATOM     11  H   UNL     1      46.048   0.608   8.773  0.00  0.00    +0.000 HD
BRANCH  10  12
ATOM     12  C   UNL     1      47.273   1.504   7.479  0.00  0.00    +0.000 C 
ATOM     13  C   UNL     1      47.521   2.935   6.959  0.00  0.00    +0.000 C 
ATOM     14  C   UNL     1      47.978   2.237   5.672  0.00  0.00    +0.000 C 
ATOM     15  N   UNL     1      47.167   1.067   6.082  0.00  0.00    +0.000 NA
ATOM     16  H   UNL     1      47.614   0.171   5.895  0.00  0.00    +0.000 HD
ENDBRANCH  10  12
ENDBRANCH   8  10
ENDBRANCH   1   4
BRANCH   1  17
ATOM     17  C   UNL     1      44.503   4.917  12.988  0.00  0.00    +0.000 C 
BRANCH  17  22
ATOM     18  C   UNL     1      48.785   7.584  12.215  0.00  0.00    +0.000 A 
ATOM     19  C   UNL     1      47.498   7.810  11.738  0.00  0.00    +0.000 A 
ATOM     20  C   UNL     1      46.443   7.043  12.234  0.00  0.00    +0.000 A 
ATOM     21  C   UNL     1      46.689   6.051  13.179  0.00  0.00    +0.000 A 
ATOM     22  N   UNL     1      45.683   5.310  13.774  0.00  0.00    +0.000 N 
ATOM     23  N   UNL     1      47.936   5.802  13.626  0.00  0.00    +0.000 NA
ATOM     24  C   UNL     1      48.956   6.563  13.136  0.00  0.00    +0.000 A 
ATOM     25  H   UNL     1      46.110   4.571  14.330  0.00  0.00    +0.000 HD
BRANCH  18  27
ATOM     26  N   UNL     1      51.190   7.872  12.046  0.00  0.00    +0.000 N 
ATOM     27  C   UNL     1      49.948   8.381  11.778  0.00  0.00    +0.000 C 
ATOM     28  O   UNL     1      49.808   9.438  11.174  0.00  0.00    +0.000 OA
ATOM     29  H   UNL     1      51.974   8.375  11.649  0.00  0.00    +0.000 HD
ATOM     30  H   UNL     1      51.338   6.909  12.304  0.00  0.00    +0.000 HD
ENDBRANCH  18  27
ENDBRANCH  17  22
ENDBRANCH   1  17
TORSDOF 6
ENDMDL
