MODEL 1
REMARK VINA RESULT:    -8.438      0.000      0.000
REMARK INTER + INTRA:         -11.556
REMARK INTER:                 -10.904
REMARK INTRA:                  -0.651
REMARK UNBOUND:                -0.651
REMARK  Name = 
REMARK  6 active torsions:
REMARK  status: ('A' for Active; 'I' for Inactive)
REMARK    1  A    between atoms: C_1  and  N_2
REMARK    2  A    between atoms: C_8  and  C_9
REMARK    3  A    between atoms: C_9  and  C_10
REMARK    4  A    between atoms: C_10  and  N_11
REMARK    5  A    between atoms: N_11  and  C_12
REMARK    6  A    between atoms: C_15  and  C_16
REMARK                            x       y       z     vdW  Elec       q    Type
REMARK                         _______ _______ _______ _____ _____    ______ ____
ROOT
ATOM      1  C   UNL     1      43.883   5.646  12.140  0.00  0.00    +0.000 C 
ENDROOT
BRANCH   1   9
ATOM      2  C   UNL     1      50.457  10.945  12.900  0.00  0.00    +0.000 C 
ATOM      3  N   UNL     1      50.226   9.514  12.711  0.00  0.00    +0.000 NA
ATOM      4  C   UNL     1      49.947   8.857  14.017  0.00  0.00    +0.000 C 
ATOM      5  C   UNL     1      49.540   7.364  13.882  0.00  0.00    +0.000 C 
ATOM      6  N   UNL     1      48.383   7.311  12.984  0.00  0.00    +0.000 N 
ATOM      7  C   UNL     1      47.514   6.241  13.076  0.00  0.00    +0.000 A 
ATOM      8  C   UNL     1      46.219   6.401  12.574  0.00  0.00    +0.000 A 
ATOM      9  C   UNL     1      45.267   5.387  12.693  0.00  0.00    +0.000 A 
ATOM     10  C   UNL     1      45.666   4.216  13.332  0.00  0.00    +0.000 A 
ATOM     11  C   UNL     1      46.963   4.127  13.812  0.00  0.00    +0.000 A 
ATOM     12  N   UNL     1      47.881   5.111  13.708  0.00  0.00    +0.000 NA
ATOM     13  C   UNL     1      48.693   7.820  11.644  0.00  0.00    +0.000 C 
ATOM     14  C   UNL     1      49.087   9.306  11.783  0.00  0.00    +0.000 C 
ENDBRANCH   1   9
BRANCH   1  15
ATOM     15  C   UNL     1      43.388   4.581  11.164  0.00  0.00    +0.000 C 
BRANCH  15  16
ATOM     16  N   UNL     1      43.720   4.904   9.775  0.00  0.00    +0.000 N 
ATOM     17  H   UNL     1      44.074   5.853   9.669  0.00  0.00    +0.000 HD
BRANCH  16  18
ATOM     18  C   UNL     1      44.541   3.970   9.113  0.00  0.00    +0.000 A 
ATOM     19  C   UNL     1      45.517   4.338   8.180  0.00  0.00    +0.000 A 
ATOM     20  C   UNL     1      46.349   3.384   7.601  0.00  0.00    +0.000 A 
ATOM     21  C   UNL     1      46.209   2.066   8.001  0.00  0.00    +0.000 A 
ATOM     22  N   UNL     1      45.308   1.649   8.934  0.00  0.00    +0.000 NA
ATOM     23  C   UNL     1      44.519   2.616   9.470  0.00  0.00    +0.000 A 
BRANCH  21  24
ATOM     24  C   UNL     1      47.103   1.024   7.408  0.00  0.00    +0.000 C 
ATOM     25  N   UNL     1      46.752  -0.270   7.671  0.00  0.00    +0.000 N 
ATOM     26  O   UNL     1      48.090   1.303   6.732  0.00  0.00    +0.000 OA
ATOM     27  H   UNL     1      45.947  -0.458   8.253  0.00  0.00    +0.000 HD
ATOM     28  H   UNL     1      47.333  -1.022   7.332  0.00  0.00    +0.000 HD
ENDBRANCH  21  24
ENDBRANCH  16  18
ENDBRANCH  15  16
ENDBRANCH   1  15
TORSDOF 5
ENDMDL
MODEL 2
REMARK VINA RESULT:    -7.730      3.216      7.359
REMARK INTER + INTRA:         -10.641
REMARK INTER:                 -10.022
REMARK INTRA:                  -0.619
REMARK UNBOUND:                -0.651
REMARK  Name = 
REMARK  6 active torsions:
REMARK  status: ('A' for Active; 'I' for Inactive)
REMARK    1  A    between atoms: C_1  and  N_2
REMARK    2  A    between atoms: C_8  and  C_9
REMARK    3  A    between atoms: C_9  and  C_10
REMARK    4  A    between atoms: C_10  and  N_11
REMARK    5  A    between atoms: N_11  and  C_12
REMARK    6  A    between atoms: C_15  and  C_16
REMARK                            x       y       z     vdW  Elec       q    Type
REMARK                         _______ _______ _______ _____ _____    ______ ____
ROOT
ATOM      1  C   UNL     1      44.596   7.128  11.705  0.00  0.00    +0.000 C 
ENDROOT
BRANCH   1   9
ATOM      2  C   UNL     1      47.899   1.804   5.993  0.00  0.00    +0.000 C 
ATOM      3  N   UNL     1      46.618   2.033   6.659  0.00  0.00    +0.000 NA
ATOM      4  C   UNL     1      46.611   1.396   8.004  0.00  0.00    +0.000 C 
ATOM      5  C   UNL     1      45.342   1.725   8.835  0.00  0.00    +0.000 C 
ATOM      6  N   UNL     1      45.244   3.184   8.919  0.00  0.00    +0.000 N 
ATOM      7  C   UNL     1      44.554   3.749   9.974  0.00  0.00    +0.000 A 
ATOM      8  C   UNL     1      44.834   5.078  10.307  0.00  0.00    +0.000 A 
ATOM      9  C   UNL     1      44.226   5.693  11.402  0.00  0.00    +0.000 A 
ATOM     10  C   UNL     1      43.332   4.924  12.144  0.00  0.00    +0.000 A 
ATOM     11  C   UNL     1      43.106   3.611  11.763  0.00  0.00    +0.000 A 
ATOM     12  N   UNL     1      43.702   3.011  10.711  0.00  0.00    +0.000 NA
ATOM     13  C   UNL     1      45.098   3.810   7.600  0.00  0.00    +0.000 C 
ATOM     14  C   UNL     1      46.367   3.489   6.783  0.00  0.00    +0.000 C 
ENDBRANCH   1   9
BRANCH   1  15
ATOM     15  C   UNL     1      45.580   7.291  12.862  0.00  0.00    +0.000 C 
BRANCH  15  16
ATOM     16  N   UNL     1      46.781   6.472  12.688  0.00  0.00    +0.000 N 
ATOM     17  H   UNL     1      47.567   7.006  12.320  0.00  0.00    +0.000 HD
BRANCH  16  18
ATOM     18  C   UNL     1      47.159   5.703  13.806  0.00  0.00    +0.000 A 
ATOM     19  C   UNL     1      47.971   6.198  14.834  0.00  0.00    +0.000 A 
ATOM     20  C   UNL     1      48.264   5.421  15.951  0.00  0.00    +0.000 A 
ATOM     21  C   UNL     1      47.699   4.160  16.036  0.00  0.00    +0.000 A 
ATOM     22  N   UNL     1      46.868   3.637  15.092  0.00  0.00    +0.000 NA
ATOM     23  C   UNL     1      46.613   4.432  14.021  0.00  0.00    +0.000 A 
BRANCH  21  24
ATOM     24  C   UNL     1      47.982   3.312  17.236  0.00  0.00    +0.000 C 
ATOM     25  N   UNL     1      46.903   2.661  17.762  0.00  0.00    +0.000 N 
ATOM     26  O   UNL     1      49.105   3.206  17.723  0.00  0.00    +0.000 OA
ATOM     27  H   UNL     1      45.990   2.794  17.347  0.00  0.00    +0.000 HD
ATOM     28  H   UNL     1      47.017   2.101  18.594  0.00  0.00    +0.000 HD
ENDBRANCH  21  24
ENDBRANCH  16  18
ENDBRANCH  15  16
ENDBRANCH   1  15
TORSDOF 5
ENDMDL
MODEL 3
REMARK VINA RESULT:    -7.687      1.514      2.269
REMARK INTER + INTRA:         -10.586
REMARK INTER:                 -10.149
REMARK INTRA:                  -0.437
REMARK UNBOUND:                -0.651
REMARK  Name = 
REMARK  6 active torsions:
REMARK  status: ('A' for Active; 'I' for Inactive)
REMARK    1  A    between atoms: C_1  and  N_2
REMARK    2  A    between atoms: C_8  and  C_9
REMARK    3  A    between atoms: C_9  and  C_10
REMARK    4  A    between atoms: C_10  and  N_11
REMARK    5  A    between atoms: N_11  and  C_12
REMARK    6  A    between atoms: C_15  and  C_16
REMARK                            x       y       z     vdW  Elec       q    Type
REMARK                         _______ _______ _______ _____ _____    ______ ____
ROOT
ATOM      1  C   UNL     1      45.611   5.225  11.597  0.00  0.00    +0.000 C 
ENDROOT
BRANCH   1   9
ATOM      2  C   UNL     1      52.748   9.589  10.223  0.00  0.00    +0.000 C 
ATOM      3  N   UNL     1      51.673   9.539  11.213  0.00  0.00    +0.000 NA
ATOM      4  C   UNL     1      50.498  10.323  10.742  0.00  0.00    +0.000 C 
ATOM      5  C   UNL     1      49.259  10.192  11.669  0.00  0.00    +0.000 C 
ATOM      6  N   UNL     1      48.954   8.764  11.785  0.00  0.00    +0.000 N 
ATOM      7  C   UNL     1      47.665   8.378  12.099  0.00  0.00    +0.000 A 
ATOM      8  C   UNL     1      47.269   7.077  11.771  0.00  0.00    +0.000 A 
ATOM      9  C   UNL     1      45.964   6.641  11.996  0.00  0.00    +0.000 A 
ATOM     10  C   UNL     1      45.078   7.557  12.559  0.00  0.00    +0.000 A 
ATOM     11  C   UNL     1      45.534   8.832  12.853  0.00  0.00    +0.000 A 
ATOM     12  N   UNL     1      46.794   9.259  12.625  0.00  0.00    +0.000 NA
ATOM     13  C   UNL     1      50.055   8.005  12.389  0.00  0.00    +0.000 C 
ATOM     14  C   UNL     1      51.280   8.130  11.460  0.00  0.00    +0.000 C 
ENDBRANCH   1   9
BRANCH   1  15
ATOM     15  C   UNL     1      44.127   5.005  11.310  0.00  0.00    +0.000 C 
BRANCH  15  16
ATOM     16  N   UNL     1      43.848   4.902   9.876  0.00  0.00    +0.000 N 
ATOM     17  H   UNL     1      43.841   5.810   9.415  0.00  0.00    +0.000 HD
BRANCH  16  18
ATOM     18  C   UNL     1      44.633   3.970   9.171  0.00  0.00    +0.000 A 
ATOM     19  C   UNL     1      45.618   4.345   8.248  0.00  0.00    +0.000 A 
ATOM     20  C   UNL     1      46.414   3.388   7.624  0.00  0.00    +0.000 A 
ATOM     21  C   UNL     1      46.229   2.060   7.967  0.00  0.00    +0.000 A 
ATOM     22  N   UNL     1      45.318   1.634   8.885  0.00  0.00    +0.000 NA
ATOM     23  C   UNL     1      44.566   2.603   9.467  0.00  0.00    +0.000 A 
BRANCH  21  24
ATOM     24  C   UNL     1      47.085   1.014   7.323  0.00  0.00    +0.000 C 
ATOM     25  N   UNL     1      46.787  -0.276   7.660  0.00  0.00    +0.000 N 
ATOM     26  O   UNL     1      47.996   1.288   6.547  0.00  0.00    +0.000 OA
ATOM     27  H   UNL     1      46.045  -0.458   8.322  0.00  0.00    +0.000 HD
ATOM     28  H   UNL     1      47.349  -1.029   7.291  0.00  0.00    +0.000 HD
ENDBRANCH  21  24
ENDBRANCH  16  18
ENDBRANCH  15  16
ENDBRANCH   1  15
TORSDOF 5
ENDMDL
MODEL 4
REMARK VINA RESULT:    -7.670      2.443      3.690
REMARK INTER + INTRA:         -10.563
REMARK INTER:                 -10.312
REMARK INTRA:                  -0.251
REMARK UNBOUND:                -0.651
REMARK  Name = 
REMARK  6 active torsions:
REMARK  status: ('A' for Active; 'I' for Inactive)
REMARK    1  A    between atoms: C_1  and  N_2
REMARK    2  A    between atoms: C_8  and  C_9
REMARK    3  A    between atoms: C_9  and  C_10
REMARK    4  A    between atoms: C_10  and  N_11
REMARK    5  A    between atoms: N_11  and  C_12
REMARK    6  A    between atoms: C_15  and  C_16
REMARK                            x       y       z     vdW  Elec       q    Type
REMARK                         _______ _______ _______ _____ _____    ______ ____
ROOT
ATOM      1  C   UNL     1      45.435   3.359  12.255  0.00  0.00    +0.000 C 
ENDROOT
BRANCH   1   9
ATOM      2  C   UNL     1      50.846   4.312  18.713  0.00  0.00    +0.000 C 
ATOM      3  N   UNL     1      49.783   5.073  18.059  0.00  0.00    +0.000 NA
ATOM      4  C   UNL     1      50.308   5.762  16.848  0.00  0.00    +0.000 C 
ATOM      5  C   UNL     1      49.205   6.467  16.012  0.00  0.00    +0.000 C 
ATOM      6  N   UNL     1      48.203   5.453  15.675  0.00  0.00    +0.000 N 
ATOM      7  C   UNL     1      47.411   5.641  14.559  0.00  0.00    +0.000 A 
ATOM      8  C   UNL     1      46.803   4.519  13.987  0.00  0.00    +0.000 A 
ATOM      9  C   UNL     1      46.045   4.623  12.820  0.00  0.00    +0.000 A 
ATOM     10  C   UNL     1      45.924   5.891  12.255  0.00  0.00    +0.000 A 
ATOM     11  C   UNL     1      46.558   6.958  12.869  0.00  0.00    +0.000 A 
ATOM     12  N   UNL     1      47.301   6.857  13.992  0.00  0.00    +0.000 NA
ATOM     13  C   UNL     1      47.571   4.874  16.866  0.00  0.00    +0.000 C 
ATOM     14  C   UNL     1      48.669   4.166  17.686  0.00  0.00    +0.000 C 
ENDBRANCH   1   9
BRANCH   1  15
ATOM     15  C   UNL     1      43.950   3.474  11.920  0.00  0.00    +0.000 C 
BRANCH  15  16
ATOM     16  N   UNL     1      43.725   3.945  10.552  0.00  0.00    +0.000 N 
ATOM     17  H   UNL     1      43.584   4.953  10.504  0.00  0.00    +0.000 HD
BRANCH  16  18
ATOM     18  C   UNL     1      44.664   3.510   9.597  0.00  0.00    +0.000 A 
ATOM     19  C   UNL     1      44.928   2.158   9.347  0.00  0.00    +0.000 A 
ATOM     20  C   UNL     1      45.819   1.775   8.347  0.00  0.00    +0.000 A 
ATOM     21  C   UNL     1      46.408   2.768   7.583  0.00  0.00    +0.000 A 
ATOM     22  N   UNL     1      46.162   4.098   7.748  0.00  0.00    +0.000 NA
ATOM     23  C   UNL     1      45.287   4.421   8.735  0.00  0.00    +0.000 A 
BRANCH  21  24
ATOM     24  C   UNL     1      47.354   2.383   6.490  0.00  0.00    +0.000 C 
ATOM     25  N   UNL     1      47.327   3.181   5.383  0.00  0.00    +0.000 N 
ATOM     26  O   UNL     1      48.104   1.414   6.573  0.00  0.00    +0.000 OA
ATOM     27  H   UNL     1      46.677   3.955   5.343  0.00  0.00    +0.000 HD
ATOM     28  H   UNL     1      47.914   2.957   4.593  0.00  0.00    +0.000 HD
ENDBRANCH  21  24
ENDBRANCH  16  18
ENDBRANCH  15  16
ENDBRANCH   1  15
TORSDOF 5
ENDMDL
MODEL 5
REMARK VINA RESULT:    -7.621      1.334      2.239
REMARK INTER + INTRA:         -10.500
REMARK INTER:                 -10.086
REMARK INTRA:                  -0.414
REMARK UNBOUND:                -0.651
REMARK  Name = 
REMARK  6 active torsions:
REMARK  status: ('A' for Active; 'I' for Inactive)
REMARK    1  A    between atoms: C_1  and  N_2
REMARK    2  A    between atoms: C_8  and  C_9
REMARK    3  A    between atoms: C_9  and  C_10
REMARK    4  A    between atoms: C_10  and  N_11
REMARK    5  A    between atoms: N_11  and  C_12
REMARK    6  A    between atoms: C_15  and  C_16
REMARK                            x       y       z     vdW  Elec       q    Type
REMARK                         _______ _______ _______ _____ _____    ______ ____
ROOT
ATOM      1  C   UNL     1      45.227   5.004  11.851  0.00  0.00    +0.000 C 
ENDROOT
BRANCH   1   9
ATOM      2  C   UNL     1      52.480   8.083  14.980  0.00  0.00    +0.000 C 
ATOM      3  N   UNL     1      51.062   8.434  14.968  0.00  0.00    +0.000 NA
ATOM      4  C   UNL     1      50.712   9.138  13.704  0.00  0.00    +0.000 C 
ATOM      5  C   UNL     1      49.191   9.408  13.549  0.00  0.00    +0.000 C 
ATOM      6  N   UNL     1      48.508   8.117  13.663  0.00  0.00    +0.000 N 
ATOM      7  C   UNL     1      47.266   7.963  13.078  0.00  0.00    +0.000 A 
ATOM      8  C   UNL     1      46.830   6.665  12.792  0.00  0.00    +0.000 A 
ATOM      9  C   UNL     1      45.618   6.437  12.140  0.00  0.00    +0.000 A 
ATOM     10  C   UNL     1      44.866   7.557  11.790  0.00  0.00    +0.000 A 
ATOM     11  C   UNL     1      45.361   8.814  12.097  0.00  0.00    +0.000 A 
ATOM     12  N   UNL     1      46.539   9.037  12.718  0.00  0.00    +0.000 NA
ATOM     13  C   UNL     1      48.726   7.484  14.968  0.00  0.00    +0.000 C 
ATOM     14  C   UNL     1      50.238   7.209  15.113  0.00  0.00    +0.000 C 
ENDBRANCH   1   9
BRANCH   1  15
ATOM     15  C   UNL     1      43.814   4.839  11.297  0.00  0.00    +0.000 C 
BRANCH  15  16
ATOM     16  N   UNL     1      43.777   4.928   9.836  0.00  0.00    +0.000 N 
ATOM     17  H   UNL     1      43.932   5.876   9.499  0.00  0.00    +0.000 HD
BRANCH  16  18
ATOM     18  C   UNL     1      44.583   3.999   9.150  0.00  0.00    +0.000 A 
ATOM     19  C   UNL     1      45.594   4.376   8.258  0.00  0.00    +0.000 A 
ATOM     20  C   UNL     1      46.409   3.422   7.654  0.00  0.00    +0.000 A 
ATOM     21  C   UNL     1      46.216   2.093   7.988  0.00  0.00    +0.000 A 
ATOM     22  N   UNL     1      45.279   1.664   8.879  0.00  0.00    +0.000 NA
ATOM     23  C   UNL     1      44.509   2.631   9.442  0.00  0.00    +0.000 A 
BRANCH  21  24
ATOM     24  C   UNL     1      47.090   1.050   7.367  0.00  0.00    +0.000 C 
ATOM     25  N   UNL     1      46.776  -0.242   7.681  0.00  0.00    +0.000 N 
ATOM     26  O   UNL     1      48.031   1.327   6.628  0.00  0.00    +0.000 OA
ATOM     27  H   UNL     1      46.009  -0.428   8.313  0.00  0.00    +0.000 HD
ATOM     28  H   UNL     1      47.347  -0.994   7.325  0.00  0.00    +0.000 HD
ENDBRANCH  21  24
ENDBRANCH  16  18
ENDBRANCH  15  16
ENDBRANCH   1  15
TORSDOF 5
ENDMDL
MODEL 6
REMARK VINA RESULT:    -7.450      3.826      8.280
REMARK INTER + INTRA:         -10.280
REMARK INTER:                  -9.900
REMARK INTRA:                  -0.380
REMARK UNBOUND:                -0.651
REMARK  Name = 
REMARK  6 active torsions:
REMARK  status: ('A' for Active; 'I' for Inactive)
REMARK    1  A    between atoms: C_1  and  N_2
REMARK    2  A    between atoms: C_8  and  C_9
REMARK    3  A    between atoms: C_9  and  C_10
REMARK    4  A    between atoms: C_10  and  N_11
REMARK    5  A    between atoms: N_11  and  C_12
REMARK    6  A    between atoms: C_15  and  C_16
REMARK                            x       y       z     vdW  Elec       q    Type
REMARK                         _______ _______ _______ _____ _____    ______ ____
ROOT
ATOM      1  C   UNL     1      45.400   5.852  13.219  0.00  0.00    +0.000 C 
ENDROOT
BRANCH   1   9
ATOM      2  C   UNL     1      47.915   2.104   6.042  0.00  0.00    +0.000 C 
ATOM      3  N   UNL     1      46.664   2.398   6.739  0.00  0.00    +0.000 NA
ATOM      4  C   UNL     1      46.399   1.372   7.784  0.00  0.00    +0.000 C 
ATOM      5  C   UNL     1      45.167   1.698   8.671  0.00  0.00    +0.000 C 
ATOM      6  N   UNL     1      45.390   3.025   9.251  0.00  0.00    +0.000 N 
ATOM      7  C   UNL     1      44.756   3.355  10.432  0.00  0.00    +0.000 A 
ATOM      8  C   UNL     1      45.295   4.390  11.203  0.00  0.00    +0.000 A 
ATOM      9  C   UNL     1      44.747   4.733  12.439  0.00  0.00    +0.000 A 
ATOM     10  C   UNL     1      43.643   3.998  12.868  0.00  0.00    +0.000 A 
ATOM     11  C   UNL     1      43.164   2.981  12.058  0.00  0.00    +0.000 A 
ATOM     12  N   UNL     1      43.700   2.641  10.866  0.00  0.00    +0.000 NA
ATOM     13  C   UNL     1      45.503   4.070   8.226  0.00  0.00    +0.000 C 
ATOM     14  C   UNL     1      46.734   3.746   7.355  0.00  0.00    +0.000 C 
ENDBRANCH   1   9
BRANCH   1  15
ATOM     15  C   UNL     1      46.702   5.458  13.913  0.00  0.00    +0.000 C 
BRANCH  15  16
ATOM     16  N   UNL     1      46.495   4.434  14.939  0.00  0.00    +0.000 N 
ATOM     17  H   UNL     1      46.320   3.513  14.541  0.00  0.00    +0.000 HD
BRANCH  16  18
ATOM     18  C   UNL     1      47.473   4.382  15.951  0.00  0.00    +0.000 A 
ATOM     19  C   UNL     1      47.822   3.200  16.616  0.00  0.00    +0.000 A 
ATOM     20  C   UNL     1      48.842   3.187  17.564  0.00  0.00    +0.000 A 
ATOM     21  C   UNL     1      49.526   4.366  17.803  0.00  0.00    +0.000 A 
ATOM     22  N   UNL     1      49.265   5.538  17.161  0.00  0.00    +0.000 NA
ATOM     23  C   UNL     1      48.261   5.501  16.246  0.00  0.00    +0.000 A 
BRANCH  21  24
ATOM     24  C   UNL     1      50.639   4.374  18.803  0.00  0.00    +0.000 C 
ATOM     25  N   UNL     1      50.251   4.428  20.112  0.00  0.00    +0.000 N 
ATOM     26  O   UNL     1      51.823   4.338  18.479  0.00  0.00    +0.000 OA
ATOM     27  H   UNL     1      49.266   4.481  20.337  0.00  0.00    +0.000 HD
ATOM     28  H   UNL     1      50.951   4.473  20.837  0.00  0.00    +0.000 HD
ENDBRANCH  21  24
ENDBRANCH  16  18
ENDBRANCH  15  16
ENDBRANCH   1  15
TORSDOF 5
ENDMDL
MODEL 7
REMARK VINA RESULT:    -6.637      3.251      8.002
REMARK INTER + INTRA:          -9.229
REMARK INTER:                  -8.821
REMARK INTRA:                  -0.407
REMARK UNBOUND:                -0.651
REMARK  Name = 
REMARK  6 active torsions:
REMARK  status: ('A' for Active; 'I' for Inactive)
REMARK    1  A    between atoms: C_1  and  N_2
REMARK    2  A    between atoms: C_8  and  C_9
REMARK    3  A    between atoms: C_9  and  C_10
REMARK    4  A    between atoms: C_10  and  N_11
REMARK    5  A    between atoms: N_11  and  C_12
REMARK    6  A    between atoms: C_15  and  C_16
REMARK                            x       y       z     vdW  Elec       q    Type
REMARK                         _______ _______ _______ _____ _____    ______ ____
ROOT
ATOM      1  C   UNL     1      45.065   6.878  12.293  0.00  0.00    +0.000 C 
ENDROOT
BRANCH   1   9
ATOM      2  C   UNL     1      47.950   1.792   6.153  0.00  0.00    +0.000 C 
ATOM      3  N   UNL     1      46.673   2.134   6.776  0.00  0.00    +0.000 NA
ATOM      4  C   UNL     1      46.485   1.359   8.034  0.00  0.00    +0.000 C 
ATOM      5  C   UNL     1      45.222   1.779   8.833  0.00  0.00    +0.000 C 
ATOM      6  N   UNL     1      45.328   3.217   9.087  0.00  0.00    +0.000 N 
ATOM      7  C   UNL     1      44.657   3.758  10.167  0.00  0.00    +0.000 A 
ATOM      8  C   UNL     1      45.101   4.984  10.671  0.00  0.00    +0.000 A 
ATOM      9  C   UNL     1      44.515   5.557  11.800  0.00  0.00    +0.000 A 
ATOM     10  C   UNL     1      43.472   4.852  12.399  0.00  0.00    +0.000 A 
ATOM     11  C   UNL     1      43.087   3.639  11.852  0.00  0.00    +0.000 A 
ATOM     12  N   UNL     1      43.661   3.078  10.766  0.00  0.00    +0.000 NA
ATOM     13  C   UNL     1      45.362   4.002   7.848  0.00  0.00    +0.000 C 
ATOM     14  C   UNL     1      46.625   3.588   7.062  0.00  0.00    +0.000 C 
ENDBRANCH   1   9
BRANCH   1  15
ATOM     15  C   UNL     1      46.556   6.853  12.620  0.00  0.00    +0.000 C 
BRANCH  15  16
ATOM     16  N   UNL     1      46.818   6.374  13.979  0.00  0.00    +0.000 N 
ATOM     17  H   UNL     1      46.528   5.408  14.114  0.00  0.00    +0.000 HD
BRANCH  16  18
ATOM     18  C   UNL     1      48.124   6.594  14.458  0.00  0.00    +0.000 A 
ATOM     19  C   UNL     1      48.982   7.562  13.922  0.00  0.00    +0.000 A 
ATOM     20  C   UNL     1      50.240   7.786  14.473  0.00  0.00    +0.000 A 
ATOM     21  C   UNL     1      50.606   7.052  15.588  0.00  0.00    +0.000 A 
ATOM     22  N   UNL     1      49.802   6.126  16.182  0.00  0.00    +0.000 NA
ATOM     23  C   UNL     1      48.585   5.942  15.609  0.00  0.00    +0.000 A 
BRANCH  21  24
ATOM     24  C   UNL     1      51.946   7.287  16.210  0.00  0.00    +0.000 C 
ATOM     25  N   UNL     1      52.949   6.474  15.766  0.00  0.00    +0.000 N 
ATOM     26  O   UNL     1      52.138   8.148  17.065  0.00  0.00    +0.000 OA
ATOM     27  H   UNL     1      52.745   5.761  15.079  0.00  0.00    +0.000 HD
ATOM     28  H   UNL     1      53.871   6.555  16.170  0.00  0.00    +0.000 HD
ENDBRANCH  21  24
ENDBRANCH  16  18
ENDBRANCH  15  16
ENDBRANCH   1  15
TORSDOF 5
ENDMDL
MODEL 8
REMARK VINA RESULT:    -6.593      3.478      7.775
REMARK INTER + INTRA:          -9.171
REMARK INTER:                  -8.347
REMARK INTRA:                  -0.824
REMARK UNBOUND:                -0.651
REMARK  Name = 
REMARK  6 active torsions:
REMARK  status: ('A' for Active; 'I' for Inactive)
REMARK    1  A    between atoms: C_1  and  N_2
REMARK    2  A    between atoms: C_8  and  C_9
REMARK    3  A    between atoms: C_9  and  C_10
REMARK    4  A    between atoms: C_10  and  N_11
REMARK    5  A    between atoms: N_11  and  C_12
REMARK    6  A    between atoms: C_15  and  C_16
REMARK                            x       y       z     vdW  Elec       q    Type
REMARK                         _______ _______ _______ _____ _____    ______ ____
ROOT
ATOM      1  C   UNL     1      48.427   9.185  12.774  0.00  0.00    +0.000 C 
ENDROOT
BRANCH   1   9
ATOM      2  C   UNL     1      43.328   2.494  11.720  0.00  0.00    +0.000 C 
ATOM      3  N   UNL     1      43.538   3.810  11.121  0.00  0.00    +0.000 NA
ATOM      4  C   UNL     1      42.844   4.859  11.917  0.00  0.00    +0.000 C 
ATOM      5  C   UNL     1      43.146   6.303  11.432  0.00  0.00    +0.000 C 
ATOM      6  N   UNL     1      44.601   6.472  11.453  0.00  0.00    +0.000 N 
ATOM      7  C   UNL     1      45.126   7.744  11.571  0.00  0.00    +0.000 A 
ATOM      8  C   UNL     1      46.437   7.874  12.040  0.00  0.00    +0.000 A 
ATOM      9  C   UNL     1      47.009   9.130  12.248  0.00  0.00    +0.000 A 
ATOM     10  C   UNL     1      46.216  10.241  11.970  0.00  0.00    +0.000 A 
ATOM     11  C   UNL     1      44.922  10.040  11.515  0.00  0.00    +0.000 A 
ATOM     12  N   UNL     1      44.364   8.826  11.323  0.00  0.00    +0.000 NA
ATOM     13  C   UNL     1      45.285   5.537  10.552  0.00  0.00    +0.000 C 
ATOM     14  C   UNL     1      44.990   4.105  11.046  0.00  0.00    +0.000 C 
ENDBRANCH   1   9
BRANCH   1  15
ATOM     15  C   UNL     1      49.030   7.820  13.095  0.00  0.00    +0.000 C 
BRANCH  15  16
ATOM     16  N   UNL     1      49.490   7.729  14.483  0.00  0.00    +0.000 N 
ATOM     17  H   UNL     1      49.453   8.626  14.965  0.00  0.00    +0.000 HD
BRANCH  16  18
ATOM     18  C   UNL     1      48.903   6.705  15.251  0.00  0.00    +0.000 A 
ATOM     19  C   UNL     1      47.948   5.819  14.739  0.00  0.00    +0.000 A 
ATOM     20  C   UNL     1      47.445   4.781  15.519  0.00  0.00    +0.000 A 
ATOM     21  C   UNL     1      47.943   4.627  16.802  0.00  0.00    +0.000 A 
ATOM     22  N   UNL     1      48.901   5.429  17.344  0.00  0.00    +0.000 NA
ATOM     23  C   UNL     1      49.361   6.427  16.545  0.00  0.00    +0.000 A 
BRANCH  21  24
ATOM     24  C   UNL     1      47.432   3.509  17.654  0.00  0.00    +0.000 C 
ATOM     25  N   UNL     1      48.174   3.234  18.767  0.00  0.00    +0.000 N 
ATOM     26  O   UNL     1      46.419   2.873  17.377  0.00  0.00    +0.000 OA
ATOM     27  H   UNL     1      49.016   3.764  18.948  0.00  0.00    +0.000 HD
ATOM     28  H   UNL     1      47.906   2.467  19.367  0.00  0.00    +0.000 HD
ENDBRANCH  21  24
ENDBRANCH  16  18
ENDBRANCH  15  16
ENDBRANCH   1  15
TORSDOF 5
ENDMDL
MODEL 9
REMARK VINA RESULT:    -6.290      3.389      8.039
REMARK INTER + INTRA:          -8.780
REMARK INTER:                  -8.393
REMARK INTRA:                  -0.387
REMARK UNBOUND:                -0.651
REMARK  Name = 
REMARK  6 active torsions:
REMARK  status: ('A' for Active; 'I' for Inactive)
REMARK    1  A    between atoms: C_1  and  N_2
REMARK    2  A    between atoms: C_8  and  C_9
REMARK    3  A    between atoms: C_9  and  C_10
REMARK    4  A    between atoms: C_10  and  N_11
REMARK    5  A    between atoms: N_11  and  C_12
REMARK    6  A    between atoms: C_15  and  C_16
REMARK                            x       y       z     vdW  Elec       q    Type
REMARK                         _______ _______ _______ _____ _____    ______ ____
ROOT
ATOM      1  C   UNL     1      47.119   7.855  12.236  0.00  0.00    +0.000 C 
ENDROOT
BRANCH   1   9
ATOM      2  C   UNL     1      47.046   1.365   6.781  0.00  0.00    +0.000 C 
ATOM      3  N   UNL     1      46.098   2.317   7.356  0.00  0.00    +0.000 NA
ATOM      4  C   UNL     1      45.653   1.858   8.700  0.00  0.00    +0.000 C 
ATOM      5  C   UNL     1      44.763   2.892   9.442  0.00  0.00    +0.000 C 
ATOM      6  N   UNL     1      45.521   4.144   9.514  0.00  0.00    +0.000 N 
ATOM      7  C   UNL     1      45.228   5.047  10.517  0.00  0.00    +0.000 A 
ATOM      8  C   UNL     1      46.205   5.985  10.864  0.00  0.00    +0.000 A 
ATOM      9  C   UNL     1      46.006   6.884  11.912  0.00  0.00    +0.000 A 
ATOM     10  C   UNL     1      44.793   6.801  12.595  0.00  0.00    +0.000 A 
ATOM     11  C   UNL     1      43.872   5.843  12.204  0.00  0.00    +0.000 A 
ATOM     12  N   UNL     1      44.069   4.966  11.196  0.00  0.00    +0.000 NA
ATOM     13  C   UNL     1      45.834   4.683   8.186  0.00  0.00    +0.000 C 
ATOM     14  C   UNL     1      46.727   3.657   7.458  0.00  0.00    +0.000 C 
ENDBRANCH   1   9
BRANCH   1  15
ATOM     15  C   UNL     1      48.220   7.276  13.121  0.00  0.00    +0.000 C 
BRANCH  15  16
ATOM     16  N   UNL     1      47.893   7.369  14.546  0.00  0.00    +0.000 N 
ATOM     17  H   UNL     1      46.891   7.311  14.720  0.00  0.00    +0.000 HD
BRANCH  16  18
ATOM     18  C   UNL     1      48.615   6.507  15.392  0.00  0.00    +0.000 A 
ATOM     19  C   UNL     1      49.827   6.866  15.994  0.00  0.00    +0.000 A 
ATOM     20  C   UNL     1      50.471   6.003  16.876  0.00  0.00    +0.000 A 
ATOM     21  C   UNL     1      49.862   4.795  17.170  0.00  0.00    +0.000 A 
ATOM     22  N   UNL     1      48.665   4.404  16.651  0.00  0.00    +0.000 NA
ATOM     23  C   UNL     1      48.075   5.279  15.796  0.00  0.00    +0.000 A 
BRANCH  21  24
ATOM     24  C   UNL     1      50.525   3.857  18.129  0.00  0.00    +0.000 C 
ATOM     25  N   UNL     1      50.705   4.342  19.393  0.00  0.00    +0.000 N 
ATOM     26  O   UNL     1      50.889   2.729  17.809  0.00  0.00    +0.000 OA
ATOM     27  H   UNL     1      50.414   5.286  19.611  0.00  0.00    +0.000 HD
ATOM     28  H   UNL     1      51.179   3.775  20.081  0.00  0.00    +0.000 HD
ENDBRANCH  21  24
ENDBRANCH  16  18
ENDBRANCH  15  16
ENDBRANCH   1  15
TORSDOF 5
ENDMDL
