MODEL 1
REMARK VINA RESULT:    -8.054      0.000      0.000
REMARK INTER + INTRA:         -10.447
REMARK INTER:                  -9.937
REMARK INTRA:                  -0.510
REMARK UNBOUND:                -0.510
REMARK  Name = 
REMARK  4 active torsions:
REMARK  status: ('A' for Active; 'I' for Inactive)
REMARK    1  A    between atoms: C_2  and  C_4
REMARK    2  A    between atoms: C_7  and  O_8
REMARK    3  A    between atoms: O_8  and  C_9
REMARK    4  A    between atoms: C_9  and  C_10
REMARK                            x       y       z     vdW  Elec       q    Type
REMARK                         _______ _______ _______ _____ _____    ______ ____
ROOT
ATOM      1  C   UNL     1      46.421   2.512   7.680  0.00  0.00    +0.000 A 
ATOM      2  C   UNL     1      45.520   1.856   8.521  0.00  0.00    +0.000 A 
ATOM      3  C   UNL     1      44.586   2.606   9.236  0.00  0.00    +0.000 A 
ATOM      4  C   UNL     1      44.573   3.982   9.065  0.00  0.00    +0.000 A 
ATOM      5  N   UNL     1      45.446   4.646   8.277  0.00  0.00    +0.000 NA
ATOM      6  C   UNL     1      46.360   3.896   7.613  0.00  0.00    +0.000 A 
ENDROOT
BRANCH   1   8
ATOM      7  N   UNL     1      48.500   2.542   6.428  0.00  0.00    +0.000 N 
ATOM      8  C   UNL     1      47.427   1.812   6.858  0.00  0.00    +0.000 C 
ATOM      9  O   UNL     1      47.334   0.616   6.615  0.00  0.00    +0.000 OA
ATOM     10  H   UNL     1      49.242   2.020   5.976  0.00  0.00    +0.000 HD
ATOM     11  H   UNL     1      48.738   3.440   6.822  0.00  0.00    +0.000 HD
ENDBRANCH   1   8
BRANCH   4  12
ATOM     12  O   UNL     1      43.617   4.693   9.764  0.00  0.00    +0.000 OA
BRANCH  12  13
ATOM     13  C   UNL     1      43.455   4.181  11.091  0.00  0.00    +0.000 C 
BRANCH  13  14
ATOM     14  C   UNL     1      44.582   4.639  11.993  0.00  0.00    +0.000 A 
ATOM     15  C   UNL     1      44.897   6.007  12.072  0.00  0.00    +0.000 A 
ATOM     16  C   UNL     1      45.991   6.447  12.823  0.00  0.00    +0.000 A 
ATOM     17  C   UNL     1      46.786   5.523  13.497  0.00  0.00    +0.000 A 
ATOM     18  C   UNL     1      46.480   4.170  13.416  0.00  0.00    +0.000 A 
ATOM     19  F   UNL     1      47.255   3.283  14.053  0.00  0.00    +0.000 F 
ATOM     20  C   UNL     1      45.394   3.721  12.670  0.00  0.00    +0.000 A 
ENDBRANCH  13  14
ENDBRANCH  12  13
ENDBRANCH   4  12
TORSDOF 4
ENDMDL
MODEL 2
REMARK VINA RESULT:    -7.815      1.299      1.698
REMARK INTER + INTRA:         -10.153
REMARK INTER:                  -9.750
REMARK INTRA:                  -0.402
REMARK UNBOUND:                -0.510
REMARK  Name = 
REMARK  4 active torsions:
REMARK  status: ('A' for Active; 'I' for Inactive)
REMARK    1  A    between atoms: C_2  and  C_4
REMARK    2  A    between atoms: C_7  and  O_8
REMARK    3  A    between atoms: O_8  and  C_9
REMARK    4  A    between atoms: C_9  and  C_10
REMARK                            x       y       z     vdW  Elec       q    Type
REMARK                         _______ _______ _______ _____ _____    ______ ____
ROOT
ATOM      1  C   UNL     1      46.423   2.441   7.717  0.00  0.00    +0.000 A 
ATOM      2  C   UNL     1      45.588   1.815   8.644  0.00  0.00    +0.000 A 
ATOM      3  C   UNL     1      44.688   2.587   9.380  0.00  0.00    +0.000 A 
ATOM      4  C   UNL     1      44.640   3.953   9.143  0.00  0.00    +0.000 A 
ATOM      5  N   UNL     1      45.452   4.589   8.270  0.00  0.00    +0.000 NA
ATOM      6  C   UNL     1      46.334   3.819   7.586  0.00  0.00    +0.000 A 
ENDROOT
BRANCH   1   8
ATOM      7  N   UNL     1      48.479   2.410   6.428  0.00  0.00    +0.000 N 
ATOM      8  C   UNL     1      47.388   1.716   6.868  0.00  0.00    +0.000 C 
ATOM      9  O   UNL     1      47.245   0.527   6.611  0.00  0.00    +0.000 OA
ATOM     10  H   UNL     1      49.193   1.868   5.956  0.00  0.00    +0.000 HD
ATOM     11  H   UNL     1      48.758   3.294   6.830  0.00  0.00    +0.000 HD
ENDBRANCH   1   8
BRANCH   4  12
ATOM     12  O   UNL     1      43.718   4.684   9.866  0.00  0.00    +0.000 OA
BRANCH  12  13
ATOM     13  C   UNL     1      43.793   4.380  11.262  0.00  0.00    +0.000 C 
BRANCH  13  14
ATOM     14  C   UNL     1      45.064   4.929  11.873  0.00  0.00    +0.000 A 
ATOM     15  C   UNL     1      45.704   4.219  12.904  0.00  0.00    +0.000 A 
ATOM     16  C   UNL     1      46.825   4.747  13.550  0.00  0.00    +0.000 A 
ATOM     17  C   UNL     1      47.315   5.997  13.176  0.00  0.00    +0.000 A 
ATOM     18  C   UNL     1      46.681   6.705  12.161  0.00  0.00    +0.000 A 
ATOM     19  F   UNL     1      47.145   7.912  11.815  0.00  0.00    +0.000 F 
ATOM     20  C   UNL     1      45.563   6.188  11.513  0.00  0.00    +0.000 A 
ENDBRANCH  13  14
ENDBRANCH  12  13
ENDBRANCH   4  12
TORSDOF 4
ENDMDL
MODEL 3
REMARK VINA RESULT:    -7.712      2.956      5.918
REMARK INTER + INTRA:         -10.025
REMARK INTER:                  -9.514
REMARK INTRA:                  -0.511
REMARK UNBOUND:                -0.510
REMARK  Name = 
REMARK  4 active torsions:
REMARK  status: ('A' for Active; 'I' for Inactive)
REMARK    1  A    between atoms: C_2  and  C_4
REMARK    2  A    between atoms: C_7  and  O_8
REMARK    3  A    between atoms: O_8  and  C_9
REMARK    4  A    between atoms: C_9  and  C_10
REMARK                            x       y       z     vdW  Elec       q    Type
REMARK                         _______ _______ _______ _____ _____    ______ ____
ROOT
ATOM      1  C   UNL     1      46.442   5.126  13.013  0.00  0.00    +0.000 A 
ATOM      2  C   UNL     1      46.019   3.798  13.103  0.00  0.00    +0.000 A 
ATOM      3  C   UNL     1      45.237   3.262  12.080  0.00  0.00    +0.000 A 
ATOM      4  C   UNL     1      44.928   4.067  10.992  0.00  0.00    +0.000 A 
ATOM      5  N   UNL     1      45.304   5.360  10.889  0.00  0.00    +0.000 NA
ATOM      6  C   UNL     1      46.042   5.864  11.909  0.00  0.00    +0.000 A 
ENDROOT
BRANCH   1   8
ATOM      7  N   UNL     1      47.360   7.145  13.999  0.00  0.00    +0.000 N 
ATOM      8  C   UNL     1      47.295   5.780  14.025  0.00  0.00    +0.000 C 
ATOM      9  O   UNL     1      47.878   5.132  14.884  0.00  0.00    +0.000 OA
ATOM     10  H   UNL     1      47.844   7.583  14.773  0.00  0.00    +0.000 HD
ATOM     11  H   UNL     1      46.699   7.710  13.485  0.00  0.00    +0.000 HD
ENDBRANCH   1   8
BRANCH   4  12
ATOM     12  O   UNL     1      44.178   3.497   9.982  0.00  0.00    +0.000 OA
BRANCH  12  13
ATOM     13  C   UNL     1      44.591   3.969   8.697  0.00  0.00    +0.000 C 
BRANCH  13  14
ATOM     14  C   UNL     1      45.681   3.093   8.118  0.00  0.00    +0.000 A 
ATOM     15  C   UNL     1      46.626   3.648   7.237  0.00  0.00    +0.000 A 
ATOM     16  C   UNL     1      47.585   2.844   6.616  0.00  0.00    +0.000 A 
ATOM     17  C   UNL     1      47.606   1.473   6.862  0.00  0.00    +0.000 A 
ATOM     18  C   UNL     1      46.669   0.920   7.728  0.00  0.00    +0.000 A 
ATOM     19  F   UNL     1      46.681  -0.401   7.951  0.00  0.00    +0.000 F 
ATOM     20  C   UNL     1      45.709   1.711   8.351  0.00  0.00    +0.000 A 
ENDBRANCH  13  14
ENDBRANCH  12  13
ENDBRANCH   4  12
TORSDOF 4
ENDMDL
MODEL 4
REMARK VINA RESULT:    -7.252      3.205      6.358
REMARK INTER + INTRA:          -9.458
REMARK INTER:                  -9.110
REMARK INTRA:                  -0.348
REMARK UNBOUND:                -0.510
REMARK  Name = 
REMARK  4 active torsions:
REMARK  status: ('A' for Active; 'I' for Inactive)
REMARK    1  A    between atoms: C_2  and  C_4
REMARK    2  A    between atoms: C_7  and  O_8
REMARK    3  A    between atoms: O_8  and  C_9
REMARK    4  A    between atoms: C_9  and  C_10
REMARK                            x       y       z     vdW  Elec       q    Type
REMARK                         _______ _______ _______ _____ _____    ______ ____
ROOT
ATOM      1  C   UNL     1      45.519   7.039  12.268  0.00  0.00    +0.000 A 
ATOM      2  C   UNL     1      46.144   6.713  11.063  0.00  0.00    +0.000 A 
ATOM      3  C   UNL     1      45.838   5.501  10.444  0.00  0.00    +0.000 A 
ATOM      4  C   UNL     1      44.900   4.671  11.041  0.00  0.00    +0.000 A 
ATOM      5  N   UNL     1      44.298   4.949  12.217  0.00  0.00    +0.000 NA
ATOM      6  C   UNL     1      44.632   6.121  12.812  0.00  0.00    +0.000 A 
ENDROOT
BRANCH   1   8
ATOM      7  N   UNL     1      46.776   8.333  13.892  0.00  0.00    +0.000 N 
ATOM      8  C   UNL     1      45.750   8.305  12.990  0.00  0.00    +0.000 C 
ATOM      9  O   UNL     1      45.084   9.305  12.753  0.00  0.00    +0.000 OA
ATOM     10  H   UNL     1      47.002   9.240  14.283  0.00  0.00    +0.000 HD
ATOM     11  H   UNL     1      47.495   7.625  13.917  0.00  0.00    +0.000 HD
ENDBRANCH   1   8
BRANCH   4  12
ATOM     12  O   UNL     1      44.597   3.493  10.387  0.00  0.00    +0.000 OA
BRANCH  12  13
ATOM     13  C   UNL     1      44.523   3.687   8.971  0.00  0.00    +0.000 C 
BRANCH  13  14
ATOM     14  C   UNL     1      45.612   2.916   8.257  0.00  0.00    +0.000 A 
ATOM     15  C   UNL     1      46.450   3.580   7.344  0.00  0.00    +0.000 A 
ATOM     16  C   UNL     1      47.401   2.875   6.601  0.00  0.00    +0.000 A 
ATOM     17  C   UNL     1      47.521   1.495   6.759  0.00  0.00    +0.000 A 
ATOM     18  C   UNL     1      46.689   0.835   7.656  0.00  0.00    +0.000 A 
ATOM     19  F   UNL     1      46.796  -0.493   7.794  0.00  0.00    +0.000 F 
ATOM     20  C   UNL     1      45.738   1.527   8.399  0.00  0.00    +0.000 A 
ENDBRANCH  13  14
ENDBRANCH  12  13
ENDBRANCH   4  12
TORSDOF 4
ENDMDL
MODEL 5
REMARK VINA RESULT:    -6.589      2.988      6.103
REMARK INTER + INTRA:          -8.640
REMARK INTER:                  -8.253
REMARK INTRA:                  -0.387
REMARK UNBOUND:                -0.510
REMARK  Name = 
REMARK  4 active torsions:
REMARK  status: ('A' for Active; 'I' for Inactive)
REMARK    1  A    between atoms: C_2  and  C_4
REMARK    2  A    between atoms: C_7  and  O_8
REMARK    3  A    between atoms: O_8  and  C_9
REMARK    4  A    between atoms: C_9  and  C_10
REMARK                            x       y       z     vdW  Elec       q    Type
REMARK                         _______ _______ _______ _____ _____    ______ ____
ROOT
ATOM      1  C   UNL     1      45.800   5.566  12.418  0.00  0.00    +0.000 A 
ATOM      2  C   UNL     1      45.649   4.197  12.641  0.00  0.00    +0.000 A 
ATOM      3  C   UNL     1      44.977   3.422  11.695  0.00  0.00    +0.000 A 
ATOM      4  C   UNL     1      44.504   4.043  10.548  0.00  0.00    +0.000 A 
ATOM      5  N   UNL     1      44.614   5.369  10.316  0.00  0.00    +0.000 NA
ATOM      6  C   UNL     1      45.248   6.103  11.263  0.00  0.00    +0.000 A 
ENDROOT
BRANCH   1   8
ATOM      7  N   UNL     1      46.093   7.766  13.399  0.00  0.00    +0.000 N 
ATOM      8  C   UNL     1      46.517   6.469  13.339  0.00  0.00    +0.000 C 
ATOM      9  O   UNL     1      47.419   6.061  14.059  0.00  0.00    +0.000 OA
ATOM     10  H   UNL     1      46.508   8.339  14.125  0.00  0.00    +0.000 HD
ATOM     11  H   UNL     1      45.203   8.064  13.026  0.00  0.00    +0.000 HD
ENDBRANCH   1   8
BRANCH   4  12
ATOM     12  O   UNL     1      43.870   3.243   9.617  0.00  0.00    +0.000 OA
BRANCH  12  13
ATOM     13  C   UNL     1      44.549   1.994   9.456  0.00  0.00    +0.000 C 
BRANCH  13  14
ATOM     14  C   UNL     1      45.516   2.045   8.292  0.00  0.00    +0.000 A 
ATOM     15  C   UNL     1      46.392   0.969   8.068  0.00  0.00    +0.000 A 
ATOM     16  C   UNL     1      47.358   1.029   7.059  0.00  0.00    +0.000 A 
ATOM     17  C   UNL     1      47.463   2.171   6.268  0.00  0.00    +0.000 A 
ATOM     18  C   UNL     1      46.603   3.240   6.492  0.00  0.00    +0.000 A 
ATOM     19  F   UNL     1      46.716   4.342   5.739  0.00  0.00    +0.000 F 
ATOM     20  C   UNL     1      45.638   3.190   7.493  0.00  0.00    +0.000 A 
ENDBRANCH  13  14
ENDBRANCH  12  13
ENDBRANCH   4  12
TORSDOF 4
ENDMDL
MODEL 6
REMARK VINA RESULT:    -6.071      3.850      5.831
REMARK INTER + INTRA:          -8.001
REMARK INTER:                  -7.668
REMARK INTRA:                  -0.333
REMARK UNBOUND:                -0.510
REMARK  Name = 
REMARK  4 active torsions:
REMARK  status: ('A' for Active; 'I' for Inactive)
REMARK    1  A    between atoms: C_2  and  C_4
REMARK    2  A    between atoms: C_7  and  O_8
REMARK    3  A    between atoms: O_8  and  C_9
REMARK    4  A    between atoms: C_9  and  C_10
REMARK                            x       y       z     vdW  Elec       q    Type
REMARK                         _______ _______ _______ _____ _____    ______ ____
ROOT
ATOM      1  C   UNL     1      44.789   4.638  11.557  0.00  0.00    +0.000 A 
ATOM      2  C   UNL     1      45.677   5.531  12.160  0.00  0.00    +0.000 A 
ATOM      3  C   UNL     1      46.558   5.062  13.135  0.00  0.00    +0.000 A 
ATOM      4  C   UNL     1      46.535   3.712  13.453  0.00  0.00    +0.000 A 
ATOM      5  N   UNL     1      45.671   2.830  12.904  0.00  0.00    +0.000 NA
ATOM      6  C   UNL     1      44.808   3.317  11.978  0.00  0.00    +0.000 A 
ENDROOT
BRANCH   1   8
ATOM      7  N   UNL     1      44.110   4.598   9.228  0.00  0.00    +0.000 N 
ATOM      8  C   UNL     1      43.838   5.024  10.497  0.00  0.00    +0.000 C 
ATOM      9  O   UNL     1      42.820   5.655  10.752  0.00  0.00    +0.000 OA
ATOM     10  H   UNL     1      43.386   4.761   8.538  0.00  0.00    +0.000 HD
ATOM     11  H   UNL     1      44.782   3.870   9.032  0.00  0.00    +0.000 HD
ENDBRANCH   1   8
BRANCH   4  12
ATOM     12  O   UNL     1      47.440   3.275  14.400  0.00  0.00    +0.000 OA
BRANCH  12  13
ATOM     13  C   UNL     1      47.306   4.003  15.624  0.00  0.00    +0.000 C 
BRANCH  13  14
ATOM     14  C   UNL     1      48.503   3.781  16.524  0.00  0.00    +0.000 A 
ATOM     15  C   UNL     1      49.097   4.877  17.174  0.00  0.00    +0.000 A 
ATOM     16  C   UNL     1      50.257   4.715  17.936  0.00  0.00    +0.000 A 
ATOM     17  C   UNL     1      50.842   3.455  18.049  0.00  0.00    +0.000 A 
ATOM     18  C   UNL     1      50.260   2.371  17.402  0.00  0.00    +0.000 A 
ATOM     19  F   UNL     1      50.833   1.164  17.501  0.00  0.00    +0.000 F 
ATOM     20  C   UNL     1      49.105   2.522  16.641  0.00  0.00    +0.000 A 
ENDBRANCH  13  14
ENDBRANCH  12  13
ENDBRANCH   4  12
TORSDOF 4
ENDMDL
MODEL 7
REMARK VINA RESULT:    -5.804      4.212      6.122
REMARK INTER + INTRA:          -7.671
REMARK INTER:                  -7.387
REMARK INTRA:                  -0.284
REMARK UNBOUND:                -0.510
REMARK  Name = 
REMARK  4 active torsions:
REMARK  status: ('A' for Active; 'I' for Inactive)
REMARK    1  A    between atoms: C_2  and  C_4
REMARK    2  A    between atoms: C_7  and  O_8
REMARK    3  A    between atoms: O_8  and  C_9
REMARK    4  A    between atoms: C_9  and  C_10
REMARK                            x       y       z     vdW  Elec       q    Type
REMARK                         _______ _______ _______ _____ _____    ______ ____
ROOT
ATOM      1  C   UNL     1      44.371   5.366  12.343  0.00  0.00    +0.000 A 
ATOM      2  C   UNL     1      45.006   6.607  12.414  0.00  0.00    +0.000 A 
ATOM      3  C   UNL     1      46.281   6.688  12.975  0.00  0.00    +0.000 A 
ATOM      4  C   UNL     1      46.882   5.521  13.423  0.00  0.00    +0.000 A 
ATOM      5  N   UNL     1      46.283   4.312  13.389  0.00  0.00    +0.000 NA
ATOM      6  C   UNL     1      45.034   4.264  12.862  0.00  0.00    +0.000 A 
ENDROOT
BRANCH   1   8
ATOM      7  N   UNL     1      42.184   6.232  11.748  0.00  0.00    +0.000 N 
ATOM      8  C   UNL     1      43.037   5.165  11.744  0.00  0.00    +0.000 C 
ATOM      9  O   UNL     1      42.727   4.104  11.218  0.00  0.00    +0.000 OA
ATOM     10  H   UNL     1      41.325   6.118  11.222  0.00  0.00    +0.000 HD
ATOM     11  H   UNL     1      42.495   7.175  11.929  0.00  0.00    +0.000 HD
ENDBRANCH   1   8
BRANCH   4  12
ATOM     12  O   UNL     1      48.156   5.632  13.946  0.00  0.00    +0.000 OA
BRANCH  12  13
ATOM     13  C   UNL     1      48.138   6.259  15.231  0.00  0.00    +0.000 C 
BRANCH  13  14
ATOM     14  C   UNL     1      48.336   5.244  16.336  0.00  0.00    +0.000 A 
ATOM     15  C   UNL     1      49.551   5.213  17.043  0.00  0.00    +0.000 A 
ATOM     16  C   UNL     1      49.796   4.227  18.003  0.00  0.00    +0.000 A 
ATOM     17  C   UNL     1      48.831   3.256  18.262  0.00  0.00    +0.000 A 
ATOM     18  C   UNL     1      47.631   3.280  17.560  0.00  0.00    +0.000 A 
ATOM     19  F   UNL     1      46.712   2.336  17.800  0.00  0.00    +0.000 F 
ATOM     20  C   UNL     1      47.378   4.257  16.601  0.00  0.00    +0.000 A 
ENDBRANCH  13  14
ENDBRANCH  12  13
ENDBRANCH   4  12
TORSDOF 4
ENDMDL
MODEL 8
REMARK VINA RESULT:    -5.625      5.633      8.143
REMARK INTER + INTRA:          -7.451
REMARK INTER:                  -7.135
REMARK INTRA:                  -0.316
REMARK UNBOUND:                -0.510
REMARK  Name = 
REMARK  4 active torsions:
REMARK  status: ('A' for Active; 'I' for Inactive)
REMARK    1  A    between atoms: C_2  and  C_4
REMARK    2  A    between atoms: C_7  and  O_8
REMARK    3  A    between atoms: O_8  and  C_9
REMARK    4  A    between atoms: C_9  and  C_10
REMARK                            x       y       z     vdW  Elec       q    Type
REMARK                         _______ _______ _______ _____ _____    ______ ____
ROOT
ATOM      1  C   UNL     1      48.987   4.675  18.114  0.00  0.00    +0.000 A 
ATOM      2  C   UNL     1      48.185   3.533  18.147  0.00  0.00    +0.000 A 
ATOM      3  C   UNL     1      47.404   3.215  17.036  0.00  0.00    +0.000 A 
ATOM      4  C   UNL     1      47.473   4.039  15.922  0.00  0.00    +0.000 A 
ATOM      5  N   UNL     1      48.221   5.163  15.869  0.00  0.00    +0.000 NA
ATOM      6  C   UNL     1      48.951   5.462  16.972  0.00  0.00    +0.000 A 
ENDROOT
BRANCH   1   8
ATOM      7  N   UNL     1      49.781   4.375  20.387  0.00  0.00    +0.000 N 
ATOM      8  C   UNL     1      49.870   5.084  19.222  0.00  0.00    +0.000 C 
ATOM      9  O   UNL     1      50.687   5.986  19.088  0.00  0.00    +0.000 OA
ATOM     10  H   UNL     1      50.479   4.583  21.091  0.00  0.00    +0.000 HD
ATOM     11  H   UNL     1      49.320   3.478  20.442  0.00  0.00    +0.000 HD
ENDBRANCH   1   8
BRANCH   4  12
ATOM     12  O   UNL     1      46.711   3.681  14.827  0.00  0.00    +0.000 OA
BRANCH  12  13
ATOM     13  C   UNL     1      46.676   4.727  13.852  0.00  0.00    +0.000 C 
BRANCH  13  14
ATOM     14  C   UNL     1      45.402   4.670  13.037  0.00  0.00    +0.000 A 
ATOM     15  C   UNL     1      44.650   5.842  12.839  0.00  0.00    +0.000 A 
ATOM     16  C   UNL     1      43.423   5.801  12.170  0.00  0.00    +0.000 A 
ATOM     17  C   UNL     1      42.930   4.585  11.699  0.00  0.00    +0.000 A 
ATOM     18  C   UNL     1      43.669   3.425  11.899  0.00  0.00    +0.000 A 
ATOM     19  F   UNL     1      43.185   2.256  11.459  0.00  0.00    +0.000 F 
ATOM     20  C   UNL     1      44.891   3.454  12.564  0.00  0.00    +0.000 A 
ENDBRANCH  13  14
ENDBRANCH  12  13
ENDBRANCH   4  12
TORSDOF 4
ENDMDL
MODEL 9
REMARK VINA RESULT:    -5.570      4.177      6.009
REMARK INTER + INTRA:          -7.383
REMARK INTER:                  -7.098
REMARK INTRA:                  -0.285
REMARK UNBOUND:                -0.510
REMARK  Name = 
REMARK  4 active torsions:
REMARK  status: ('A' for Active; 'I' for Inactive)
REMARK    1  A    between atoms: C_2  and  C_4
REMARK    2  A    between atoms: C_7  and  O_8
REMARK    3  A    between atoms: O_8  and  C_9
REMARK    4  A    between atoms: C_9  and  C_10
REMARK                            x       y       z     vdW  Elec       q    Type
REMARK                         _______ _______ _______ _____ _____    ______ ____
ROOT
ATOM      1  C   UNL     1      45.259   4.703  11.548  0.00  0.00    +0.000 A 
ATOM      2  C   UNL     1      45.978   5.881  11.760  0.00  0.00    +0.000 A 
ATOM      3  C   UNL     1      46.802   5.983  12.881  0.00  0.00    +0.000 A 
ATOM      4  C   UNL     1      46.895   4.894  13.735  0.00  0.00    +0.000 A 
ATOM      5  N   UNL     1      46.193   3.752  13.569  0.00  0.00    +0.000 NA
ATOM      6  C   UNL     1      45.381   3.688  12.485  0.00  0.00    +0.000 A 
ENDROOT
BRANCH   1   8
ATOM      7  N   UNL     1      44.846   4.896   9.164  0.00  0.00    +0.000 N 
ATOM      8  C   UNL     1      44.383   4.481  10.381  0.00  0.00    +0.000 C 
ATOM      9  O   UNL     1      43.310   3.902  10.489  0.00  0.00    +0.000 OA
ATOM     10  H   UNL     1      44.294   4.624   8.360  0.00  0.00    +0.000 HD
ATOM     11  H   UNL     1      45.815   5.130   9.004  0.00  0.00    +0.000 HD
ENDBRANCH   1   8
BRANCH   4  12
ATOM     12  O   UNL     1      47.742   5.017  14.819  0.00  0.00    +0.000 OA
BRANCH  12  13
ATOM     13  C   UNL     1      47.428   4.061  15.836  0.00  0.00    +0.000 C 
BRANCH  13  14
ATOM     14  C   UNL     1      48.049   4.450  17.161  0.00  0.00    +0.000 A 
ATOM     15  C   UNL     1      49.367   4.057  17.453  0.00  0.00    +0.000 A 
ATOM     16  C   UNL     1      49.933   4.321  18.704  0.00  0.00    +0.000 A 
ATOM     17  C   UNL     1      49.183   4.975  19.679  0.00  0.00    +0.000 A 
ATOM     18  C   UNL     1      47.878   5.359  19.395  0.00  0.00    +0.000 A 
ATOM     19  F   UNL     1      47.154   5.973  20.341  0.00  0.00    +0.000 F 
ATOM     20  C   UNL     1      47.305   5.100  18.154  0.00  0.00    +0.000 A 
ENDBRANCH  13  14
ENDBRANCH  12  13
ENDBRANCH   4  12
TORSDOF 4
ENDMDL
