MODEL 1
REMARK VINA RESULT:    -7.650      0.000      0.000
REMARK INTER + INTRA:          -9.634
REMARK INTER:                  -9.662
REMARK INTRA:                   0.028
REMARK UNBOUND:                 0.028
REMARK  Name = 
REMARK  5 active torsions:
REMARK  status: ('A' for Active; 'I' for Inactive)
REMARK    1  A    between atoms: N_1  and  C_2
REMARK    2  A    between atoms: C_2  and  C_3
REMARK    3  A    between atoms: N_6  and  C_7
REMARK    4  A    between atoms: C_7  and  N_8
REMARK    5  A    between atoms: C_13  and  C_14
REMARK                            x       y       z     vdW  Elec       q    Type
REMARK                         _______ _______ _______ _____ _____    ______ ____
ROOT
ATOM      1  N   UNL     1      43.976   4.388  10.640  0.00  0.00    +0.000 N 
ATOM      2  C   UNL     1      43.432   3.236  11.138  0.00  0.00    +0.000 A 
ATOM      3  N   UNL     1      43.878   2.173  10.506  0.00  0.00    +0.000 NA
ATOM      4  C   UNL     1      44.744   2.656   9.556  0.00  0.00    +0.000 A 
ATOM      5  C   UNL     1      45.464   1.953   8.575  0.00  0.00    +0.000 A 
ATOM      6  C   UNL     1      46.275   2.673   7.685  0.00  0.00    +0.000 A 
ATOM      7  C   UNL     1      46.388   4.067   7.811  0.00  0.00    +0.000 A 
ATOM      8  C   UNL     1      45.685   4.781   8.789  0.00  0.00    +0.000 A 
ATOM      9  C   UNL     1      44.852   4.042   9.634  0.00  0.00    +0.000 A 
ENDROOT
BRANCH   6  10
ATOM     10  C   UNL     1      47.020   2.025   6.565  0.00  0.00    +0.000 C 
ATOM     11  N   UNL     1      47.567   2.813   5.591  0.00  0.00    +0.000 N 
ATOM     12  O   UNL     1      47.160   0.808   6.512  0.00  0.00    +0.000 OA
ATOM     13  H   UNL     1      47.514   3.818   5.557  0.00  0.00    +0.000 HD
ATOM     14  H   UNL     1      48.088   2.342   4.864  0.00  0.00    +0.000 HD
ENDBRANCH   6  10
BRANCH   1  15
ATOM     15  C   UNL     1      43.562   5.738  10.996  0.00  0.00    +0.000 C 
BRANCH  15  19
ATOM     16  C   UNL     1      46.960   7.188  13.220  0.00  0.00    +0.000 C 
ATOM     17  C   UNL     1      46.313   5.859  13.632  0.00  0.00    +0.000 C 
ATOM     18  C   UNL     1      45.395   5.291  12.544  0.00  0.00    +0.000 C 
ATOM     19  N   UNL     1      44.356   6.249  12.130  0.00  0.00    +0.000 NA
ATOM     20  C   UNL     1      44.936   7.546  11.730  0.00  0.00    +0.000 C 
ATOM     21  C   UNL     1      45.838   8.148  12.805  0.00  0.00    +0.000 C 
BRANCH  16  22
ATOM     22  C   UNL     1      48.020   6.969  12.121  0.00  0.00    +0.000 C 
BRANCH  22  23
ATOM     23  N   UNL     1      49.317   6.611  12.683  0.00  0.00    +0.000 NA
ATOM     24  H   UNL     1      49.611   5.708  12.310  0.00  0.00    +0.000 HD
ATOM     25  H   UNL     1      49.230   6.484  13.690  0.00  0.00    +0.000 HD
ENDBRANCH  22  23
ENDBRANCH  16  22
ENDBRANCH  15  19
ENDBRANCH   1  15
TORSDOF 5
ENDMDL
MODEL 2
REMARK VINA RESULT:    -6.119      5.004      8.491
REMARK INTER + INTRA:          -7.701
REMARK INTER:                  -7.425
REMARK INTRA:                  -0.276
REMARK UNBOUND:                 0.028
REMARK  Name = 
REMARK  5 active torsions:
REMARK  status: ('A' for Active; 'I' for Inactive)
REMARK    1  A    between atoms: N_1  and  C_2
REMARK    2  A    between atoms: C_2  and  C_3
REMARK    3  A    between atoms: N_6  and  C_7
REMARK    4  A    between atoms: C_7  and  N_8
REMARK    5  A    between atoms: C_13  and  C_14
REMARK                            x       y       z     vdW  Elec       q    Type
REMARK                         _______ _______ _______ _____ _____    ______ ____
ROOT
ATOM      1  N   UNL     1      47.509   4.969  14.883  0.00  0.00    +0.000 N 
ATOM      2  C   UNL     1      47.996   6.231  14.676  0.00  0.00    +0.000 A 
ATOM      3  N   UNL     1      48.615   6.695  15.739  0.00  0.00    +0.000 NA
ATOM      4  C   UNL     1      48.523   5.694  16.674  0.00  0.00    +0.000 A 
ATOM      5  C   UNL     1      48.976   5.681  18.004  0.00  0.00    +0.000 A 
ATOM      6  C   UNL     1      48.740   4.542  18.790  0.00  0.00    +0.000 A 
ATOM      7  C   UNL     1      48.099   3.427  18.229  0.00  0.00    +0.000 A 
ATOM      8  C   UNL     1      47.649   3.420  16.903  0.00  0.00    +0.000 A 
ATOM      9  C   UNL     1      47.860   4.584  16.158  0.00  0.00    +0.000 A 
ENDROOT
BRANCH   6  10
ATOM     10  C   UNL     1      49.117   4.462  20.232  0.00  0.00    +0.000 C 
ATOM     11  N   UNL     1      50.431   4.608  20.580  0.00  0.00    +0.000 N 
ATOM     12  O   UNL     1      48.274   4.282  21.102  0.00  0.00    +0.000 OA
ATOM     13  H   UNL     1      51.190   4.770  19.938  0.00  0.00    +0.000 HD
ATOM     14  H   UNL     1      50.645   4.575  21.567  0.00  0.00    +0.000 HD
ENDBRANCH   6  10
BRANCH   1  15
ATOM     15  C   UNL     1      46.628   4.247  13.976  0.00  0.00    +0.000 C 
BRANCH  15  19
ATOM     16  C   UNL     1      43.642   5.667  11.208  0.00  0.00    +0.000 C 
ATOM     17  C   UNL     1      45.054   6.264  11.150  0.00  0.00    +0.000 C 
ATOM     18  C   UNL     1      46.083   5.412  11.902  0.00  0.00    +0.000 C 
ATOM     19  N   UNL     1      45.696   5.172  13.302  0.00  0.00    +0.000 NA
ATOM     20  C   UNL     1      44.339   4.602  13.404  0.00  0.00    +0.000 C 
ATOM     21  C   UNL     1      43.287   5.442  12.684  0.00  0.00    +0.000 C 
BRANCH  16  22
ATOM     22  C   UNL     1      43.547   4.389  10.351  0.00  0.00    +0.000 C 
BRANCH  22  23
ATOM     23  N   UNL     1      43.881   4.646   8.955  0.00  0.00    +0.000 NA
ATOM     24  H   UNL     1      44.895   4.641   8.842  0.00  0.00    +0.000 HD
ATOM     25  H   UNL     1      43.574   5.582   8.697  0.00  0.00    +0.000 HD
ENDBRANCH  22  23
ENDBRANCH  16  22
ENDBRANCH  15  19
ENDBRANCH   1  15
TORSDOF 5
ENDMDL
MODEL 3
REMARK VINA RESULT:    -5.990      2.990      5.026
REMARK INTER + INTRA:          -7.538
REMARK INTER:                  -7.055
REMARK INTRA:                  -0.483
REMARK UNBOUND:                 0.028
REMARK  Name = 
REMARK  5 active torsions:
REMARK  status: ('A' for Active; 'I' for Inactive)
REMARK    1  A    between atoms: N_1  and  C_2
REMARK    2  A    between atoms: C_2  and  C_3
REMARK    3  A    between atoms: N_6  and  C_7
REMARK    4  A    between atoms: C_7  and  N_8
REMARK    5  A    between atoms: C_13  and  C_14
REMARK                            x       y       z     vdW  Elec       q    Type
REMARK                         _______ _______ _______ _____ _____    ______ ____
ROOT
ATOM      1  N   UNL     1      46.104   7.779  12.704  0.00  0.00    +0.000 N 
ATOM      2  C   UNL     1      45.240   8.597  12.029  0.00  0.00    +0.000 A 
ATOM      3  N   UNL     1      44.322   7.910  11.384  0.00  0.00    +0.000 NA
ATOM      4  C   UNL     1      44.605   6.594  11.650  0.00  0.00    +0.000 A 
ATOM      5  C   UNL     1      43.965   5.437  11.173  0.00  0.00    +0.000 A 
ATOM      6  C   UNL     1      44.455   4.181  11.564  0.00  0.00    +0.000 A 
ATOM      7  C   UNL     1      45.541   4.099  12.450  0.00  0.00    +0.000 A 
ATOM      8  C   UNL     1      46.184   5.242  12.941  0.00  0.00    +0.000 A 
ATOM      9  C   UNL     1      45.701   6.477  12.501  0.00  0.00    +0.000 A 
ENDROOT
BRANCH   6  10
ATOM     10  C   UNL     1      43.890   2.897  11.053  0.00  0.00    +0.000 C 
ATOM     11  N   UNL     1      44.459   2.316   9.955  0.00  0.00    +0.000 N 
ATOM     12  O   UNL     1      42.940   2.354  11.606  0.00  0.00    +0.000 OA
ATOM     13  H   UNL     1      45.246   2.680   9.443  0.00  0.00    +0.000 HD
ATOM     14  H   UNL     1      44.067   1.433   9.654  0.00  0.00    +0.000 HD
ENDBRANCH   6  10
BRANCH   1  15
ATOM     15  C   UNL     1      47.328   8.209  13.366  0.00  0.00    +0.000 C 
BRANCH  15  19
ATOM     16  C   UNL     1      51.217   9.048  11.703  0.00  0.00    +0.000 C 
ATOM     17  C   UNL     1      50.182  10.178  11.783  0.00  0.00    +0.000 C 
ATOM     18  C   UNL     1      49.022   9.846  12.727  0.00  0.00    +0.000 C 
ATOM     19  N   UNL     1      48.357   8.580  12.376  0.00  0.00    +0.000 NA
ATOM     20  C   UNL     1      49.319   7.465  12.282  0.00  0.00    +0.000 C 
ATOM     21  C   UNL     1      50.475   7.757  11.329  0.00  0.00    +0.000 C 
BRANCH  16  22
ATOM     22  C   UNL     1      52.018   8.939  13.016  0.00  0.00    +0.000 C 
BRANCH  22  23
ATOM     23  N   UNL     1      52.980   7.844  12.974  0.00  0.00    +0.000 NA
ATOM     24  H   UNL     1      52.566   7.045  12.493  0.00  0.00    +0.000 HD
ATOM     25  H   UNL     1      53.180   7.527  13.922  0.00  0.00    +0.000 HD
ENDBRANCH  22  23
ENDBRANCH  16  22
ENDBRANCH  15  19
ENDBRANCH   1  15
TORSDOF 5
ENDMDL
MODEL 4
REMARK VINA RESULT:    -5.982      3.919      5.869
REMARK INTER + INTRA:          -7.527
REMARK INTER:                  -7.073
REMARK INTRA:                  -0.454
REMARK UNBOUND:                 0.028
REMARK  Name = 
REMARK  5 active torsions:
REMARK  status: ('A' for Active; 'I' for Inactive)
REMARK    1  A    between atoms: N_1  and  C_2
REMARK    2  A    between atoms: C_2  and  C_3
REMARK    3  A    between atoms: N_6  and  C_7
REMARK    4  A    between atoms: C_7  and  N_8
REMARK    5  A    between atoms: C_13  and  C_14
REMARK                            x       y       z     vdW  Elec       q    Type
REMARK                         _______ _______ _______ _____ _____    ______ ____
ROOT
ATOM      1  N   UNL     1      47.857   6.263  13.949  0.00  0.00    +0.000 N 
ATOM      2  C   UNL     1      48.021   7.433  13.259  0.00  0.00    +0.000 A 
ATOM      3  N   UNL     1      47.244   7.488  12.200  0.00  0.00    +0.000 NA
ATOM      4  C   UNL     1      46.550   6.303  12.201  0.00  0.00    +0.000 A 
ATOM      5  C   UNL     1      45.618   5.823  11.266  0.00  0.00    +0.000 A 
ATOM      6  C   UNL     1      45.052   4.554  11.464  0.00  0.00    +0.000 A 
ATOM      7  C   UNL     1      45.391   3.807  12.603  0.00  0.00    +0.000 A 
ATOM      8  C   UNL     1      46.311   4.275  13.549  0.00  0.00    +0.000 A 
ATOM      9  C   UNL     1      46.890   5.524  13.304  0.00  0.00    +0.000 A 
ENDROOT
BRANCH   6  10
ATOM     10  C   UNL     1      44.110   3.927  10.490  0.00  0.00    +0.000 C 
ATOM     11  N   UNL     1      44.046   4.426   9.219  0.00  0.00    +0.000 N 
ATOM     12  O   UNL     1      43.409   2.972  10.805  0.00  0.00    +0.000 OA
ATOM     13  H   UNL     1      44.590   5.196   8.866  0.00  0.00    +0.000 HD
ATOM     14  H   UNL     1      43.418   3.959   8.579  0.00  0.00    +0.000 HD
ENDBRANCH   6  10
BRANCH   1  15
ATOM     15  C   UNL     1      48.687   5.815  15.058  0.00  0.00    +0.000 C 
BRANCH  15  19
ATOM     16  C   UNL     1      47.920   5.681  19.299  0.00  0.00    +0.000 C 
ATOM     17  C   UNL     1      46.940   4.988  18.344  0.00  0.00    +0.000 C 
ATOM     18  C   UNL     1      47.529   4.785  16.944  0.00  0.00    +0.000 C 
ATOM     19  N   UNL     1      48.008   6.043  16.348  0.00  0.00    +0.000 NA
ATOM     20  C   UNL     1      48.951   6.746  17.239  0.00  0.00    +0.000 C 
ATOM     21  C   UNL     1      48.382   6.985  18.635  0.00  0.00    +0.000 C 
BRANCH  16  22
ATOM     22  C   UNL     1      49.081   4.739  19.678  0.00  0.00    +0.000 C 
BRANCH  22  23
ATOM     23  N   UNL     1      48.612   3.565  20.404  0.00  0.00    +0.000 NA
ATOM     24  H   UNL     1      49.388   2.917  20.541  0.00  0.00    +0.000 HD
ATOM     25  H   UNL     1      47.925   3.066  19.841  0.00  0.00    +0.000 HD
ENDBRANCH  22  23
ENDBRANCH  16  22
ENDBRANCH  15  19
ENDBRANCH   1  15
TORSDOF 5
ENDMDL
MODEL 5
REMARK VINA RESULT:    -5.878      2.952      4.832
REMARK INTER + INTRA:          -7.396
REMARK INTER:                  -7.112
REMARK INTRA:                  -0.284
REMARK UNBOUND:                 0.028
REMARK  Name = 
REMARK  5 active torsions:
REMARK  status: ('A' for Active; 'I' for Inactive)
REMARK    1  A    between atoms: N_1  and  C_2
REMARK    2  A    between atoms: C_2  and  C_3
REMARK    3  A    between atoms: N_6  and  C_7
REMARK    4  A    between atoms: C_7  and  N_8
REMARK    5  A    between atoms: C_13  and  C_14
REMARK                            x       y       z     vdW  Elec       q    Type
REMARK                         _______ _______ _______ _____ _____    ______ ____
ROOT
ATOM      1  N   UNL     1      47.201   6.273  13.661  0.00  0.00    +0.000 N 
ATOM      2  C   UNL     1      47.601   5.427  14.658  0.00  0.00    +0.000 A 
ATOM      3  N   UNL     1      47.118   4.216  14.494  0.00  0.00    +0.000 NA
ATOM      4  C   UNL     1      46.371   4.280  13.343  0.00  0.00    +0.000 A 
ATOM      5  C   UNL     1      45.597   3.278  12.733  0.00  0.00    +0.000 A 
ATOM      6  C   UNL     1      44.888   3.588  11.563  0.00  0.00    +0.000 A 
ATOM      7  C   UNL     1      44.992   4.870  11.001  0.00  0.00    +0.000 A 
ATOM      8  C   UNL     1      45.765   5.877  11.591  0.00  0.00    +0.000 A 
ATOM      9  C   UNL     1      46.427   5.551  12.779  0.00  0.00    +0.000 A 
ENDROOT
BRANCH   6  10
ATOM     10  C   UNL     1      43.983   2.614  10.884  0.00  0.00    +0.000 C 
ATOM     11  N   UNL     1      44.365   2.084   9.683  0.00  0.00    +0.000 N 
ATOM     12  O   UNL     1      42.918   2.275  11.387  0.00  0.00    +0.000 OA
ATOM     13  H   UNL     1      45.224   2.292   9.200  0.00  0.00    +0.000 HD
ATOM     14  H   UNL     1      43.741   1.407   9.266  0.00  0.00    +0.000 HD
ENDBRANCH   6  10
BRANCH   1  15
ATOM     15  C   UNL     1      47.414   7.714  13.642  0.00  0.00    +0.000 C 
BRANCH  15  19
ATOM     16  C   UNL     1      50.663   9.293  11.289  0.00  0.00    +0.000 C 
ATOM     17  C   UNL     1      49.300   9.994  11.239  0.00  0.00    +0.000 C 
ATOM     18  C   UNL     1      48.381   9.573  12.391  0.00  0.00    +0.000 C 
ATOM     19  N   UNL     1      48.194   8.113  12.455  0.00  0.00    +0.000 NA
ATOM     20  C   UNL     1      49.484   7.399  12.500  0.00  0.00    +0.000 C 
ATOM     21  C   UNL     1      50.413   7.781  11.350  0.00  0.00    +0.000 C 
BRANCH  16  22
ATOM     22  C   UNL     1      51.514   9.823  12.462  0.00  0.00    +0.000 C 
BRANCH  22  23
ATOM     23  N   UNL     1      52.857   9.257  12.457  0.00  0.00    +0.000 NA
ATOM     24  H   UNL     1      52.986   8.678  13.287  0.00  0.00    +0.000 HD
ATOM     25  H   UNL     1      53.544  10.005  12.528  0.00  0.00    +0.000 HD
ENDBRANCH  22  23
ENDBRANCH  16  22
ENDBRANCH  15  19
ENDBRANCH   1  15
TORSDOF 5
ENDMDL
MODEL 6
REMARK VINA RESULT:    -5.863      3.181      5.218
REMARK INTER + INTRA:          -7.378
REMARK INTER:                  -6.944
REMARK INTRA:                  -0.434
REMARK UNBOUND:                 0.028
REMARK  Name = 
REMARK  5 active torsions:
REMARK  status: ('A' for Active; 'I' for Inactive)
REMARK    1  A    between atoms: N_1  and  C_2
REMARK    2  A    between atoms: C_2  and  C_3
REMARK    3  A    between atoms: N_6  and  C_7
REMARK    4  A    between atoms: C_7  and  N_8
REMARK    5  A    between atoms: C_13  and  C_14
REMARK                            x       y       z     vdW  Elec       q    Type
REMARK                         _______ _______ _______ _____ _____    ______ ____
ROOT
ATOM      1  N   UNL     1      47.601   6.025  14.129  0.00  0.00    +0.000 N 
ATOM      2  C   UNL     1      47.533   5.000  15.033  0.00  0.00    +0.000 A 
ATOM      3  N   UNL     1      46.764   4.023  14.605  0.00  0.00    +0.000 NA
ATOM      4  C   UNL     1      46.312   4.434  13.376  0.00  0.00    +0.000 A 
ATOM      5  C   UNL     1      45.420   3.791  12.501  0.00  0.00    +0.000 A 
ATOM      6  C   UNL     1      45.077   4.424  11.296  0.00  0.00    +0.000 A 
ATOM      7  C   UNL     1      45.657   5.659  10.966  0.00  0.00    +0.000 A 
ATOM      8  C   UNL     1      46.554   6.309  11.822  0.00  0.00    +0.000 A 
ATOM      9  C   UNL     1      46.843   5.674  13.034  0.00  0.00    +0.000 A 
ENDROOT
BRANCH   6  10
ATOM     10  C   UNL     1      44.084   3.856  10.338  0.00  0.00    +0.000 C 
ATOM     11  N   UNL     1      43.948   4.435   9.107  0.00  0.00    +0.000 N 
ATOM     12  O   UNL     1      43.404   2.878  10.629  0.00  0.00    +0.000 OA
ATOM     13  H   UNL     1      44.469   5.230   8.775  0.00  0.00    +0.000 HD
ATOM     14  H   UNL     1      43.286   4.006   8.474  0.00  0.00    +0.000 HD
ENDBRANCH   6  10
BRANCH   1  15
ATOM     15  C   UNL     1      48.220   7.321  14.371  0.00  0.00    +0.000 C 
BRANCH  15  19
ATOM     16  C   UNL     1      52.017   8.912  13.089  0.00  0.00    +0.000 C 
ATOM     17  C   UNL     1      51.101   8.248  12.053  0.00  0.00    +0.000 C 
ATOM     18  C   UNL     1      49.662   8.088  12.558  0.00  0.00    +0.000 C 
ATOM     19  N   UNL     1      49.593   7.356  13.833  0.00  0.00    +0.000 NA
ATOM     20  C   UNL     1      50.466   7.960  14.859  0.00  0.00    +0.000 C 
ATOM     21  C   UNL     1      51.912   8.110  14.392  0.00  0.00    +0.000 C 
BRANCH  16  22
ATOM     22  C   UNL     1      51.669  10.406  13.256  0.00  0.00    +0.000 C 
BRANCH  22  23
ATOM     23  N   UNL     1      52.406  11.242  12.317  0.00  0.00    +0.000 NA
ATOM     24  H   UNL     1      53.340  11.425  12.684  0.00  0.00    +0.000 HD
ATOM     25  H   UNL     1      51.953  12.151  12.239  0.00  0.00    +0.000 HD
ENDBRANCH  22  23
ENDBRANCH  16  22
ENDBRANCH  15  19
ENDBRANCH   1  15
TORSDOF 5
ENDMDL
MODEL 7
REMARK VINA RESULT:    -5.618      5.929      8.706
REMARK INTER + INTRA:          -7.068
REMARK INTER:                  -6.648
REMARK INTRA:                  -0.420
REMARK UNBOUND:                 0.028
REMARK  Name = 
REMARK  5 active torsions:
REMARK  status: ('A' for Active; 'I' for Inactive)
REMARK    1  A    between atoms: N_1  and  C_2
REMARK    2  A    between atoms: C_2  and  C_3
REMARK    3  A    between atoms: N_6  and  C_7
REMARK    4  A    between atoms: C_7  and  N_8
REMARK    5  A    between atoms: C_13  and  C_14
REMARK                            x       y       z     vdW  Elec       q    Type
REMARK                         _______ _______ _______ _____ _____    ______ ____
ROOT
ATOM      1  N   UNL     1      48.388   3.732  16.413  0.00  0.00    +0.000 N 
ATOM      2  C   UNL     1      48.289   2.435  15.990  0.00  0.00    +0.000 A 
ATOM      3  N   UNL     1      49.325   1.719  16.366  0.00  0.00    +0.000 NA
ATOM      4  C   UNL     1      50.131   2.588  17.059  0.00  0.00    +0.000 A 
ATOM      5  C   UNL     1      51.389   2.357  17.640  0.00  0.00    +0.000 A 
ATOM      6  C   UNL     1      52.046   3.420  18.279  0.00  0.00    +0.000 A 
ATOM      7  C   UNL     1      51.424   4.676  18.365  0.00  0.00    +0.000 A 
ATOM      8  C   UNL     1      50.167   4.921  17.799  0.00  0.00    +0.000 A 
ATOM      9  C   UNL     1      49.556   3.854  17.132  0.00  0.00    +0.000 A 
ENDROOT
BRANCH   6  10
ATOM     10  C   UNL     1      53.414   3.292  18.862  0.00  0.00    +0.000 C 
ATOM     11  N   UNL     1      53.545   2.866  20.154  0.00  0.00    +0.000 N 
ATOM     12  O   UNL     1      54.415   3.548  18.201  0.00  0.00    +0.000 OA
ATOM     13  H   UNL     1      52.785   2.622  20.767  0.00  0.00    +0.000 HD
ATOM     14  H   UNL     1      54.488   2.765  20.505  0.00  0.00    +0.000 HD
ENDBRANCH   6  10
BRANCH   1  15
ATOM     15  C   UNL     1      47.502   4.818  16.015  0.00  0.00    +0.000 C 
BRANCH  15  19
ATOM     16  C   UNL     1      46.593   6.468  12.137  0.00  0.00    +0.000 C 
ATOM     17  C   UNL     1      46.078   5.066  12.488  0.00  0.00    +0.000 C 
ATOM     18  C   UNL     1      46.137   4.779  13.993  0.00  0.00    +0.000 C 
ATOM     19  N   UNL     1      47.487   4.973  14.548  0.00  0.00    +0.000 NA
ATOM     20  C   UNL     1      48.023   6.310  14.228  0.00  0.00    +0.000 C 
ATOM     21  C   UNL     1      47.999   6.616  12.732  0.00  0.00    +0.000 C 
BRANCH  16  22
ATOM     22  C   UNL     1      45.606   7.554  12.613  0.00  0.00    +0.000 C 
BRANCH  22  23
ATOM     23  N   UNL     1      44.256   7.314  12.119  0.00  0.00    +0.000 NA
ATOM     24  H   UNL     1      43.744   6.744  12.793  0.00  0.00    +0.000 HD
ATOM     25  H   UNL     1      44.298   6.766  11.262  0.00  0.00    +0.000 HD
ENDBRANCH  22  23
ENDBRANCH  16  22
ENDBRANCH  15  19
ENDBRANCH   1  15
TORSDOF 5
ENDMDL
MODEL 8
REMARK VINA RESULT:    -5.572      3.480      5.826
REMARK INTER + INTRA:          -7.010
REMARK INTER:                  -6.603
REMARK INTRA:                  -0.407
REMARK UNBOUND:                 0.028
REMARK  Name = 
REMARK  5 active torsions:
REMARK  status: ('A' for Active; 'I' for Inactive)
REMARK    1  A    between atoms: N_1  and  C_2
REMARK    2  A    between atoms: C_2  and  C_3
REMARK    3  A    between atoms: N_6  and  C_7
REMARK    4  A    between atoms: C_7  and  N_8
REMARK    5  A    between atoms: C_13  and  C_14
REMARK                            x       y       z     vdW  Elec       q    Type
REMARK                         _______ _______ _______ _____ _____    ______ ____
ROOT
ATOM      1  N   UNL     1      48.022   7.057  13.056  0.00  0.00    +0.000 N 
ATOM      2  C   UNL     1      48.368   6.506  14.259  0.00  0.00    +0.000 A 
ATOM      3  N   UNL     1      47.654   5.435  14.528  0.00  0.00    +0.000 NA
ATOM      4  C   UNL     1      46.808   5.289  13.457  0.00  0.00    +0.000 A 
ATOM      5  C   UNL     1      45.799   4.332  13.250  0.00  0.00    +0.000 A 
ATOM      6  C   UNL     1      45.033   4.399  12.076  0.00  0.00    +0.000 A 
ATOM      7  C   UNL     1      45.309   5.385  11.115  0.00  0.00    +0.000 A 
ATOM      8  C   UNL     1      46.316   6.340  11.302  0.00  0.00    +0.000 A 
ATOM      9  C   UNL     1      47.034   6.274  12.500  0.00  0.00    +0.000 A 
ENDROOT
BRANCH   6  10
ATOM     10  C   UNL     1      43.893   3.475  11.800  0.00  0.00    +0.000 C 
ATOM     11  N   UNL     1      43.807   2.305  12.503  0.00  0.00    +0.000 N 
ATOM     12  O   UNL     1      43.034   3.751  10.970  0.00  0.00    +0.000 OA
ATOM     13  H   UNL     1      44.456   2.000  13.209  0.00  0.00    +0.000 HD
ATOM     14  H   UNL     1      43.007   1.718  12.309  0.00  0.00    +0.000 HD
ENDBRANCH   6  10
BRANCH   1  15
ATOM     15  C   UNL     1      48.493   8.339  12.549  0.00  0.00    +0.000 C 
BRANCH  15  19
ATOM     16  C   UNL     1      52.453   9.356  11.179  0.00  0.00    +0.000 C 
ATOM     17  C   UNL     1      51.982   7.900  11.076  0.00  0.00    +0.000 C 
ATOM     18  C   UNL     1      50.463   7.762  11.228  0.00  0.00    +0.000 C 
ATOM     19  N   UNL     1      49.967   8.365  12.477  0.00  0.00    +0.000 NA
ATOM     20  C   UNL     1      50.403   9.767  12.618  0.00  0.00    +0.000 C 
ATOM     21  C   UNL     1      51.916   9.933  12.495  0.00  0.00    +0.000 C 
BRANCH  16  22
ATOM     22  C   UNL     1      52.027  10.163   9.935  0.00  0.00    +0.000 C 
BRANCH  22  23
ATOM     23  N   UNL     1      53.007  10.059   8.860  0.00  0.00    +0.000 NA
ATOM     24  H   UNL     1      53.833  10.609   9.098  0.00  0.00    +0.000 HD
ATOM     25  H   UNL     1      52.628  10.474   8.010  0.00  0.00    +0.000 HD
ENDBRANCH  22  23
ENDBRANCH  16  22
ENDBRANCH  15  19
ENDBRANCH   1  15
TORSDOF 5
ENDMDL
MODEL 9
REMARK VINA RESULT:    -5.281      4.121      7.663
REMARK INTER + INTRA:          -6.643
REMARK INTER:                  -6.338
REMARK INTRA:                  -0.305
REMARK UNBOUND:                 0.028
REMARK  Name = 
REMARK  5 active torsions:
REMARK  status: ('A' for Active; 'I' for Inactive)
REMARK    1  A    between atoms: N_1  and  C_2
REMARK    2  A    between atoms: C_2  and  C_3
REMARK    3  A    between atoms: N_6  and  C_7
REMARK    4  A    between atoms: C_7  and  N_8
REMARK    5  A    between atoms: C_13  and  C_14
REMARK                            x       y       z     vdW  Elec       q    Type
REMARK                         _______ _______ _______ _____ _____    ______ ____
ROOT
ATOM      1  N   UNL     1      47.236   4.540  14.820  0.00  0.00    +0.000 N 
ATOM      2  C   UNL     1      47.105   3.990  16.066  0.00  0.00    +0.000 A 
ATOM      3  N   UNL     1      47.720   4.704  16.982  0.00  0.00    +0.000 NA
ATOM      4  C   UNL     1      48.276   5.759  16.301  0.00  0.00    +0.000 A 
ATOM      5  C   UNL     1      49.083   6.801  16.789  0.00  0.00    +0.000 A 
ATOM      6  C   UNL     1      49.566   7.763  15.889  0.00  0.00    +0.000 A 
ATOM      7  C   UNL     1      49.206   7.696  14.534  0.00  0.00    +0.000 A 
ATOM      8  C   UNL     1      48.396   6.669  14.033  0.00  0.00    +0.000 A 
ATOM      9  C   UNL     1      47.965   5.702  14.946  0.00  0.00    +0.000 A 
ENDROOT
BRANCH   6  10
ATOM     10  C   UNL     1      50.487   8.864  16.299  0.00  0.00    +0.000 C 
ATOM     11  N   UNL     1      50.316   9.447  17.523  0.00  0.00    +0.000 N 
ATOM     12  O   UNL     1      51.395   9.241  15.566  0.00  0.00    +0.000 OA
ATOM     13  H   UNL     1      49.609   9.197  18.195  0.00  0.00    +0.000 HD
ATOM     14  H   UNL     1      50.976  10.170  17.778  0.00  0.00    +0.000 HD
ENDBRANCH   6  10
BRANCH   1  15
ATOM     15  C   UNL     1      46.827   3.908  13.573  0.00  0.00    +0.000 C 
BRANCH  15  19
ATOM     16  C   UNL     1      43.728   4.935  10.757  0.00  0.00    +0.000 C 
ATOM     17  C   UNL     1      44.776   5.992  11.128  0.00  0.00    +0.000 C 
ATOM     18  C   UNL     1      46.005   5.385  11.812  0.00  0.00    +0.000 C 
ATOM     19  N   UNL     1      45.651   4.590  13.000  0.00  0.00    +0.000 NA
ATOM     20  C   UNL     1      44.639   3.562  12.689  0.00  0.00    +0.000 C 
ATOM     21  C   UNL     1      43.390   4.141  12.027  0.00  0.00    +0.000 C 
BRANCH  16  22
ATOM     22  C   UNL     1      44.221   4.052   9.593  0.00  0.00    +0.000 C 
BRANCH  22  23
ATOM     23  N   UNL     1      45.005   4.815   8.629  0.00  0.00    +0.000 NA
ATOM     24  H   UNL     1      45.989   4.796   8.900  0.00  0.00    +0.000 HD
ATOM     25  H   UNL     1      44.725   5.794   8.658  0.00  0.00    +0.000 HD
ENDBRANCH  22  23
ENDBRANCH  16  22
ENDBRANCH  15  19
ENDBRANCH   1  15
TORSDOF 5
ENDMDL
