MODEL 1
REMARK VINA RESULT:    -9.152      0.000      0.000
REMARK INTER + INTRA:         -12.592
REMARK INTER:                 -12.362
REMARK INTRA:                  -0.229
REMARK UNBOUND:                -0.229
REMARK  Name = 
REMARK  6 active torsions:
REMARK  status: ('A' for Active; 'I' for Inactive)
REMARK    1  A    between atoms: C_2  and  C_3
REMARK    2  A    between atoms: C_6  and  N_7
REMARK    3  A    between atoms: N_7  and  C_8
REMARK    4  A    between atoms: C_8  and  C_9
REMARK    5  A    between atoms: C_13  and  N_14
REMARK    6  A    between atoms: C_17  and  C_18
REMARK                            x       y       z     vdW  Elec       q    Type
REMARK                         _______ _______ _______ _____ _____    ______ ____
ROOT
ATOM      1  C   UNL     1      45.175   5.583  11.879  0.00  0.00    +0.000 A 
ATOM      2  C   UNL     1      45.665   6.736  11.250  0.00  0.00    +0.000 A 
ATOM      3  C   UNL     1      46.733   7.445  11.786  0.00  0.00    +0.000 A 
ATOM      4  C   UNL     1      47.339   6.998  12.960  0.00  0.00    +0.000 A 
ATOM      5  C   UNL     1      46.930   5.819  13.598  0.00  0.00    +0.000 A 
ATOM      6  C   UNL     1      45.855   5.125  13.026  0.00  0.00    +0.000 A 
ENDROOT
BRANCH   5   7
ATOM      7  N   UNL     1      47.572   5.371  14.738  0.00  0.00    +0.000 N 
ATOM      8  C   UNL     1      47.397   3.994  15.194  0.00  0.00    +0.000 C 
ATOM      9  C   UNL     1      47.084   4.038  16.688  0.00  0.00    +0.000 C 
ATOM     10  C   UNL     1      48.196   4.765  17.461  0.00  0.00    +0.000 C 
ATOM     11  C   UNL     1      48.471   6.150  16.851  0.00  0.00    +0.000 C 
ATOM     12  C   UNL     1      48.692   6.096  15.335  0.00  0.00    +0.000 C 
BRANCH  10  13
ATOM     13  C   UNL     1      49.465   3.927  17.526  0.00  0.00    +0.000 C 
ATOM     14  N   UNL     1      49.345   2.740  18.187  0.00  0.00    +0.000 N 
ATOM     15  O   UNL     1      50.545   4.260  17.050  0.00  0.00    +0.000 OA
ATOM     16  H   UNL     1      48.530   2.493  18.732  0.00  0.00    +0.000 HD
ATOM     17  H   UNL     1      50.183   2.183  18.295  0.00  0.00    +0.000 HD
ENDBRANCH  10  13
ENDBRANCH   5   7
BRANCH   1  18
ATOM     18  C   UNL     1      43.896   4.917  11.390  0.00  0.00    +0.000 C 
ATOM     19  C   UNL     1      43.285   3.774  12.200  0.00  0.00    +0.000 C 
ATOM     20  C   UNL     1      42.686   5.138  12.281  0.00  0.00    +0.000 C 
BRANCH  18  21
ATOM     21  N   UNL     1      43.825   4.696   9.941  0.00  0.00    +0.000 N 
ATOM     22  H   UNL     1      42.912   4.416   9.591  0.00  0.00    +0.000 HD
BRANCH  21  26
ATOM     23  C   UNL     1      46.654   2.720   7.584  0.00  0.00    +0.000 A 
ATOM     24  C   UNL     1      46.562   4.106   7.619  0.00  0.00    +0.000 A 
ATOM     25  N   UNL     1      45.675   4.795   8.388  0.00  0.00    +0.000 NA
ATOM     26  C   UNL     1      44.844   4.082   9.181  0.00  0.00    +0.000 A 
ATOM     27  C   UNL     1      44.893   2.679   9.194  0.00  0.00    +0.000 A 
ATOM     28  F   UNL     1      44.056   1.980   9.975  0.00  0.00    +0.000 F 
ATOM     29  C   UNL     1      45.793   1.990   8.392  0.00  0.00    +0.000 A 
BRANCH  23  31
ATOM     30  N   UNL     1      48.353   1.537   6.031  0.00  0.00    +0.000 NA
ATOM     31  C   UNL     1      47.588   2.067   6.722  0.00  0.00    +0.000 C 
ENDBRANCH  23  31
ENDBRANCH  21  26
ENDBRANCH  18  21
ENDBRANCH   1  18
TORSDOF 6
ENDMDL
MODEL 2
REMARK VINA RESULT:    -8.659      2.503      3.619
REMARK INTER + INTRA:         -11.925
REMARK INTER:                 -10.839
REMARK INTRA:                  -1.086
REMARK UNBOUND:                -0.229
REMARK  Name = 
REMARK  6 active torsions:
REMARK  status: ('A' for Active; 'I' for Inactive)
REMARK    1  A    between atoms: C_2  and  C_3
REMARK    2  A    between atoms: C_6  and  N_7
REMARK    3  A    between atoms: N_7  and  C_8
REMARK    4  A    between atoms: C_8  and  C_9
REMARK    5  A    between atoms: C_13  and  N_14
REMARK    6  A    between atoms: C_17  and  C_18
REMARK                            x       y       z     vdW  Elec       q    Type
REMARK                         _______ _______ _______ _____ _____    ______ ____
ROOT
ATOM      1  C   UNL     1      44.873   4.988  11.956  0.00  0.00    +0.000 A 
ATOM      2  C   UNL     1      45.125   3.746  12.556  0.00  0.00    +0.000 A 
ATOM      3  C   UNL     1      46.314   3.506  13.233  0.00  0.00    +0.000 A 
ATOM      4  C   UNL     1      47.269   4.518  13.332  0.00  0.00    +0.000 A 
ATOM      5  C   UNL     1      47.045   5.797  12.804  0.00  0.00    +0.000 A 
ATOM      6  C   UNL     1      45.832   6.006  12.135  0.00  0.00    +0.000 A 
ENDROOT
BRANCH   5   7
ATOM      7  N   UNL     1      47.988   6.798  12.950  0.00  0.00    +0.000 N 
ATOM      8  C   UNL     1      48.397   7.603  11.802  0.00  0.00    +0.000 C 
ATOM      9  C   UNL     1      49.923   7.648  11.789  0.00  0.00    +0.000 C 
ATOM     10  C   UNL     1      50.467   8.211  13.112  0.00  0.00    +0.000 C 
ATOM     11  C   UNL     1      49.886   7.446  14.312  0.00  0.00    +0.000 C 
ATOM     12  C   UNL     1      48.358   7.332  14.259  0.00  0.00    +0.000 C 
BRANCH  10  13
ATOM     13  C   UNL     1      50.203   9.707  13.228  0.00  0.00    +0.000 C 
ATOM     14  N   UNL     1      50.621  10.455  12.167  0.00  0.00    +0.000 N 
ATOM     15  O   UNL     1      49.674  10.247  14.193  0.00  0.00    +0.000 OA
ATOM     16  H   UNL     1      51.202  10.085  11.427  0.00  0.00    +0.000 HD
ATOM     17  H   UNL     1      50.509  11.458  12.235  0.00  0.00    +0.000 HD
ENDBRANCH  10  13
ENDBRANCH   5   7
BRANCH   1  18
ATOM     18  C   UNL     1      43.655   5.186  11.065  0.00  0.00    +0.000 C 
ATOM     19  C   UNL     1      42.311   5.549  11.697  0.00  0.00    +0.000 C 
ATOM     20  C   UNL     1      43.121   6.607  11.027  0.00  0.00    +0.000 C 
BRANCH  18  21
ATOM     21  N   UNL     1      43.530   4.227   9.962  0.00  0.00    +0.000 N 
ATOM     22  H   UNL     1      42.853   3.482  10.111  0.00  0.00    +0.000 HD
BRANCH  21  26
ATOM     23  C   UNL     1      46.585   2.620   7.606  0.00  0.00    +0.000 A 
ATOM     24  C   UNL     1      46.315   3.983   7.635  0.00  0.00    +0.000 A 
ATOM     25  N   UNL     1      45.347   4.556   8.402  0.00  0.00    +0.000 NA
ATOM     26  C   UNL     1      44.617   3.745   9.201  0.00  0.00    +0.000 A 
ATOM     27  C   UNL     1      44.848   2.360   9.222  0.00  0.00    +0.000 A 
ATOM     28  F   UNL     1      44.110   1.563  10.009  0.00  0.00    +0.000 F 
ATOM     29  C   UNL     1      45.828   1.789   8.421  0.00  0.00    +0.000 A 
BRANCH  23  31
ATOM     30  N   UNL     1      48.416   1.651   6.054  0.00  0.00    +0.000 NA
ATOM     31  C   UNL     1      47.594   2.089   6.745  0.00  0.00    +0.000 C 
ENDBRANCH  23  31
ENDBRANCH  21  26
ENDBRANCH  18  21
ENDBRANCH   1  18
TORSDOF 6
ENDMDL
MODEL 3
REMARK VINA RESULT:    -7.952      2.095      2.497
REMARK INTER + INTRA:         -10.971
REMARK INTER:                 -10.730
REMARK INTRA:                  -0.241
REMARK UNBOUND:                -0.229
REMARK  Name = 
REMARK  6 active torsions:
REMARK  status: ('A' for Active; 'I' for Inactive)
REMARK    1  A    between atoms: C_2  and  C_3
REMARK    2  A    between atoms: C_6  and  N_7
REMARK    3  A    between atoms: N_7  and  C_8
REMARK    4  A    between atoms: C_8  and  C_9
REMARK    5  A    between atoms: C_13  and  N_14
REMARK    6  A    between atoms: C_17  and  C_18
REMARK                            x       y       z     vdW  Elec       q    Type
REMARK                         _______ _______ _______ _____ _____    ______ ____
ROOT
ATOM      1  C   UNL     1      44.688   6.386  11.653  0.00  0.00    +0.000 A 
ATOM      2  C   UNL     1      44.130   7.553  11.113  0.00  0.00    +0.000 A 
ATOM      3  C   UNL     1      44.652   8.804  11.420  0.00  0.00    +0.000 A 
ATOM      4  C   UNL     1      45.758   8.902  12.264  0.00  0.00    +0.000 A 
ATOM      5  C   UNL     1      46.393   7.766  12.784  0.00  0.00    +0.000 A 
ATOM      6  C   UNL     1      45.844   6.521  12.448  0.00  0.00    +0.000 A 
ENDROOT
BRANCH   5   7
ATOM      7  N   UNL     1      47.513   7.885  13.585  0.00  0.00    +0.000 N 
ATOM      8  C   UNL     1      48.413   6.749  13.773  0.00  0.00    +0.000 C 
ATOM      9  C   UNL     1      48.678   6.612  15.271  0.00  0.00    +0.000 C 
ATOM     10  C   UNL     1      49.262   7.913  15.846  0.00  0.00    +0.000 C 
ATOM     11  C   UNL     1      48.375   9.117  15.487  0.00  0.00    +0.000 C 
ATOM     12  C   UNL     1      48.044   9.184  13.992  0.00  0.00    +0.000 C 
BRANCH  10  13
ATOM     13  C   UNL     1      50.698   8.127  15.385  0.00  0.00    +0.000 C 
ATOM     14  N   UNL     1      51.497   7.022  15.439  0.00  0.00    +0.000 N 
ATOM     15  O   UNL     1      51.155   9.199  15.004  0.00  0.00    +0.000 OA
ATOM     16  H   UNL     1      51.218   6.163  15.893  0.00  0.00    +0.000 HD
ATOM     17  H   UNL     1      52.470   7.142  15.191  0.00  0.00    +0.000 HD
ENDBRANCH  10  13
ENDBRANCH   5   7
BRANCH   1  18
ATOM     18  C   UNL     1      44.003   5.039  11.461  0.00  0.00    +0.000 C 
ATOM     19  C   UNL     1      44.361   3.874  12.383  0.00  0.00    +0.000 C 
ATOM     20  C   UNL     1      43.091   4.625  12.602  0.00  0.00    +0.000 C 
BRANCH  18  21
ATOM     21  N   UNL     1      43.817   4.630  10.064  0.00  0.00    +0.000 N 
ATOM     22  H   UNL     1      42.918   4.203   9.855  0.00  0.00    +0.000 HD
BRANCH  21  26
ATOM     23  C   UNL     1      46.613   2.753   7.591  0.00  0.00    +0.000 A 
ATOM     24  C   UNL     1      46.530   4.136   7.692  0.00  0.00    +0.000 A 
ATOM     25  N   UNL     1      45.653   4.793   8.500  0.00  0.00    +0.000 NA
ATOM     26  C   UNL     1      44.825   4.047   9.266  0.00  0.00    +0.000 A 
ATOM     27  C   UNL     1      44.866   2.645   9.213  0.00  0.00    +0.000 A 
ATOM     28  F   UNL     1      44.032   1.914   9.968  0.00  0.00    +0.000 F 
ATOM     29  C   UNL     1      45.755   1.990   8.371  0.00  0.00    +0.000 A 
BRANCH  23  31
ATOM     30  N   UNL     1      48.292   1.644   5.962  0.00  0.00    +0.000 NA
ATOM     31  C   UNL     1      47.536   2.136   6.690  0.00  0.00    +0.000 C 
ENDBRANCH  23  31
ENDBRANCH  21  26
ENDBRANCH  18  21
ENDBRANCH   1  18
TORSDOF 6
ENDMDL
MODEL 4
REMARK VINA RESULT:    -7.948      2.534      2.918
REMARK INTER + INTRA:         -10.965
REMARK INTER:                 -10.808
REMARK INTRA:                  -0.156
REMARK UNBOUND:                -0.229
REMARK  Name = 
REMARK  6 active torsions:
REMARK  status: ('A' for Active; 'I' for Inactive)
REMARK    1  A    between atoms: C_2  and  C_3
REMARK    2  A    between atoms: C_6  and  N_7
REMARK    3  A    between atoms: N_7  and  C_8
REMARK    4  A    between atoms: C_8  and  C_9
REMARK    5  A    between atoms: C_13  and  N_14
REMARK    6  A    between atoms: C_17  and  C_18
REMARK                            x       y       z     vdW  Elec       q    Type
REMARK                         _______ _______ _______ _____ _____    ______ ____
ROOT
ATOM      1  C   UNL     1      44.696   6.368  11.527  0.00  0.00    +0.000 A 
ATOM      2  C   UNL     1      44.061   7.567  11.170  0.00  0.00    +0.000 A 
ATOM      3  C   UNL     1      44.647   8.796  11.444  0.00  0.00    +0.000 A 
ATOM      4  C   UNL     1      45.892   8.843  12.072  0.00  0.00    +0.000 A 
ATOM      5  C   UNL     1      46.599   7.677  12.397  0.00  0.00    +0.000 A 
ATOM      6  C   UNL     1      45.981   6.455  12.099  0.00  0.00    +0.000 A 
ENDROOT
BRANCH   5   7
ATOM      7  N   UNL     1      47.850   7.748  12.981  0.00  0.00    +0.000 N 
ATOM      8  C   UNL     1      48.009   8.292  14.327  0.00  0.00    +0.000 C 
ATOM      9  C   UNL     1      49.156   9.300  14.285  0.00  0.00    +0.000 C 
ATOM     10  C   UNL     1      50.447   8.642  13.773  0.00  0.00    +0.000 C 
ATOM     11  C   UNL     1      50.204   7.933  12.429  0.00  0.00    +0.000 C 
ATOM     12  C   UNL     1      48.992   6.995  12.466  0.00  0.00    +0.000 C 
BRANCH  10  13
ATOM     13  C   UNL     1      51.030   7.686  14.805  0.00  0.00    +0.000 C 
ATOM     14  N   UNL     1      52.371   7.463  14.700  0.00  0.00    +0.000 N 
ATOM     15  O   UNL     1      50.378   7.119  15.676  0.00  0.00    +0.000 OA
ATOM     16  H   UNL     1      52.920   7.775  13.911  0.00  0.00    +0.000 HD
ATOM     17  H   UNL     1      52.781   6.793  15.337  0.00  0.00    +0.000 HD
ENDBRANCH  10  13
ENDBRANCH   5   7
BRANCH   1  18
ATOM     18  C   UNL     1      43.971   5.037  11.390  0.00  0.00    +0.000 C 
ATOM     19  C   UNL     1      44.282   3.905  12.369  0.00  0.00    +0.000 C 
ATOM     20  C   UNL     1      43.034   4.704  12.537  0.00  0.00    +0.000 C 
BRANCH  18  21
ATOM     21  N   UNL     1      43.787   4.569  10.011  0.00  0.00    +0.000 N 
ATOM     22  H   UNL     1      42.901   4.102   9.828  0.00  0.00    +0.000 HD
BRANCH  21  26
ATOM     23  C   UNL     1      46.624   2.709   7.571  0.00  0.00    +0.000 A 
ATOM     24  C   UNL     1      46.521   4.092   7.661  0.00  0.00    +0.000 A 
ATOM     25  N   UNL     1      45.631   4.743   8.458  0.00  0.00    +0.000 NA
ATOM     26  C   UNL     1      44.807   3.993   9.224  0.00  0.00    +0.000 A 
ATOM     27  C   UNL     1      44.868   2.591   9.183  0.00  0.00    +0.000 A 
ATOM     28  F   UNL     1      44.039   1.855   9.939  0.00  0.00    +0.000 F 
ATOM     29  C   UNL     1      45.771   1.941   8.353  0.00  0.00    +0.000 A 
BRANCH  23  31
ATOM     30  N   UNL     1      48.329   1.601   5.969  0.00  0.00    +0.000 NA
ATOM     31  C   UNL     1      47.561   2.097   6.682  0.00  0.00    +0.000 C 
ENDBRANCH  23  31
ENDBRANCH  21  26
ENDBRANCH  18  21
ENDBRANCH   1  18
TORSDOF 6
ENDMDL
MODEL 5
REMARK VINA RESULT:    -7.409      3.876      8.136
REMARK INTER + INTRA:         -10.237
REMARK INTER:                  -9.099
REMARK INTRA:                  -1.138
REMARK UNBOUND:                -0.229
REMARK  Name = 
REMARK  6 active torsions:
REMARK  status: ('A' for Active; 'I' for Inactive)
REMARK    1  A    between atoms: C_2  and  C_3
REMARK    2  A    between atoms: C_6  and  N_7
REMARK    3  A    between atoms: N_7  and  C_8
REMARK    4  A    between atoms: C_8  and  C_9
REMARK    5  A    between atoms: C_13  and  N_14
REMARK    6  A    between atoms: C_17  and  C_18
REMARK                            x       y       z     vdW  Elec       q    Type
REMARK                         _______ _______ _______ _____ _____    ______ ____
ROOT
ATOM      1  C   UNL     1      48.319   8.213  12.351  0.00  0.00    +0.000 A 
ATOM      2  C   UNL     1      47.703   9.472  12.376  0.00  0.00    +0.000 A 
ATOM      3  C   UNL     1      46.326   9.598  12.240  0.00  0.00    +0.000 A 
ATOM      4  C   UNL     1      45.539   8.456  12.092  0.00  0.00    +0.000 A 
ATOM      5  C   UNL     1      46.095   7.169  12.121  0.00  0.00    +0.000 A 
ATOM      6  C   UNL     1      47.485   7.079  12.266  0.00  0.00    +0.000 A 
ENDROOT
BRANCH   5   7
ATOM      7  N   UNL     1      45.291   6.049  12.014  0.00  0.00    +0.000 N 
ATOM      8  C   UNL     1      45.337   5.217  10.815  0.00  0.00    +0.000 C 
ATOM      9  C   UNL     1      43.897   4.970  10.368  0.00  0.00    +0.000 C 
ATOM     10  C   UNL     1      43.079   4.316  11.493  0.00  0.00    +0.000 C 
ATOM     11  C   UNL     1      43.186   5.131  12.793  0.00  0.00    +0.000 C 
ATOM     12  C   UNL     1      44.637   5.448  13.174  0.00  0.00    +0.000 C 
BRANCH  10  13
ATOM     13  C   UNL     1      43.495   2.867  11.712  0.00  0.00    +0.000 C 
ATOM     14  N   UNL     1      43.994   2.233  10.613  0.00  0.00    +0.000 N 
ATOM     15  O   UNL     1      43.390   2.266  12.776  0.00  0.00    +0.000 OA
ATOM     16  H   UNL     1      43.951   2.627   9.683  0.00  0.00    +0.000 HD
ATOM     17  H   UNL     1      44.229   1.254  10.710  0.00  0.00    +0.000 HD
ENDBRANCH  10  13
ENDBRANCH   5   7
BRANCH   1  18
ATOM     18  C   UNL     1      49.836   8.093  12.316  0.00  0.00    +0.000 C 
ATOM     19  C   UNL     1      50.536   7.770  10.996  0.00  0.00    +0.000 C 
ATOM     20  C   UNL     1      50.539   9.171  11.509  0.00  0.00    +0.000 C 
BRANCH  18  21
ATOM     21  N   UNL     1      50.432   7.402  13.465  0.00  0.00    +0.000 N 
ATOM     22  H   UNL     1      50.814   6.480  13.265  0.00  0.00    +0.000 HD
BRANCH  21  26
ATOM     23  C   UNL     1      48.712   7.694  17.262  0.00  0.00    +0.000 A 
ATOM     24  C   UNL     1      48.719   6.503  16.546  0.00  0.00    +0.000 A 
ATOM     25  N   UNL     1      49.286   6.353  15.318  0.00  0.00    +0.000 NA
ATOM     26  C   UNL     1      49.898   7.428  14.772  0.00  0.00    +0.000 A 
ATOM     27  C   UNL     1      49.930   8.657  15.451  0.00  0.00    +0.000 A 
ATOM     28  F   UNL     1      50.529   9.721  14.895  0.00  0.00    +0.000 F 
ATOM     29  C   UNL     1      49.333   8.799  16.696  0.00  0.00    +0.000 A 
BRANCH  23  31
ATOM     30  N   UNL     1      47.542   7.848  19.567  0.00  0.00    +0.000 NA
ATOM     31  C   UNL     1      48.062   7.784  18.533  0.00  0.00    +0.000 C 
ENDBRANCH  23  31
ENDBRANCH  21  26
ENDBRANCH  18  21
ENDBRANCH   1  18
TORSDOF 6
ENDMDL
MODEL 6
REMARK VINA RESULT:    -7.157      2.911      7.927
REMARK INTER + INTRA:          -9.897
REMARK INTER:                  -9.133
REMARK INTRA:                  -0.764
REMARK UNBOUND:                -0.229
REMARK  Name = 
REMARK  6 active torsions:
REMARK  status: ('A' for Active; 'I' for Inactive)
REMARK    1  A    between atoms: C_2  and  C_3
REMARK    2  A    between atoms: C_6  and  N_7
REMARK    3  A    between atoms: N_7  and  C_8
REMARK    4  A    between atoms: C_8  and  C_9
REMARK    5  A    between atoms: C_13  and  N_14
REMARK    6  A    between atoms: C_17  and  C_18
REMARK                            x       y       z     vdW  Elec       q    Type
REMARK                         _______ _______ _______ _____ _____    ______ ____
ROOT
ATOM      1  C   UNL     1      45.384   6.564  11.728  0.00  0.00    +0.000 A 
ATOM      2  C   UNL     1      44.002   6.473  11.950  0.00  0.00    +0.000 A 
ATOM      3  C   UNL     1      43.213   5.606  11.204  0.00  0.00    +0.000 A 
ATOM      4  C   UNL     1      43.802   4.802  10.230  0.00  0.00    +0.000 A 
ATOM      5  C   UNL     1      45.186   4.807  10.006  0.00  0.00    +0.000 A 
ATOM      6  C   UNL     1      45.952   5.688  10.781  0.00  0.00    +0.000 A 
ENDROOT
BRANCH   5   7
ATOM      7  N   UNL     1      45.754   3.970   9.064  0.00  0.00    +0.000 N 
ATOM      8  C   UNL     1      46.747   4.482   8.122  0.00  0.00    +0.000 C 
ATOM      9  C   UNL     1      46.345   4.012   6.726  0.00  0.00    +0.000 C 
ATOM     10  C   UNL     1      46.236   2.480   6.673  0.00  0.00    +0.000 C 
ATOM     11  C   UNL     1      45.311   1.958   7.785  0.00  0.00    +0.000 C 
ATOM     12  C   UNL     1      45.675   2.515   9.167  0.00  0.00    +0.000 C 
BRANCH  10  13
ATOM     13  C   UNL     1      47.609   1.823   6.741  0.00  0.00    +0.000 C 
ATOM     14  N   UNL     1      48.618   2.524   6.149  0.00  0.00    +0.000 N 
ATOM     15  O   UNL     1      47.836   0.737   7.261  0.00  0.00    +0.000 OA
ATOM     16  H   UNL     1      48.458   3.337   5.571  0.00  0.00    +0.000 HD
ATOM     17  H   UNL     1      49.532   2.092   6.129  0.00  0.00    +0.000 HD
ENDBRANCH  10  13
ENDBRANCH   5   7
BRANCH   1  18
ATOM     18  C   UNL     1      46.210   7.640  12.418  0.00  0.00    +0.000 C 
ATOM     19  C   UNL     1      46.236   9.055  11.839  0.00  0.00    +0.000 C 
ATOM     20  C   UNL     1      45.397   8.763  13.037  0.00  0.00    +0.000 C 
BRANCH  18  21
ATOM     21  N   UNL     1      47.519   7.198  12.912  0.00  0.00    +0.000 N 
ATOM     22  H   UNL     1      48.211   7.007  12.192  0.00  0.00    +0.000 HD
BRANCH  21  26
ATOM     23  C   UNL     1      48.006   4.793  16.295  0.00  0.00    +0.000 A 
ATOM     24  C   UNL     1      47.178   4.425  15.241  0.00  0.00    +0.000 A 
ATOM     25  N   UNL     1      47.005   5.162  14.110  0.00  0.00    +0.000 NA
ATOM     26  C   UNL     1      47.701   6.316  14.000  0.00  0.00    +0.000 A 
ATOM     27  C   UNL     1      48.559   6.738  15.028  0.00  0.00    +0.000 A 
ATOM     28  F   UNL     1      49.236   7.891  14.914  0.00  0.00    +0.000 F 
ATOM     29  C   UNL     1      48.712   5.983  16.183  0.00  0.00    +0.000 A 
BRANCH  23  31
ATOM     30  N   UNL     1      48.188   3.334  18.425  0.00  0.00    +0.000 NA
ATOM     31  C   UNL     1      48.108   3.982  17.468  0.00  0.00    +0.000 C 
ENDBRANCH  23  31
ENDBRANCH  21  26
ENDBRANCH  18  21
ENDBRANCH   1  18
TORSDOF 6
ENDMDL
MODEL 7
REMARK VINA RESULT:    -6.818      4.059      8.526
REMARK INTER + INTRA:          -9.439
REMARK INTER:                  -8.787
REMARK INTRA:                  -0.652
REMARK UNBOUND:                -0.229
REMARK  Name = 
REMARK  6 active torsions:
REMARK  status: ('A' for Active; 'I' for Inactive)
REMARK    1  A    between atoms: C_2  and  C_3
REMARK    2  A    between atoms: C_6  and  N_7
REMARK    3  A    between atoms: N_7  and  C_8
REMARK    4  A    between atoms: C_8  and  C_9
REMARK    5  A    between atoms: C_13  and  N_14
REMARK    6  A    between atoms: C_17  and  C_18
REMARK                            x       y       z     vdW  Elec       q    Type
REMARK                         _______ _______ _______ _____ _____    ______ ____
ROOT
ATOM      1  C   UNL     1      48.961   6.590  15.417  0.00  0.00    +0.000 A 
ATOM      2  C   UNL     1      49.897   7.357  14.709  0.00  0.00    +0.000 A 
ATOM      3  C   UNL     1      49.756   7.577  13.345  0.00  0.00    +0.000 A 
ATOM      4  C   UNL     1      48.661   7.042  12.667  0.00  0.00    +0.000 A 
ATOM      5  C   UNL     1      47.663   6.318  13.335  0.00  0.00    +0.000 A 
ATOM      6  C   UNL     1      47.834   6.121  14.712  0.00  0.00    +0.000 A 
ENDROOT
BRANCH   5   7
ATOM      7  N   UNL     1      46.565   5.832  12.651  0.00  0.00    +0.000 N 
ATOM      8  C   UNL     1      45.730   4.787  13.240  0.00  0.00    +0.000 C 
ATOM      9  C   UNL     1      45.519   3.710  12.177  0.00  0.00    +0.000 C 
ATOM     10  C   UNL     1      44.888   4.307  10.909  0.00  0.00    +0.000 C 
ATOM     11  C   UNL     1      45.702   5.513  10.408  0.00  0.00    +0.000 C 
ATOM     12  C   UNL     1      45.981   6.538  11.513  0.00  0.00    +0.000 C 
BRANCH  10  13
ATOM     13  C   UNL     1      43.430   4.680  11.138  0.00  0.00    +0.000 C 
ATOM     14  N   UNL     1      42.668   3.715  11.729  0.00  0.00    +0.000 N 
ATOM     15  O   UNL     1      42.925   5.750  10.815  0.00  0.00    +0.000 OA
ATOM     16  H   UNL     1      42.991   2.767  11.866  0.00  0.00    +0.000 HD
ATOM     17  H   UNL     1      41.683   3.910  11.847  0.00  0.00    +0.000 HD
ENDBRANCH  10  13
ENDBRANCH   5   7
BRANCH   1  18
ATOM     18  C   UNL     1      49.215   6.201  16.867  0.00  0.00    +0.000 C 
ATOM     19  C   UNL     1      48.466   6.927  17.983  0.00  0.00    +0.000 C 
ATOM     20  C   UNL     1      48.029   5.563  17.569  0.00  0.00    +0.000 C 
BRANCH  18  21
ATOM     21  N   UNL     1      50.617   5.926  17.199  0.00  0.00    +0.000 N 
ATOM     22  H   UNL     1      51.294   6.549  16.765  0.00  0.00    +0.000 HD
BRANCH  21  26
ATOM     23  C   UNL     1      52.316   2.158  17.816  0.00  0.00    +0.000 A 
ATOM     24  C   UNL     1      51.017   2.314  17.346  0.00  0.00    +0.000 A 
ATOM     25  N   UNL     1      50.429   3.518  17.108  0.00  0.00    +0.000 NA
ATOM     26  C   UNL     1      51.165   4.631  17.325  0.00  0.00    +0.000 A 
ATOM     27  C   UNL     1      52.486   4.538  17.792  0.00  0.00    +0.000 A 
ATOM     28  F   UNL     1      53.204   5.649  18.016  0.00  0.00    +0.000 F 
ATOM     29  C   UNL     1      53.066   3.303  18.046  0.00  0.00    +0.000 A 
BRANCH  23  31
ATOM     30  N   UNL     1      53.281  -0.195  18.298  0.00  0.00    +0.000 NA
ATOM     31  C   UNL     1      52.852   0.860  18.077  0.00  0.00    +0.000 C 
ENDBRANCH  23  31
ENDBRANCH  21  26
ENDBRANCH  18  21
ENDBRANCH   1  18
TORSDOF 6
ENDMDL
MODEL 8
REMARK VINA RESULT:    -6.784      2.387      3.583
REMARK INTER + INTRA:          -9.393
REMARK INTER:                  -8.322
REMARK INTRA:                  -1.071
REMARK UNBOUND:                -0.229
REMARK  Name = 
REMARK  6 active torsions:
REMARK  status: ('A' for Active; 'I' for Inactive)
REMARK    1  A    between atoms: C_2  and  C_3
REMARK    2  A    between atoms: C_6  and  N_7
REMARK    3  A    between atoms: N_7  and  C_8
REMARK    4  A    between atoms: C_8  and  C_9
REMARK    5  A    between atoms: C_13  and  N_14
REMARK    6  A    between atoms: C_17  and  C_18
REMARK                            x       y       z     vdW  Elec       q    Type
REMARK                         _______ _______ _______ _____ _____    ______ ____
ROOT
ATOM      1  C   UNL     1      47.257   7.548  13.252  0.00  0.00    +0.000 A 
ATOM      2  C   UNL     1      48.358   8.127  12.603  0.00  0.00    +0.000 A 
ATOM      3  C   UNL     1      49.635   8.032  13.141  0.00  0.00    +0.000 A 
ATOM      4  C   UNL     1      49.833   7.340  14.336  0.00  0.00    +0.000 A 
ATOM      5  C   UNL     1      48.779   6.691  14.995  0.00  0.00    +0.000 A 
ATOM      6  C   UNL     1      47.506   6.801  14.421  0.00  0.00    +0.000 A 
ENDROOT
BRANCH   5   7
ATOM      7  N   UNL     1      49.005   5.975  16.156  0.00  0.00    +0.000 N 
ATOM      8  C   UNL     1      50.093   6.348  17.056  0.00  0.00    +0.000 C 
ATOM      9  C   UNL     1      50.867   5.076  17.397  0.00  0.00    +0.000 C 
ATOM     10  C   UNL     1      49.940   4.020  18.020  0.00  0.00    +0.000 C 
ATOM     11  C   UNL     1      48.715   3.771  17.124  0.00  0.00    +0.000 C 
ATOM     12  C   UNL     1      48.006   5.068  16.717  0.00  0.00    +0.000 C 
BRANCH  10  13
ATOM     13  C   UNL     1      49.523   4.411  19.431  0.00  0.00    +0.000 C 
ATOM     14  N   UNL     1      48.525   3.657  19.973  0.00  0.00    +0.000 N 
ATOM     15  O   UNL     1      50.008   5.341  20.068  0.00  0.00    +0.000 OA
ATOM     16  H   UNL     1      47.986   2.991  19.437  0.00  0.00    +0.000 HD
ATOM     17  H   UNL     1      48.187   3.923  20.888  0.00  0.00    +0.000 HD
ENDBRANCH  10  13
ENDBRANCH   5   7
BRANCH   1  18
ATOM     18  C   UNL     1      45.841   7.809  12.756  0.00  0.00    +0.000 C 
ATOM     19  C   UNL     1      45.234   9.203  12.912  0.00  0.00    +0.000 C 
ATOM     20  C   UNL     1      45.748   8.767  11.582  0.00  0.00    +0.000 C 
BRANCH  18  21
ATOM     21  N   UNL     1      44.881   6.731  13.022  0.00  0.00    +0.000 N 
ATOM     22  H   UNL     1      44.746   6.506  14.004  0.00  0.00    +0.000 HD
BRANCH  21  26
ATOM     23  C   UNL     1      44.563   3.423  10.488  0.00  0.00    +0.000 A 
ATOM     24  C   UNL     1      45.419   3.434  11.583  0.00  0.00    +0.000 A 
ATOM     25  N   UNL     1      45.540   4.477  12.449  0.00  0.00    +0.000 NA
ATOM     26  C   UNL     1      44.762   5.563  12.238  0.00  0.00    +0.000 A 
ATOM     27  C   UNL     1      43.873   5.608  11.153  0.00  0.00    +0.000 A 
ATOM     28  F   UNL     1      43.114   6.695  10.946  0.00  0.00    +0.000 F 
ATOM     29  C   UNL     1      43.772   4.543  10.269  0.00  0.00    +0.000 A 
BRANCH  23  31
ATOM     30  N   UNL     1      44.489   1.400   8.875  0.00  0.00    +0.000 NA
ATOM     31  C   UNL     1      44.518   2.303   9.601  0.00  0.00    +0.000 C 
ENDBRANCH  23  31
ENDBRANCH  21  26
ENDBRANCH  18  21
ENDBRANCH   1  18
TORSDOF 6
ENDMDL
MODEL 9
REMARK VINA RESULT:    -6.638      3.784      8.944
REMARK INTER + INTRA:          -9.196
REMARK INTER:                  -8.709
REMARK INTRA:                  -0.487
REMARK UNBOUND:                -0.229
REMARK  Name = 
REMARK  6 active torsions:
REMARK  status: ('A' for Active; 'I' for Inactive)
REMARK    1  A    between atoms: C_2  and  C_3
REMARK    2  A    between atoms: C_6  and  N_7
REMARK    3  A    between atoms: N_7  and  C_8
REMARK    4  A    between atoms: C_8  and  C_9
REMARK    5  A    between atoms: C_13  and  N_14
REMARK    6  A    between atoms: C_17  and  C_18
REMARK                            x       y       z     vdW  Elec       q    Type
REMARK                         _______ _______ _______ _____ _____    ______ ____
ROOT
ATOM      1  C   UNL     1      47.914   4.902  15.867  0.00  0.00    +0.000 A 
ATOM      2  C   UNL     1      48.497   6.169  15.723  0.00  0.00    +0.000 A 
ATOM      3  C   UNL     1      48.288   6.927  14.577  0.00  0.00    +0.000 A 
ATOM      4  C   UNL     1      47.474   6.431  13.559  0.00  0.00    +0.000 A 
ATOM      5  C   UNL     1      46.818   5.198  13.675  0.00  0.00    +0.000 A 
ATOM      6  C   UNL     1      47.045   4.463  14.847  0.00  0.00    +0.000 A 
ENDROOT
BRANCH   5   7
ATOM      7  N   UNL     1      45.982   4.744  12.672  0.00  0.00    +0.000 N 
ATOM      8  C   UNL     1      45.748   5.556  11.480  0.00  0.00    +0.000 C 
ATOM      9  C   UNL     1      44.240   5.600  11.239  0.00  0.00    +0.000 C 
ATOM     10  C   UNL     1      43.666   4.181  11.093  0.00  0.00    +0.000 C 
ATOM     11  C   UNL     1      44.071   3.301  12.288  0.00  0.00    +0.000 C 
ATOM     12  C   UNL     1      45.577   3.343  12.570  0.00  0.00    +0.000 C 
BRANCH  10  13
ATOM     13  C   UNL     1      44.083   3.548   9.772  0.00  0.00    +0.000 C 
ATOM     14  N   UNL     1      44.085   4.389   8.699  0.00  0.00    +0.000 N 
ATOM     15  O   UNL     1      44.384   2.368   9.631  0.00  0.00    +0.000 OA
ATOM     16  H   UNL     1      43.693   5.320   8.729  0.00  0.00    +0.000 HD
ATOM     17  H   UNL     1      44.305   3.988   7.797  0.00  0.00    +0.000 HD
ENDBRANCH  10  13
ENDBRANCH   5   7
BRANCH   1  18
ATOM     18  C   UNL     1      48.291   4.003  17.036  0.00  0.00    +0.000 C 
ATOM     19  C   UNL     1      47.276   2.991  17.566  0.00  0.00    +0.000 C 
ATOM     20  C   UNL     1      48.393   2.528  16.694  0.00  0.00    +0.000 C 
BRANCH  18  21
ATOM     21  N   UNL     1      49.058   4.660  18.101  0.00  0.00    +0.000 N 
ATOM     22  H   UNL     1      48.641   5.510  18.472  0.00  0.00    +0.000 HD
BRANCH  21  26
ATOM     23  C   UNL     1      53.205   5.073  18.394  0.00  0.00    +0.000 A 
ATOM     24  C   UNL     1      52.609   3.881  17.999  0.00  0.00    +0.000 A 
ATOM     25  N   UNL     1      51.266   3.705  17.867  0.00  0.00    +0.000 NA
ATOM     26  C   UNL     1      50.465   4.766  18.117  0.00  0.00    +0.000 A 
ATOM     27  C   UNL     1      51.009   5.998  18.513  0.00  0.00    +0.000 A 
ATOM     28  F   UNL     1      50.205   7.040  18.770  0.00  0.00    +0.000 F 
ATOM     29  C   UNL     1      52.380   6.157  18.659  0.00  0.00    +0.000 A 
BRANCH  23  31
ATOM     30  N   UNL     1      55.775   5.247  18.659  0.00  0.00    +0.000 NA
ATOM     31  C   UNL     1      54.623   5.170  18.546  0.00  0.00    +0.000 C 
ENDBRANCH  23  31
ENDBRANCH  21  26
ENDBRANCH  18  21
ENDBRANCH   1  18
TORSDOF 6
ENDMDL
