MODEL 1
REMARK VINA RESULT:    -8.395      0.000      0.000
REMARK INTER + INTRA:          -9.278
REMARK INTER:                  -9.867
REMARK INTRA:                   0.589
REMARK UNBOUND:                 0.589
REMARK  Name = 
REMARK  3 active torsions:
REMARK  status: ('A' for Active; 'I' for Inactive)
REMARK    1  A    between atoms: C_2  and  C_4
REMARK    2  A    between atoms: N_8  and  C_9
REMARK    3  A    between atoms: C_9  and  C_10
REMARK                            x       y       z     vdW  Elec       q    Type
REMARK                         _______ _______ _______ _____ _____    ______ ____
ROOT
ATOM      1  C   UNL     1      46.356   2.139   7.908  0.00  0.00    +0.000 A 
ATOM      2  C   UNL     1      46.401   3.430   7.396  0.00  0.00    +0.000 A 
ATOM      3  C   UNL     1      45.693   4.438   8.047  0.00  0.00    +0.000 A 
ATOM      4  C   UNL     1      44.971   4.151   9.209  0.00  0.00    +0.000 A 
ATOM      5  N   UNL     1      44.317   5.243   9.821  0.00  0.00    +0.000 N 
ATOM      6  N   UNL     1      44.919   2.904   9.714  0.00  0.00    +0.000 NA
ATOM      7  C   UNL     1      45.585   1.922   9.044  0.00  0.00    +0.000 A 
ATOM      8  H   UNL     1      43.656   5.638   9.158  0.00  0.00    +0.000 HD
ENDROOT
BRANCH   1  10
ATOM      9  N   UNL     1      46.702  -0.254   7.662  0.00  0.00    +0.000 N 
ATOM     10  C   UNL     1      47.073   1.011   7.284  0.00  0.00    +0.000 C 
ATOM     11  O   UNL     1      47.945   1.190   6.441  0.00  0.00    +0.000 OA
ATOM     12  H   UNL     1      47.130  -1.021   7.159  0.00  0.00    +0.000 HD
ATOM     13  H   UNL     1      45.839  -0.443   8.154  0.00  0.00    +0.000 HD
ENDBRANCH   1  10
BRANCH   5  14
ATOM     14  C   UNL     1      43.890   5.247  11.238  0.00  0.00    +0.000 C 
ATOM     15  C   UNL     1      42.947   4.100  11.584  0.00  0.00    +0.000 C 
ATOM     16  C   UNL     1      42.452   5.507  11.646  0.00  0.00    +0.000 C 
BRANCH  14  17
ATOM     17  C   UNL     1      44.960   5.611  12.274  0.00  0.00    +0.000 C 
ATOM     18  C   UNL     1      45.939   6.660  11.729  0.00  0.00    +0.000 C 
ATOM     19  C   UNL     1      46.966   7.058  12.785  0.00  0.00    +0.000 C 
ATOM     20  C   UNL     1      47.718   5.842  13.318  0.00  0.00    +0.000 C 
ATOM     21  C   UNL     1      46.764   4.770  13.839  0.00  0.00    +0.000 C 
ATOM     22  C   UNL     1      45.721   4.379  12.791  0.00  0.00    +0.000 C 
ENDBRANCH  14  17
ENDBRANCH   5  14
TORSDOF 3
ENDMDL
MODEL 2
REMARK VINA RESULT:    -7.760      3.447      6.297
REMARK INTER + INTRA:          -8.532
REMARK INTER:                  -8.152
REMARK INTRA:                  -0.380
REMARK UNBOUND:                 0.589
REMARK  Name = 
REMARK  3 active torsions:
REMARK  status: ('A' for Active; 'I' for Inactive)
REMARK    1  A    between atoms: C_2  and  C_4
REMARK    2  A    between atoms: N_8  and  C_9
REMARK    3  A    between atoms: C_9  and  C_10
REMARK                            x       y       z     vdW  Elec       q    Type
REMARK                         _______ _______ _______ _____ _____    ______ ____
ROOT
ATOM      1  C   UNL     1      47.489   5.043  15.159  0.00  0.00    +0.000 A 
ATOM      2  C   UNL     1      47.701   6.223  14.455  0.00  0.00    +0.000 A 
ATOM      3  C   UNL     1      47.090   6.386  13.214  0.00  0.00    +0.000 A 
ATOM      4  C   UNL     1      46.260   5.384  12.703  0.00  0.00    +0.000 A 
ATOM      5  N   UNL     1      45.653   5.654  11.456  0.00  0.00    +0.000 N 
ATOM      6  N   UNL     1      46.047   4.237  13.375  0.00  0.00    +0.000 NA
ATOM      7  C   UNL     1      46.683   4.076  14.570  0.00  0.00    +0.000 A 
ATOM      8  H   UNL     1      46.383   5.806  10.767  0.00  0.00    +0.000 HD
ENDROOT
BRANCH   1  10
ATOM      9  N   UNL     1      47.372   5.147  17.585  0.00  0.00    +0.000 N 
ATOM     10  C   UNL     1      48.096   4.784  16.478  0.00  0.00    +0.000 C 
ATOM     11  O   UNL     1      49.191   4.243  16.586  0.00  0.00    +0.000 OA
ATOM     12  H   UNL     1      47.753   4.878  18.483  0.00  0.00    +0.000 HD
ATOM     13  H   UNL     1      46.385   5.361  17.542  0.00  0.00    +0.000 HD
ENDBRANCH   1  10
BRANCH   5  14
ATOM     14  C   UNL     1      44.442   4.955  10.971  0.00  0.00    +0.000 C 
ATOM     15  C   UNL     1      43.183   5.811  11.050  0.00  0.00    +0.000 C 
ATOM     16  C   UNL     1      43.297   4.589  11.897  0.00  0.00    +0.000 C 
BRANCH  14  17
ATOM     17  C   UNL     1      44.612   4.071   9.730  0.00  0.00    +0.000 C 
ATOM     18  C   UNL     1      44.889   2.611  10.112  0.00  0.00    +0.000 C 
ATOM     19  C   UNL     1      45.001   1.727   8.872  0.00  0.00    +0.000 C 
ATOM     20  C   UNL     1      46.067   2.247   7.913  0.00  0.00    +0.000 C 
ATOM     21  C   UNL     1      45.831   3.708   7.541  0.00  0.00    +0.000 C 
ATOM     22  C   UNL     1      45.701   4.596   8.779  0.00  0.00    +0.000 C 
ENDBRANCH  14  17
ENDBRANCH   5  14
TORSDOF 3
ENDMDL
MODEL 3
REMARK VINA RESULT:    -7.746      3.398      6.194
REMARK INTER + INTRA:          -8.516
REMARK INTER:                  -8.065
REMARK INTRA:                  -0.451
REMARK UNBOUND:                 0.589
REMARK  Name = 
REMARK  3 active torsions:
REMARK  status: ('A' for Active; 'I' for Inactive)
REMARK    1  A    between atoms: C_2  and  C_4
REMARK    2  A    between atoms: N_8  and  C_9
REMARK    3  A    between atoms: C_9  and  C_10
REMARK                            x       y       z     vdW  Elec       q    Type
REMARK                         _______ _______ _______ _____ _____    ______ ____
ROOT
ATOM      1  C   UNL     1      47.985   6.923  13.842  0.00  0.00    +0.000 A 
ATOM      2  C   UNL     1      47.377   8.027  13.256  0.00  0.00    +0.000 A 
ATOM      3  C   UNL     1      46.337   7.823  12.352  0.00  0.00    +0.000 A 
ATOM      4  C   UNL     1      45.903   6.527  12.061  0.00  0.00    +0.000 A 
ATOM      5  N   UNL     1      44.818   6.420  11.163  0.00  0.00    +0.000 N 
ATOM      6  N   UNL     1      46.484   5.449  12.622  0.00  0.00    +0.000 NA
ATOM      7  C   UNL     1      47.525   5.664  13.475  0.00  0.00    +0.000 A 
ATOM      8  H   UNL     1      45.087   6.841  10.279  0.00  0.00    +0.000 HD
ENDROOT
BRANCH   1  10
ATOM      9  N   UNL     1      50.321   7.399  14.313  0.00  0.00    +0.000 N 
ATOM     10  C   UNL     1      49.093   7.044  14.808  0.00  0.00    +0.000 C 
ATOM     11  O   UNL     1      48.922   6.863  16.008  0.00  0.00    +0.000 OA
ATOM     12  H   UNL     1      51.051   7.574  14.992  0.00  0.00    +0.000 HD
ATOM     13  H   UNL     1      50.441   7.791  13.388  0.00  0.00    +0.000 HD
ENDBRANCH   1  10
BRANCH   5  14
ATOM     14  C   UNL     1      43.951   5.225  11.072  0.00  0.00    +0.000 C 
ATOM     15  C   UNL     1      42.498   5.508  11.439  0.00  0.00    +0.000 C 
ATOM     16  C   UNL     1      43.311   4.598  12.296  0.00  0.00    +0.000 C 
BRANCH  14  17
ATOM     17  C   UNL     1      44.203   4.283   9.889  0.00  0.00    +0.000 C 
ATOM     18  C   UNL     1      44.371   2.829  10.352  0.00  0.00    +0.000 C 
ATOM     19  C   UNL     1      44.567   1.891   9.164  0.00  0.00    +0.000 C 
ATOM     20  C   UNL     1      45.748   2.323   8.300  0.00  0.00    +0.000 C 
ATOM     21  C   UNL     1      45.620   3.777   7.852  0.00  0.00    +0.000 C 
ATOM     22  C   UNL     1      45.407   4.721   9.037  0.00  0.00    +0.000 C 
ENDBRANCH  14  17
ENDBRANCH   5  14
TORSDOF 3
ENDMDL
MODEL 4
REMARK VINA RESULT:    -7.691      1.366      1.714
REMARK INTER + INTRA:          -8.451
REMARK INTER:                  -7.821
REMARK INTRA:                  -0.630
REMARK UNBOUND:                 0.589
REMARK  Name = 
REMARK  3 active torsions:
REMARK  status: ('A' for Active; 'I' for Inactive)
REMARK    1  A    between atoms: C_2  and  C_4
REMARK    2  A    between atoms: N_8  and  C_9
REMARK    3  A    between atoms: C_9  and  C_10
REMARK                            x       y       z     vdW  Elec       q    Type
REMARK                         _______ _______ _______ _____ _____    ______ ____
ROOT
ATOM      1  C   UNL     1      46.415   2.935   7.409  0.00  0.00    +0.000 A 
ATOM      2  C   UNL     1      45.757   1.910   8.078  0.00  0.00    +0.000 A 
ATOM      3  C   UNL     1      45.157   2.184   9.305  0.00  0.00    +0.000 A 
ATOM      4  C   UNL     1      45.201   3.476   9.837  0.00  0.00    +0.000 A 
ATOM      5  N   UNL     1      44.532   3.667  11.066  0.00  0.00    +0.000 N 
ATOM      6  N   UNL     1      45.837   4.477   9.198  0.00  0.00    +0.000 NA
ATOM      7  C   UNL     1      46.452   4.184   8.018  0.00  0.00    +0.000 A 
ATOM      8  H   UNL     1      44.948   3.053  11.760  0.00  0.00    +0.000 HD
ENDROOT
BRANCH   1  10
ATOM      9  N   UNL     1      48.420   2.446   6.125  0.00  0.00    +0.000 N 
ATOM     10  C   UNL     1      47.080   2.736   6.108  0.00  0.00    +0.000 C 
ATOM     11  O   UNL     1      46.459   2.800   5.052  0.00  0.00    +0.000 OA
ATOM     12  H   UNL     1      48.846   2.216   5.236  0.00  0.00    +0.000 HD
ATOM     13  H   UNL     1      48.900   2.146   6.963  0.00  0.00    +0.000 HD
ENDBRANCH   1  10
BRANCH   5  14
ATOM     14  C   UNL     1      44.092   4.992  11.557  0.00  0.00    +0.000 C 
ATOM     15  C   UNL     1      42.626   5.020  11.975  0.00  0.00    +0.000 C 
ATOM     16  C   UNL     1      43.076   5.832  10.807  0.00  0.00    +0.000 C 
BRANCH  14  17
ATOM     17  C   UNL     1      45.086   5.763  12.434  0.00  0.00    +0.000 C 
ATOM     18  C   UNL     1      45.735   6.921  11.664  0.00  0.00    +0.000 C 
ATOM     19  C   UNL     1      46.681   7.717  12.560  0.00  0.00    +0.000 C 
ATOM     20  C   UNL     1      47.744   6.820  13.185  0.00  0.00    +0.000 C 
ATOM     21  C   UNL     1      47.124   5.641  13.931  0.00  0.00    +0.000 C 
ATOM     22  C   UNL     1      46.163   4.849  13.044  0.00  0.00    +0.000 C 
ENDBRANCH  14  17
ENDBRANCH   5  14
TORSDOF 3
ENDMDL
MODEL 5
REMARK VINA RESULT:    -6.375      3.618      5.540
REMARK INTER + INTRA:          -6.904
REMARK INTER:                  -6.254
REMARK INTRA:                  -0.650
REMARK UNBOUND:                 0.589
REMARK  Name = 
REMARK  3 active torsions:
REMARK  status: ('A' for Active; 'I' for Inactive)
REMARK    1  A    between atoms: C_2  and  C_4
REMARK    2  A    between atoms: N_8  and  C_9
REMARK    3  A    between atoms: C_9  and  C_10
REMARK                            x       y       z     vdW  Elec       q    Type
REMARK                         _______ _______ _______ _____ _____    ______ ____
ROOT
ATOM      1  C   UNL     1      44.714   4.850  11.938  0.00  0.00    +0.000 A 
ATOM      2  C   UNL     1      44.228   6.071  11.487  0.00  0.00    +0.000 A 
ATOM      3  C   UNL     1      45.006   7.213  11.664  0.00  0.00    +0.000 A 
ATOM      4  C   UNL     1      46.264   7.119  12.266  0.00  0.00    +0.000 A 
ATOM      5  N   UNL     1      46.997   8.322  12.368  0.00  0.00    +0.000 N 
ATOM      6  N   UNL     1      46.746   5.941  12.708  0.00  0.00    +0.000 NA
ATOM      7  C   UNL     1      45.956   4.840  12.562  0.00  0.00    +0.000 A 
ATOM      8  H   UNL     1      46.460   8.983  12.921  0.00  0.00    +0.000 HD
ENDROOT
BRANCH   1  10
ATOM      9  N   UNL     1      44.384   2.516  12.530  0.00  0.00    +0.000 N 
ATOM     10  C   UNL     1      43.958   3.591  11.794  0.00  0.00    +0.000 C 
ATOM     11  O   UNL     1      42.973   3.513  11.069  0.00  0.00    +0.000 OA
ATOM     12  H   UNL     1      43.804   1.687  12.500  0.00  0.00    +0.000 HD
ATOM     13  H   UNL     1      45.023   2.609  13.308  0.00  0.00    +0.000 HD
ENDBRANCH   1  10
BRANCH   5  14
ATOM     14  C   UNL     1      48.465   8.369  12.554  0.00  0.00    +0.000 C 
ATOM     15  C   UNL     1      49.177   9.206  11.497  0.00  0.00    +0.000 C 
ATOM     16  C   UNL     1      49.423   7.736  11.562  0.00  0.00    +0.000 C 
BRANCH  14  17
ATOM     17  C   UNL     1      48.970   8.484  13.996  0.00  0.00    +0.000 C 
ATOM     18  C   UNL     1      49.508   7.143  14.514  0.00  0.00    +0.000 C 
ATOM     19  C   UNL     1      50.060   7.279  15.931  0.00  0.00    +0.000 C 
ATOM     20  C   UNL     1      49.013   7.847  16.885  0.00  0.00    +0.000 C 
ATOM     21  C   UNL     1      48.440   9.167  16.376  0.00  0.00    +0.000 C 
ATOM     22  C   UNL     1      47.900   9.041  14.951  0.00  0.00    +0.000 C 
ENDBRANCH  14  17
ENDBRANCH   5  14
TORSDOF 3
ENDMDL
MODEL 6
REMARK VINA RESULT:    -6.178      2.316      3.865
REMARK INTER + INTRA:          -6.672
REMARK INTER:                  -6.131
REMARK INTRA:                  -0.541
REMARK UNBOUND:                 0.589
REMARK  Name = 
REMARK  3 active torsions:
REMARK  status: ('A' for Active; 'I' for Inactive)
REMARK    1  A    between atoms: C_2  and  C_4
REMARK    2  A    between atoms: N_8  and  C_9
REMARK    3  A    between atoms: C_9  and  C_10
REMARK                            x       y       z     vdW  Elec       q    Type
REMARK                         _______ _______ _______ _____ _____    ______ ____
ROOT
ATOM      1  C   UNL     1      44.609   4.227   9.854  0.00  0.00    +0.000 A 
ATOM      2  C   UNL     1      43.591   4.404  10.783  0.00  0.00    +0.000 A 
ATOM      3  C   UNL     1      43.653   5.492  11.651  0.00  0.00    +0.000 A 
ATOM      4  C   UNL     1      44.713   6.399  11.567  0.00  0.00    +0.000 A 
ATOM      5  N   UNL     1      44.671   7.491  12.461  0.00  0.00    +0.000 N 
ATOM      6  N   UNL     1      45.706   6.237  10.671  0.00  0.00    +0.000 NA
ATOM      7  C   UNL     1      45.651   5.147   9.855  0.00  0.00    +0.000 A 
ATOM      8  H   UNL     1      44.671   7.132  13.411  0.00  0.00    +0.000 HD
ENDROOT
BRANCH   1  10
ATOM      9  N   UNL     1      44.530   1.838   9.416  0.00  0.00    +0.000 N 
ATOM     10  C   UNL     1      44.627   3.104   8.898  0.00  0.00    +0.000 C 
ATOM     11  O   UNL     1      44.698   3.290   7.689  0.00  0.00    +0.000 OA
ATOM     12  H   UNL     1      44.445   1.081   8.750  0.00  0.00    +0.000 HD
ATOM     13  H   UNL     1      44.225   1.660  10.363  0.00  0.00    +0.000 HD
ENDBRANCH   1  10
BRANCH   5  14
ATOM     14  C   UNL     1      45.420   8.749  12.246  0.00  0.00    +0.000 C 
ATOM     15  C   UNL     1      44.544   9.993  12.345  0.00  0.00    +0.000 C 
ATOM     16  C   UNL     1      45.174   9.637  11.041  0.00  0.00    +0.000 C 
BRANCH  14  17
ATOM     17  C   UNL     1      46.820   8.828  12.865  0.00  0.00    +0.000 C 
ATOM     18  C   UNL     1      47.892   9.101  11.800  0.00  0.00    +0.000 C 
ATOM     19  C   UNL     1      49.276   9.233  12.431  0.00  0.00    +0.000 C 
ATOM     20  C   UNL     1      49.633   7.999  13.254  0.00  0.00    +0.000 C 
ATOM     21  C   UNL     1      48.566   7.687  14.301  0.00  0.00    +0.000 C 
ATOM     22  C   UNL     1      47.175   7.570  13.677  0.00  0.00    +0.000 C 
ENDBRANCH  14  17
ENDBRANCH   5  14
TORSDOF 3
ENDMDL
MODEL 7
REMARK VINA RESULT:    -6.058      4.499      6.705
REMARK INTER + INTRA:          -6.531
REMARK INTER:                  -6.748
REMARK INTRA:                   0.217
REMARK UNBOUND:                 0.589
REMARK  Name = 
REMARK  3 active torsions:
REMARK  status: ('A' for Active; 'I' for Inactive)
REMARK    1  A    between atoms: C_2  and  C_4
REMARK    2  A    between atoms: N_8  and  C_9
REMARK    3  A    between atoms: C_9  and  C_10
REMARK                            x       y       z     vdW  Elec       q    Type
REMARK                         _______ _______ _______ _____ _____    ______ ____
ROOT
ATOM      1  C   UNL     1      45.919   5.399  12.227  0.00  0.00    +0.000 A 
ATOM      2  C   UNL     1      45.639   4.038  12.257  0.00  0.00    +0.000 A 
ATOM      3  C   UNL     1      46.207   3.255  13.259  0.00  0.00    +0.000 A 
ATOM      4  C   UNL     1      47.025   3.841  14.229  0.00  0.00    +0.000 A 
ATOM      5  N   UNL     1      47.525   2.976  15.228  0.00  0.00    +0.000 N 
ATOM      6  N   UNL     1      47.304   5.158  14.211  0.00  0.00    +0.000 NA
ATOM      7  C   UNL     1      46.773   5.904  13.201  0.00  0.00    +0.000 A 
ATOM      8  H   UNL     1      48.077   2.251  14.782  0.00  0.00    +0.000 HD
ENDROOT
BRANCH   1  10
ATOM      9  N   UNL     1      45.431   5.889   9.897  0.00  0.00    +0.000 N 
ATOM     10  C   UNL     1      45.364   6.303  11.202  0.00  0.00    +0.000 C 
ATOM     11  O   UNL     1      44.838   7.369  11.502  0.00  0.00    +0.000 OA
ATOM     12  H   UNL     1      44.963   6.468   9.213  0.00  0.00    +0.000 HD
ATOM     13  H   UNL     1      45.626   4.930   9.641  0.00  0.00    +0.000 HD
ENDBRANCH   1  10
BRANCH   5  14
ATOM     14  C   UNL     1      48.017   3.447  16.542  0.00  0.00    +0.000 C 
ATOM     15  C   UNL     1      47.215   2.896  17.716  0.00  0.00    +0.000 C 
ATOM     16  C   UNL     1      47.195   4.361  17.431  0.00  0.00    +0.000 C 
BRANCH  14  17
ATOM     17  C   UNL     1      49.538   3.534  16.712  0.00  0.00    +0.000 C 
ATOM     18  C   UNL     1      50.102   2.277  17.389  0.00  0.00    +0.000 C 
ATOM     19  C   UNL     1      51.623   2.347  17.504  0.00  0.00    +0.000 C 
ATOM     20  C   UNL     1      52.068   3.606  18.243  0.00  0.00    +0.000 C 
ATOM     21  C   UNL     1      51.495   4.869  17.607  0.00  0.00    +0.000 C 
ATOM     22  C   UNL     1      49.973   4.798  17.474  0.00  0.00    +0.000 C 
ENDBRANCH  14  17
ENDBRANCH   5  14
TORSDOF 3
ENDMDL
MODEL 8
REMARK VINA RESULT:    -5.920      4.428      6.928
REMARK INTER + INTRA:          -6.369
REMARK INTER:                  -6.562
REMARK INTRA:                   0.193
REMARK UNBOUND:                 0.589
REMARK  Name = 
REMARK  3 active torsions:
REMARK  status: ('A' for Active; 'I' for Inactive)
REMARK    1  A    between atoms: C_2  and  C_4
REMARK    2  A    between atoms: N_8  and  C_9
REMARK    3  A    between atoms: C_9  and  C_10
REMARK                            x       y       z     vdW  Elec       q    Type
REMARK                         _______ _______ _______ _____ _____    ______ ____
ROOT
ATOM      1  C   UNL     1      48.185   4.826  16.668  0.00  0.00    +0.000 A 
ATOM      2  C   UNL     1      48.794   5.956  16.136  0.00  0.00    +0.000 A 
ATOM      3  C   UNL     1      48.399   6.404  14.877  0.00  0.00    +0.000 A 
ATOM      4  C   UNL     1      47.390   5.737  14.178  0.00  0.00    +0.000 A 
ATOM      5  N   UNL     1      47.029   6.286  12.928  0.00  0.00    +0.000 N 
ATOM      6  N   UNL     1      46.792   4.641  14.684  0.00  0.00    +0.000 NA
ATOM      7  C   UNL     1      47.217   4.192  15.899  0.00  0.00    +0.000 A 
ATOM      8  H   UNL     1      47.847   6.287  12.327  0.00  0.00    +0.000 HD
ENDROOT
BRANCH   1  10
ATOM      9  N   UNL     1      49.326   3.157  18.016  0.00  0.00    +0.000 N 
ATOM     10  C   UNL     1      48.541   4.280  17.991  0.00  0.00    +0.000 C 
ATOM     11  O   UNL     1      48.175   4.820  19.030  0.00  0.00    +0.000 OA
ATOM     12  H   UNL     1      49.645   2.846  18.925  0.00  0.00    +0.000 HD
ATOM     13  H   UNL     1      49.841   2.836  17.207  0.00  0.00    +0.000 HD
ENDBRANCH   1  10
BRANCH   5  14
ATOM     14  C   UNL     1      45.737   6.013  12.260  0.00  0.00    +0.000 C 
ATOM     15  C   UNL     1      44.944   7.278  11.949  0.00  0.00    +0.000 C 
ATOM     16  C   UNL     1      44.407   6.295  12.934  0.00  0.00    +0.000 C 
BRANCH  14  17
ATOM     17  C   UNL     1      45.733   4.905  11.201  0.00  0.00    +0.000 C 
ATOM     18  C   UNL     1      45.496   5.472   9.794  0.00  0.00    +0.000 C 
ATOM     19  C   UNL     1      45.549   4.370   8.739  0.00  0.00    +0.000 C 
ATOM     20  C   UNL     1      44.555   3.255   9.048  0.00  0.00    +0.000 C 
ATOM     21  C   UNL     1      44.749   2.695  10.454  0.00  0.00    +0.000 C 
ATOM     22  C   UNL     1      44.714   3.797  11.515  0.00  0.00    +0.000 C 
ENDBRANCH  14  17
ENDBRANCH   5  14
TORSDOF 3
ENDMDL
MODEL 9
REMARK VINA RESULT:    -5.906      3.444      5.561
REMARK INTER + INTRA:          -6.353
REMARK INTER:                  -6.181
REMARK INTRA:                  -0.172
REMARK UNBOUND:                 0.589
REMARK  Name = 
REMARK  3 active torsions:
REMARK  status: ('A' for Active; 'I' for Inactive)
REMARK    1  A    between atoms: C_2  and  C_4
REMARK    2  A    between atoms: N_8  and  C_9
REMARK    3  A    between atoms: C_9  and  C_10
REMARK                            x       y       z     vdW  Elec       q    Type
REMARK                         _______ _______ _______ _____ _____    ______ ____
ROOT
ATOM      1  C   UNL     1      44.966   4.731  11.377  0.00  0.00    +0.000 A 
ATOM      2  C   UNL     1      45.479   4.166  12.539  0.00  0.00    +0.000 A 
ATOM      3  C   UNL     1      46.493   4.835  13.222  0.00  0.00    +0.000 A 
ATOM      4  C   UNL     1      46.964   6.064  12.752  0.00  0.00    +0.000 A 
ATOM      5  N   UNL     1      47.965   6.686  13.530  0.00  0.00    +0.000 N 
ATOM      6  N   UNL     1      46.475   6.621  11.627  0.00  0.00    +0.000 NA
ATOM      7  C   UNL     1      45.511   5.935  10.950  0.00  0.00    +0.000 A 
ATOM      8  H   UNL     1      48.768   6.067  13.580  0.00  0.00    +0.000 HD
ENDROOT
BRANCH   1  10
ATOM      9  N   UNL     1      43.838   4.388   9.252  0.00  0.00    +0.000 N 
ATOM     10  C   UNL     1      43.894   4.093  10.590  0.00  0.00    +0.000 C 
ATOM     11  O   UNL     1      43.102   3.308  11.099  0.00  0.00    +0.000 OA
ATOM     12  H   UNL     1      43.162   3.873   8.702  0.00  0.00    +0.000 HD
ATOM     13  H   UNL     1      44.606   4.823   8.759  0.00  0.00    +0.000 HD
ENDBRANCH   1  10
BRANCH   5  14
ATOM     14  C   UNL     1      48.268   8.133  13.463  0.00  0.00    +0.000 C 
ATOM     15  C   UNL     1      47.903   8.883  14.739  0.00  0.00    +0.000 C 
ATOM     16  C   UNL     1      47.176   9.186  13.471  0.00  0.00    +0.000 C 
BRANCH  14  17
ATOM     17  C   UNL     1      49.577   8.527  12.769  0.00  0.00    +0.000 C 
ATOM     18  C   UNL     1      49.480   9.921  12.134  0.00  0.00    +0.000 C 
ATOM     19  C   UNL     1      50.805  10.329  11.494  0.00  0.00    +0.000 C 
ATOM     20  C   UNL     1      51.270   9.299  10.469  0.00  0.00    +0.000 C 
ATOM     21  C   UNL     1      51.345   7.898  11.069  0.00  0.00    +0.000 C 
ATOM     22  C   UNL     1      50.026   7.489  11.726  0.00  0.00    +0.000 C 
ENDBRANCH  14  17
ENDBRANCH   5  14
TORSDOF 3
ENDMDL
