MODEL 1
REMARK VINA RESULT:    -8.549      0.000      0.000
REMARK INTER + INTRA:         -11.991
REMARK INTER:                 -11.547
REMARK INTRA:                  -0.444
REMARK UNBOUND:                -0.444
REMARK  Name = 
REMARK  7 active torsions:
REMARK  status: ('A' for Active; 'I' for Inactive)
REMARK    1  A    between atoms: C_1  and  C_2
REMARK    2  A    between atoms: C_2  and  N_3
REMARK    3  A    between atoms: C_2  and  C_16
REMARK    4  A    between atoms: C_4  and  C_6
REMARK    5  A    between atoms: C_19  and  O_20
REMARK    6  A    between atoms: O_20  and  C_21
REMARK    7  A    between atoms: C_21  and  C_22
REMARK                            x       y       z     vdW  Elec       q    Type
REMARK                         _______ _______ _______ _____ _____    ______ ____
ROOT
ATOM      1  C   UNL     1      47.949   8.820  12.309  0.00  0.00    +0.000 C 
ATOM      2  C   UNL     1      46.829   8.143  13.112  0.00  0.00    +0.000 C 
ENDROOT
BRANCH   2   3
ATOM      3  C   UNL     1      46.138   7.032  12.339  0.00  0.00    +0.000 A 
ATOM      4  C   UNL     1      46.523   6.736  11.018  0.00  0.00    +0.000 A 
ATOM      5  C   UNL     1      45.932   5.676  10.324  0.00  0.00    +0.000 A 
ATOM      6  C   UNL     1      44.953   4.896  10.941  0.00  0.00    +0.000 A 
ATOM      7  C   UNL     1      44.513   5.230  12.217  0.00  0.00    +0.000 A 
ATOM      8  C   UNL     1      45.101   6.285  12.908  0.00  0.00    +0.000 A 
BRANCH   6   9
ATOM      9  O   UNL     1      44.485   3.827  10.222  0.00  0.00    +0.000 OA
BRANCH   9  10
ATOM     10  C   UNL     1      44.486   4.029   8.802  0.00  0.00    +0.000 C 
BRANCH  10  11
ATOM     11  C   UNL     1      45.471   3.094   8.151  0.00  0.00    +0.000 A 
ATOM     12  C   UNL     1      46.335   3.580   7.170  0.00  0.00    +0.000 A 
ATOM     13  C   UNL     1      47.253   2.712   6.596  0.00  0.00    +0.000 A 
ATOM     14  C   UNL     1      47.292   1.389   7.020  0.00  0.00    +0.000 A 
ATOM     15  C   UNL     1      46.413   0.990   8.012  0.00  0.00    +0.000 A 
ATOM     16  N   UNL     1      45.511   1.811   8.591  0.00  0.00    +0.000 NA
ENDBRANCH  10  11
ENDBRANCH   9  10
ENDBRANCH   6   9
ENDBRANCH   2   3
BRANCH   2  17
ATOM     17  N   UNL     1      47.325   7.637  14.380  0.00  0.00    +0.000 N 
ATOM     18  C   UNL     1      48.362   6.739  14.433  0.00  0.00    +0.000 C 
ATOM     19  O   UNL     1      48.919   6.329  13.416  0.00  0.00    +0.000 OA
ATOM     20  H   UNL     1      46.775   7.823  15.212  0.00  0.00    +0.000 HD
BRANCH  18  21
ATOM     21  C   UNL     1      48.831   6.333  15.762  0.00  0.00    +0.000 A 
ATOM     22  C   UNL     1      49.792   7.098  16.407  0.00  0.00    +0.000 A 
ATOM     23  S   UNL     1      50.238   6.495  17.937  0.00  0.00    +0.000 S 
ATOM     24  C   UNL     1      49.196   5.161  17.771  0.00  0.00    +0.000 A 
ATOM     25  N   UNL     1      49.134   4.203  18.735  0.00  0.00    +0.000 NA
ATOM     26  C   UNL     1      48.334   3.226  18.463  0.00  0.00    +0.000 A 
ATOM     27  N   UNL     1      47.576   3.133  17.321  0.00  0.00    +0.000 N 
ATOM     28  C   UNL     1      47.565   4.104  16.348  0.00  0.00    +0.000 A 
ATOM     29  O   UNL     1      46.812   4.038  15.378  0.00  0.00    +0.000 OA
ATOM     30  C   UNL     1      48.485   5.200  16.584  0.00  0.00    +0.000 A 
ATOM     31  H   UNL     1      46.954   2.351  17.183  0.00  0.00    +0.000 HD
ENDBRANCH  18  21
ENDBRANCH   2  17
TORSDOF 6
ENDMDL
MODEL 2
REMARK VINA RESULT:    -8.074      1.509      1.787
REMARK INTER + INTRA:         -11.350
REMARK INTER:                 -10.171
REMARK INTRA:                  -1.179
REMARK UNBOUND:                -0.444
REMARK  Name = 
REMARK  7 active torsions:
REMARK  status: ('A' for Active; 'I' for Inactive)
REMARK    1  A    between atoms: C_1  and  C_2
REMARK    2  A    between atoms: C_2  and  N_3
REMARK    3  A    between atoms: C_2  and  C_16
REMARK    4  A    between atoms: C_4  and  C_6
REMARK    5  A    between atoms: C_19  and  O_20
REMARK    6  A    between atoms: O_20  and  C_21
REMARK    7  A    between atoms: C_21  and  C_22
REMARK                            x       y       z     vdW  Elec       q    Type
REMARK                         _______ _______ _______ _____ _____    ______ ____
ROOT
ATOM      1  C   UNL     1      47.502   8.951  12.481  0.00  0.00    +0.000 C 
ATOM      2  C   UNL     1      47.090   7.846  13.464  0.00  0.00    +0.000 C 
ENDROOT
BRANCH   2   3
ATOM      3  C   UNL     1      46.303   6.729  12.799  0.00  0.00    +0.000 A 
ATOM      4  C   UNL     1      45.510   6.991  11.667  0.00  0.00    +0.000 A 
ATOM      5  C   UNL     1      44.832   5.956  11.017  0.00  0.00    +0.000 A 
ATOM      6  C   UNL     1      44.939   4.646  11.487  0.00  0.00    +0.000 A 
ATOM      7  C   UNL     1      45.657   4.392  12.650  0.00  0.00    +0.000 A 
ATOM      8  C   UNL     1      46.332   5.422  13.297  0.00  0.00    +0.000 A 
BRANCH   6   9
ATOM      9  O   UNL     1      44.311   3.681  10.745  0.00  0.00    +0.000 OA
BRANCH   9  10
ATOM     10  C   UNL     1      44.171   4.006   9.355  0.00  0.00    +0.000 C 
BRANCH  10  11
ATOM     11  C   UNL     1      45.244   3.315   8.555  0.00  0.00    +0.000 A 
ATOM     12  C   UNL     1      45.481   1.956   8.753  0.00  0.00    +0.000 A 
ATOM     13  C   UNL     1      46.458   1.328   7.992  0.00  0.00    +0.000 A 
ATOM     14  C   UNL     1      47.162   2.067   7.049  0.00  0.00    +0.000 A 
ATOM     15  C   UNL     1      46.853   3.408   6.900  0.00  0.00    +0.000 A 
ATOM     16  N   UNL     1      45.908   4.046   7.623  0.00  0.00    +0.000 NA
ENDBRANCH  10  11
ENDBRANCH   9  10
ENDBRANCH   6   9
ENDBRANCH   2   3
BRANCH   2  17
ATOM     17  N   UNL     1      48.246   7.302  14.155  0.00  0.00    +0.000 N 
ATOM     18  C   UNL     1      48.730   7.882  15.301  0.00  0.00    +0.000 C 
ATOM     19  O   UNL     1      48.207   8.879  15.796  0.00  0.00    +0.000 OA
ATOM     20  H   UNL     1      48.794   6.594  13.677  0.00  0.00    +0.000 HD
BRANCH  18  21
ATOM     21  C   UNL     1      49.864   7.225  15.959  0.00  0.00    +0.000 A 
ATOM     22  C   UNL     1      51.105   7.846  15.957  0.00  0.00    +0.000 A 
ATOM     23  S   UNL     1      52.321   6.958  16.754  0.00  0.00    +0.000 S 
ATOM     24  C   UNL     1      51.243   5.686  17.087  0.00  0.00    +0.000 A 
ATOM     25  N   UNL     1      51.671   4.560  17.721  0.00  0.00    +0.000 NA
ATOM     26  C   UNL     1      50.759   3.657  17.873  0.00  0.00    +0.000 A 
ATOM     27  N   UNL     1      49.455   3.790  17.468  0.00  0.00    +0.000 N 
ATOM     28  C   UNL     1      48.966   4.930  16.876  0.00  0.00    +0.000 A 
ATOM     29  O   UNL     1      47.774   5.056  16.602  0.00  0.00    +0.000 OA
ATOM     30  C   UNL     1      49.962   5.956  16.637  0.00  0.00    +0.000 A 
ATOM     31  H   UNL     1      48.788   3.052  17.640  0.00  0.00    +0.000 HD
ENDBRANCH  18  21
ENDBRANCH   2  17
TORSDOF 6
ENDMDL
MODEL 3
REMARK VINA RESULT:    -8.066      1.597      1.878
REMARK INTER + INTRA:         -11.340
REMARK INTER:                 -10.546
REMARK INTRA:                  -0.794
REMARK UNBOUND:                -0.444
REMARK  Name = 
REMARK  7 active torsions:
REMARK  status: ('A' for Active; 'I' for Inactive)
REMARK    1  A    between atoms: C_1  and  C_2
REMARK    2  A    between atoms: C_2  and  N_3
REMARK    3  A    between atoms: C_2  and  C_16
REMARK    4  A    between atoms: C_4  and  C_6
REMARK    5  A    between atoms: C_19  and  O_20
REMARK    6  A    between atoms: O_20  and  C_21
REMARK    7  A    between atoms: C_21  and  C_22
REMARK                            x       y       z     vdW  Elec       q    Type
REMARK                         _______ _______ _______ _____ _____    ______ ____
ROOT
ATOM      1  C   UNL     1      49.385   7.070  12.971  0.00  0.00    +0.000 C 
ATOM      2  C   UNL     1      47.979   7.186  13.578  0.00  0.00    +0.000 C 
ENDROOT
BRANCH   2   3
ATOM      3  C   UNL     1      46.962   6.297  12.881  0.00  0.00    +0.000 A 
ATOM      4  C   UNL     1      46.308   6.739  11.717  0.00  0.00    +0.000 A 
ATOM      5  C   UNL     1      45.416   5.902  11.038  0.00  0.00    +0.000 A 
ATOM      6  C   UNL     1      45.170   4.613  11.513  0.00  0.00    +0.000 A 
ATOM      7  C   UNL     1      45.752   4.198  12.705  0.00  0.00    +0.000 A 
ATOM      8  C   UNL     1      46.639   5.030  13.380  0.00  0.00    +0.000 A 
BRANCH   6   9
ATOM      9  O   UNL     1      44.348   3.831  10.745  0.00  0.00    +0.000 OA
BRANCH   9  10
ATOM     10  C   UNL     1      44.283   4.222   9.367  0.00  0.00    +0.000 C 
BRANCH  10  11
ATOM     11  C   UNL     1      45.310   3.462   8.568  0.00  0.00    +0.000 A 
ATOM     12  C   UNL     1      45.464   2.092   8.773  0.00  0.00    +0.000 A 
ATOM     13  C   UNL     1      46.399   1.402   8.013  0.00  0.00    +0.000 A 
ATOM     14  C   UNL     1      47.145   2.093   7.066  0.00  0.00    +0.000 A 
ATOM     15  C   UNL     1      46.918   3.450   6.911  0.00  0.00    +0.000 A 
ATOM     16  N   UNL     1      46.016   4.147   7.633  0.00  0.00    +0.000 NA
ENDBRANCH  10  11
ENDBRANCH   9  10
ENDBRANCH   6   9
ENDBRANCH   2   3
BRANCH   2  17
ATOM     17  N   UNL     1      47.998   6.903  15.002  0.00  0.00    +0.000 N 
ATOM     18  C   UNL     1      48.652   7.728  15.884  0.00  0.00    +0.000 C 
ATOM     19  O   UNL     1      49.241   8.740  15.512  0.00  0.00    +0.000 OA
ATOM     20  H   UNL     1      47.672   5.992  15.310  0.00  0.00    +0.000 HD
BRANCH  18  21
ATOM     21  C   UNL     1      48.564   7.391  17.309  0.00  0.00    +0.000 A 
ATOM     22  C   UNL     1      48.470   8.412  18.245  0.00  0.00    +0.000 A 
ATOM     23  S   UNL     1      48.382   7.863  19.855  0.00  0.00    +0.000 S 
ATOM     24  C   UNL     1      48.517   6.241  19.363  0.00  0.00    +0.000 A 
ATOM     25  N   UNL     1      48.559   5.237  20.280  0.00  0.00    +0.000 NA
ATOM     26  C   UNL     1      48.705   4.058  19.772  0.00  0.00    +0.000 A 
ATOM     27  N   UNL     1      48.792   3.794  18.428  0.00  0.00    +0.000 N 
ATOM     28  C   UNL     1      48.698   4.770  17.465  0.00  0.00    +0.000 A 
ATOM     29  O   UNL     1      48.691   4.496  16.266  0.00  0.00    +0.000 OA
ATOM     30  C   UNL     1      48.582   6.118  17.986  0.00  0.00    +0.000 A 
ATOM     31  H   UNL     1      48.883   2.845  18.098  0.00  0.00    +0.000 HD
ENDBRANCH  18  21
ENDBRANCH   2  17
TORSDOF 6
ENDMDL
MODEL 4
REMARK VINA RESULT:    -8.046      2.651      3.606
REMARK INTER + INTRA:         -11.312
REMARK INTER:                 -10.308
REMARK INTRA:                  -1.004
REMARK UNBOUND:                -0.444
REMARK  Name = 
REMARK  7 active torsions:
REMARK  status: ('A' for Active; 'I' for Inactive)
REMARK    1  A    between atoms: C_1  and  C_2
REMARK    2  A    between atoms: C_2  and  N_3
REMARK    3  A    between atoms: C_2  and  C_16
REMARK    4  A    between atoms: C_4  and  C_6
REMARK    5  A    between atoms: C_19  and  O_20
REMARK    6  A    between atoms: O_20  and  C_21
REMARK    7  A    between atoms: C_21  and  C_22
REMARK                            x       y       z     vdW  Elec       q    Type
REMARK                         _______ _______ _______ _____ _____    ______ ____
ROOT
ATOM      1  C   UNL     1      47.187   4.135  15.913  0.00  0.00    +0.000 C 
ATOM      2  C   UNL     1      47.639   4.990  14.722  0.00  0.00    +0.000 C 
ENDROOT
BRANCH   2   3
ATOM      3  C   UNL     1      46.754   4.813  13.499  0.00  0.00    +0.000 A 
ATOM      4  C   UNL     1      46.595   5.862  12.576  0.00  0.00    +0.000 A 
ATOM      5  C   UNL     1      45.829   5.683  11.419  0.00  0.00    +0.000 A 
ATOM      6  C   UNL     1      45.217   4.454  11.169  0.00  0.00    +0.000 A 
ATOM      7  C   UNL     1      45.305   3.439  12.114  0.00  0.00    +0.000 A 
ATOM      8  C   UNL     1      46.067   3.616  13.265  0.00  0.00    +0.000 A 
BRANCH   6   9
ATOM      9  O   UNL     1      44.555   4.338   9.975  0.00  0.00    +0.000 OA
BRANCH   9  10
ATOM     10  C   UNL     1      44.337   2.984   9.553  0.00  0.00    +0.000 C 
BRANCH  10  11
ATOM     11  C   UNL     1      45.380   2.588   8.541  0.00  0.00    +0.000 A 
ATOM     12  C   UNL     1      45.846   3.533   7.628  0.00  0.00    +0.000 A 
ATOM     13  C   UNL     1      46.823   3.159   6.716  0.00  0.00    +0.000 A 
ATOM     14  C   UNL     1      47.317   1.860   6.746  0.00  0.00    +0.000 A 
ATOM     15  C   UNL     1      46.815   0.987   7.697  0.00  0.00    +0.000 A 
ATOM     16  N   UNL     1      45.866   1.322   8.597  0.00  0.00    +0.000 NA
ENDBRANCH  10  11
ENDBRANCH   9  10
ENDBRANCH   6   9
ENDBRANCH   2   3
BRANCH   2  17
ATOM     17  N   UNL     1      47.718   6.394  15.084  0.00  0.00    +0.000 N 
ATOM     18  C   UNL     1      48.870   6.934  15.600  0.00  0.00    +0.000 C 
ATOM     19  O   UNL     1      49.884   6.260  15.772  0.00  0.00    +0.000 OA
ATOM     20  H   UNL     1      46.854   6.925  15.115  0.00  0.00    +0.000 HD
BRANCH  18  21
ATOM     21  C   UNL     1      48.870   8.374  15.879  0.00  0.00    +0.000 A 
ATOM     22  C   UNL     1      49.352   9.253  14.919  0.00  0.00    +0.000 A 
ATOM     23  S   UNL     1      49.292  10.889  15.392  0.00  0.00    +0.000 S 
ATOM     24  C   UNL     1      48.665  10.477  16.918  0.00  0.00    +0.000 A 
ATOM     25  N   UNL     1      48.426  11.435  17.854  0.00  0.00    +0.000 NA
ATOM     26  C   UNL     1      47.990  10.980  18.982  0.00  0.00    +0.000 A 
ATOM     27  N   UNL     1      47.753   9.655  19.249  0.00  0.00    +0.000 N 
ATOM     28  C   UNL     1      47.925   8.660  18.317  0.00  0.00    +0.000 A 
ATOM     29  O   UNL     1      47.622   7.492  18.554  0.00  0.00    +0.000 OA
ATOM     30  C   UNL     1      48.461   9.114  17.048  0.00  0.00    +0.000 A 
ATOM     31  H   UNL     1      47.390   9.371  20.146  0.00  0.00    +0.000 HD
ENDBRANCH  18  21
ENDBRANCH   2  17
TORSDOF 6
ENDMDL
MODEL 5
REMARK VINA RESULT:    -7.799      1.831      2.533
REMARK INTER + INTRA:         -10.979
REMARK INTER:                 -10.018
REMARK INTRA:                  -0.961
REMARK UNBOUND:                -0.444
REMARK  Name = 
REMARK  7 active torsions:
REMARK  status: ('A' for Active; 'I' for Inactive)
REMARK    1  A    between atoms: C_1  and  C_2
REMARK    2  A    between atoms: C_2  and  N_3
REMARK    3  A    between atoms: C_2  and  C_16
REMARK    4  A    between atoms: C_4  and  C_6
REMARK    5  A    between atoms: C_19  and  O_20
REMARK    6  A    between atoms: O_20  and  C_21
REMARK    7  A    between atoms: C_21  and  C_22
REMARK                            x       y       z     vdW  Elec       q    Type
REMARK                         _______ _______ _______ _____ _____    ______ ____
ROOT
ATOM      1  C   UNL     1      48.956   7.722  12.816  0.00  0.00    +0.000 C 
ATOM      2  C   UNL     1      47.827   7.047  13.606  0.00  0.00    +0.000 C 
ENDROOT
BRANCH   2   3
ATOM      3  C   UNL     1      46.939   6.173  12.735  0.00  0.00    +0.000 A 
ATOM      4  C   UNL     1      46.509   4.915  13.193  0.00  0.00    +0.000 A 
ATOM      5  C   UNL     1      45.644   4.133  12.421  0.00  0.00    +0.000 A 
ATOM      6  C   UNL     1      45.195   4.601  11.185  0.00  0.00    +0.000 A 
ATOM      7  C   UNL     1      45.677   5.808  10.692  0.00  0.00    +0.000 A 
ATOM      8  C   UNL     1      46.537   6.586  11.460  0.00  0.00    +0.000 A 
BRANCH   6   9
ATOM      9  O   UNL     1      44.286   3.811  10.530  0.00  0.00    +0.000 OA
BRANCH   9  10
ATOM     10  C   UNL     1      44.232   4.027   9.113  0.00  0.00    +0.000 C 
BRANCH  10  11
ATOM     11  C   UNL     1      45.259   3.168   8.423  0.00  0.00    +0.000 A 
ATOM     12  C   UNL     1      46.144   3.750   7.516  0.00  0.00    +0.000 A 
ATOM     13  C   UNL     1      47.100   2.950   6.905  0.00  0.00    +0.000 A 
ATOM     14  C   UNL     1      47.155   1.599   7.222  0.00  0.00    +0.000 A 
ATOM     15  C   UNL     1      46.253   1.102   8.148  0.00  0.00    +0.000 A 
ATOM     16  N   UNL     1      45.314   1.855   8.759  0.00  0.00    +0.000 NA
ENDBRANCH  10  11
ENDBRANCH   9  10
ENDBRANCH   6   9
ENDBRANCH   2   3
BRANCH   2  17
ATOM     17  N   UNL     1      48.354   6.275  14.718  0.00  0.00    +0.000 N 
ATOM     18  C   UNL     1      48.650   6.868  15.920  0.00  0.00    +0.000 C 
ATOM     19  O   UNL     1      48.478   8.070  16.112  0.00  0.00    +0.000 OA
ATOM     20  H   UNL     1      48.665   5.327  14.532  0.00  0.00    +0.000 HD
BRANCH  18  21
ATOM     21  C   UNL     1      49.121   5.995  17.000  0.00  0.00    +0.000 A 
ATOM     22  C   UNL     1      48.195   5.383  17.834  0.00  0.00    +0.000 A 
ATOM     23  S   UNL     1      48.895   4.407  19.041  0.00  0.00    +0.000 S 
ATOM     24  C   UNL     1      50.465   4.806  18.525  0.00  0.00    +0.000 A 
ATOM     25  N   UNL     1      51.556   4.330  19.184  0.00  0.00    +0.000 NA
ATOM     26  C   UNL     1      52.685   4.745  18.712  0.00  0.00    +0.000 A 
ATOM     27  N   UNL     1      52.819   5.576  17.627  0.00  0.00    +0.000 N 
ATOM     28  C   UNL     1      51.749   6.035  16.898  0.00  0.00    +0.000 A 
ATOM     29  O   UNL     1      51.901   6.706  15.879  0.00  0.00    +0.000 OA
ATOM     30  C   UNL     1      50.454   5.637  17.418  0.00  0.00    +0.000 A 
ATOM     31  H   UNL     1      53.735   5.843  17.298  0.00  0.00    +0.000 HD
ENDBRANCH  18  21
ENDBRANCH   2  17
TORSDOF 6
ENDMDL
MODEL 6
REMARK VINA RESULT:    -7.680      2.171      2.667
REMARK INTER + INTRA:         -10.817
REMARK INTER:                 -10.330
REMARK INTRA:                  -0.488
REMARK UNBOUND:                -0.444
REMARK  Name = 
REMARK  7 active torsions:
REMARK  status: ('A' for Active; 'I' for Inactive)
REMARK    1  A    between atoms: C_1  and  C_2
REMARK    2  A    between atoms: C_2  and  N_3
REMARK    3  A    between atoms: C_2  and  C_16
REMARK    4  A    between atoms: C_4  and  C_6
REMARK    5  A    between atoms: C_19  and  O_20
REMARK    6  A    between atoms: O_20  and  C_21
REMARK    7  A    between atoms: C_21  and  C_22
REMARK                            x       y       z     vdW  Elec       q    Type
REMARK                         _______ _______ _______ _____ _____    ______ ____
ROOT
ATOM      1  C   UNL     1      49.275   7.473  12.941  0.00  0.00    +0.000 C 
ATOM      2  C   UNL     1      47.956   7.160  13.662  0.00  0.00    +0.000 C 
ENDROOT
BRANCH   2   3
ATOM      3  C   UNL     1      47.026   6.286  12.835  0.00  0.00    +0.000 A 
ATOM      4  C   UNL     1      46.701   4.987  13.264  0.00  0.00    +0.000 A 
ATOM      5  C   UNL     1      45.799   4.201  12.539  0.00  0.00    +0.000 A 
ATOM      6  C   UNL     1      45.209   4.706  11.379  0.00  0.00    +0.000 A 
ATOM      7  C   UNL     1      45.585   5.958  10.907  0.00  0.00    +0.000 A 
ATOM      8  C   UNL     1      46.482   6.740  11.629  0.00  0.00    +0.000 A 
BRANCH   6   9
ATOM      9  O   UNL     1      44.276   3.905  10.774  0.00  0.00    +0.000 OA
BRANCH   9  10
ATOM     10  C   UNL     1      44.118   4.145   9.369  0.00  0.00    +0.000 C 
BRANCH  10  11
ATOM     11  C   UNL     1      45.180   3.404   8.598  0.00  0.00    +0.000 A 
ATOM     12  C   UNL     1      45.351   2.036   8.804  0.00  0.00    +0.000 A 
ATOM     13  C   UNL     1      46.319   1.364   8.070  0.00  0.00    +0.000 A 
ATOM     14  C   UNL     1      47.079   2.068   7.146  0.00  0.00    +0.000 A 
ATOM     15  C   UNL     1      46.835   3.422   6.987  0.00  0.00    +0.000 A 
ATOM     16  N   UNL     1      45.901   4.103   7.685  0.00  0.00    +0.000 NA
ENDBRANCH  10  11
ENDBRANCH   9  10
ENDBRANCH   6   9
ENDBRANCH   2   3
BRANCH   2  17
ATOM     17  N   UNL     1      48.198   6.548  14.956  0.00  0.00    +0.000 N 
ATOM     18  C   UNL     1      48.965   7.174  15.908  0.00  0.00    +0.000 C 
ATOM     19  O   UNL     1      49.472   8.277  15.713  0.00  0.00    +0.000 OA
ATOM     20  H   UNL     1      47.940   5.574  15.077  0.00  0.00    +0.000 HD
BRANCH  18  21
ATOM     21  C   UNL     1      49.103   6.504  17.206  0.00  0.00    +0.000 A 
ATOM     22  C   UNL     1      49.801   5.306  17.282  0.00  0.00    +0.000 A 
ATOM     23  S   UNL     1      49.870   4.649  18.852  0.00  0.00    +0.000 S 
ATOM     24  C   UNL     1      48.926   5.917  19.479  0.00  0.00    +0.000 A 
ATOM     25  N   UNL     1      48.565   5.932  20.791  0.00  0.00    +0.000 NA
ATOM     26  C   UNL     1      47.814   6.929  21.124  0.00  0.00    +0.000 A 
ATOM     27  N   UNL     1      47.410   7.922  20.266  0.00  0.00    +0.000 N 
ATOM     28  C   UNL     1      47.797   7.977  18.948  0.00  0.00    +0.000 A 
ATOM     29  O   UNL     1      47.492   8.924  18.224  0.00  0.00    +0.000 OA
ATOM     30  C   UNL     1      48.601   6.853  18.512  0.00  0.00    +0.000 A 
ATOM     31  H   UNL     1      46.841   8.686  20.599  0.00  0.00    +0.000 HD
ENDBRANCH  18  21
ENDBRANCH   2  17
TORSDOF 6
ENDMDL
MODEL 7
REMARK VINA RESULT:    -7.659      2.432      3.898
REMARK INTER + INTRA:         -10.790
REMARK INTER:                  -9.516
REMARK INTRA:                  -1.274
REMARK UNBOUND:                -0.444
REMARK  Name = 
REMARK  7 active torsions:
REMARK  status: ('A' for Active; 'I' for Inactive)
REMARK    1  A    between atoms: C_1  and  C_2
REMARK    2  A    between atoms: C_2  and  N_3
REMARK    3  A    between atoms: C_2  and  C_16
REMARK    4  A    between atoms: C_4  and  C_6
REMARK    5  A    between atoms: C_19  and  O_20
REMARK    6  A    between atoms: O_20  and  C_21
REMARK    7  A    between atoms: C_21  and  C_22
REMARK                            x       y       z     vdW  Elec       q    Type
REMARK                         _______ _______ _______ _____ _____    ______ ____
ROOT
ATOM      1  C   UNL     1      47.405   3.434  16.174  0.00  0.00    +0.000 C 
ATOM      2  C   UNL     1      47.915   4.663  15.408  0.00  0.00    +0.000 C 
ENDROOT
BRANCH   2   3
ATOM      3  C   UNL     1      47.065   4.994  14.193  0.00  0.00    +0.000 A 
ATOM      4  C   UNL     1      47.493   5.961  13.266  0.00  0.00    +0.000 A 
ATOM      5  C   UNL     1      46.743   6.226  12.115  0.00  0.00    +0.000 A 
ATOM      6  C   UNL     1      45.560   5.526  11.875  0.00  0.00    +0.000 A 
ATOM      7  C   UNL     1      45.091   4.625  12.825  0.00  0.00    +0.000 A 
ATOM      8  C   UNL     1      45.836   4.361  13.970  0.00  0.00    +0.000 A 
BRANCH   6   9
ATOM      9  O   UNL     1      44.930   5.787  10.687  0.00  0.00    +0.000 OA
BRANCH   9  10
ATOM     10  C   UNL     1      44.161   4.689  10.176  0.00  0.00    +0.000 C 
BRANCH  10  11
ATOM     11  C   UNL     1      45.006   3.857   9.247  0.00  0.00    +0.000 A 
ATOM     12  C   UNL     1      45.015   2.470   9.383  0.00  0.00    +0.000 A 
ATOM     13  C   UNL     1      45.781   1.715   8.505  0.00  0.00    +0.000 A 
ATOM     14  C   UNL     1      46.506   2.361   7.511  0.00  0.00    +0.000 A 
ATOM     15  C   UNL     1      46.427   3.741   7.430  0.00  0.00    +0.000 A 
ATOM     16  N   UNL     1      45.691   4.502   8.268  0.00  0.00    +0.000 NA
ENDBRANCH  10  11
ENDBRANCH   9  10
ENDBRANCH   6   9
ENDBRANCH   2   3
BRANCH   2  17
ATOM     17  N   UNL     1      48.015   5.820  16.280  0.00  0.00    +0.000 N 
ATOM     18  C   UNL     1      49.209   6.179  16.855  0.00  0.00    +0.000 C 
ATOM     19  O   UNL     1      50.243   5.546  16.655  0.00  0.00    +0.000 OA
ATOM     20  H   UNL     1      47.152   6.251  16.597  0.00  0.00    +0.000 HD
BRANCH  18  21
ATOM     21  C   UNL     1      49.221   7.396  17.672  0.00  0.00    +0.000 A 
ATOM     22  C   UNL     1      49.530   7.306  19.023  0.00  0.00    +0.000 A 
ATOM     23  S   UNL     1      49.497   8.802  19.838  0.00  0.00    +0.000 S 
ATOM     24  C   UNL     1      49.019   9.619  18.425  0.00  0.00    +0.000 A 
ATOM     25  N   UNL     1      48.763  10.955  18.446  0.00  0.00    +0.000 NA
ATOM     26  C   UNL     1      48.369  11.439  17.314  0.00  0.00    +0.000 A 
ATOM     27  N   UNL     1      48.229  10.709  16.160  0.00  0.00    +0.000 N 
ATOM     28  C   UNL     1      48.530   9.371  16.079  0.00  0.00    +0.000 A 
ATOM     29  O   UNL     1      48.480   8.760  15.012  0.00  0.00    +0.000 OA
ATOM     30  C   UNL     1      48.931   8.768  17.336  0.00  0.00    +0.000 A 
ATOM     31  H   UNL     1      47.938  11.157  15.304  0.00  0.00    +0.000 HD
ENDBRANCH  18  21
ENDBRANCH   2  17
TORSDOF 6
ENDMDL
MODEL 8
REMARK VINA RESULT:    -7.408      2.555      2.917
REMARK INTER + INTRA:         -10.451
REMARK INTER:                  -9.495
REMARK INTRA:                  -0.956
REMARK UNBOUND:                -0.444
REMARK  Name = 
REMARK  7 active torsions:
REMARK  status: ('A' for Active; 'I' for Inactive)
REMARK    1  A    between atoms: C_1  and  C_2
REMARK    2  A    between atoms: C_2  and  N_3
REMARK    3  A    between atoms: C_2  and  C_16
REMARK    4  A    between atoms: C_4  and  C_6
REMARK    5  A    between atoms: C_19  and  O_20
REMARK    6  A    between atoms: O_20  and  C_21
REMARK    7  A    between atoms: C_21  and  C_22
REMARK                            x       y       z     vdW  Elec       q    Type
REMARK                         _______ _______ _______ _____ _____    ______ ____
ROOT
ATOM      1  C   UNL     1      49.519   7.712  13.509  0.00  0.00    +0.000 C 
ATOM      2  C   UNL     1      48.057   8.073  13.807  0.00  0.00    +0.000 C 
ENDROOT
BRANCH   2   3
ATOM      3  C   UNL     1      47.072   7.091  13.196  0.00  0.00    +0.000 A 
ATOM      4  C   UNL     1      47.172   5.715  13.471  0.00  0.00    +0.000 A 
ATOM      5  C   UNL     1      46.232   4.815  12.960  0.00  0.00    +0.000 A 
ATOM      6  C   UNL     1      45.178   5.278  12.170  0.00  0.00    +0.000 A 
ATOM      7  C   UNL     1      45.117   6.625  11.830  0.00  0.00    +0.000 A 
ATOM      8  C   UNL     1      46.052   7.521  12.338  0.00  0.00    +0.000 A 
BRANCH   6   9
ATOM      9  O   UNL     1      44.256   4.344  11.779  0.00  0.00    +0.000 OA
BRANCH   9  10
ATOM     10  C   UNL     1      43.772   4.520  10.440  0.00  0.00    +0.000 C 
BRANCH  10  11
ATOM     11  C   UNL     1      44.647   3.765   9.473  0.00  0.00    +0.000 A 
ATOM     12  C   UNL     1      45.441   4.470   8.570  0.00  0.00    +0.000 A 
ATOM     13  C   UNL     1      46.259   3.761   7.701  0.00  0.00    +0.000 A 
ATOM     14  C   UNL     1      46.272   2.373   7.764  0.00  0.00    +0.000 A 
ATOM     15  C   UNL     1      45.468   1.749   8.702  0.00  0.00    +0.000 A 
ATOM     16  N   UNL     1      44.664   2.411   9.561  0.00  0.00    +0.000 NA
ENDBRANCH  10  11
ENDBRANCH   9  10
ENDBRANCH   6   9
ENDBRANCH   2   3
BRANCH   2  17
ATOM     17  N   UNL     1      47.827   8.190  15.236  0.00  0.00    +0.000 N 
ATOM     18  C   UNL     1      48.354   9.230  15.960  0.00  0.00    +0.000 C 
ATOM     19  O   UNL     1      49.037  10.108  15.435  0.00  0.00    +0.000 OA
ATOM     20  H   UNL     1      47.419   7.395  15.717  0.00  0.00    +0.000 HD
BRANCH  18  21
ATOM     21  C   UNL     1      48.017   9.294  17.386  0.00  0.00    +0.000 A 
ATOM     22  C   UNL     1      47.737  10.525  17.964  0.00  0.00    +0.000 A 
ATOM     23  S   UNL     1      47.369  10.438  19.625  0.00  0.00    +0.000 S 
ATOM     24  C   UNL     1      47.618   8.756  19.643  0.00  0.00    +0.000 A 
ATOM     25  N   UNL     1      47.511   8.049  20.801  0.00  0.00    +0.000 NA
ATOM     26  C   UNL     1      47.766   6.788  20.679  0.00  0.00    +0.000 A 
ATOM     27  N   UNL     1      48.100   6.169  19.500  0.00  0.00    +0.000 N 
ATOM     28  C   UNL     1      48.164   6.833  18.298  0.00  0.00    +0.000 A 
ATOM     29  O   UNL     1      48.379   6.239  17.243  0.00  0.00    +0.000 OA
ATOM     30  C   UNL     1      47.933   8.262  18.389  0.00  0.00    +0.000 A 
ATOM     31  H   UNL     1      48.264   5.174  19.473  0.00  0.00    +0.000 HD
ENDBRANCH  18  21
ENDBRANCH   2  17
TORSDOF 6
ENDMDL
MODEL 9
REMARK VINA RESULT:    -7.254      3.013      4.045
REMARK INTER + INTRA:         -10.243
REMARK INTER:                  -9.733
REMARK INTRA:                  -0.509
REMARK UNBOUND:                -0.444
REMARK  Name = 
REMARK  7 active torsions:
REMARK  status: ('A' for Active; 'I' for Inactive)
REMARK    1  A    between atoms: C_1  and  C_2
REMARK    2  A    between atoms: C_2  and  N_3
REMARK    3  A    between atoms: C_2  and  C_16
REMARK    4  A    between atoms: C_4  and  C_6
REMARK    5  A    between atoms: C_19  and  O_20
REMARK    6  A    between atoms: O_20  and  C_21
REMARK    7  A    between atoms: C_21  and  C_22
REMARK                            x       y       z     vdW  Elec       q    Type
REMARK                         _______ _______ _______ _____ _____    ______ ____
ROOT
ATOM      1  C   UNL     1      45.467   8.914  12.305  0.00  0.00    +0.000 C 
ATOM      2  C   UNL     1      46.138   7.712  12.984  0.00  0.00    +0.000 C 
ENDROOT
BRANCH   2   3
ATOM      3  C   UNL     1      45.806   6.392  12.308  0.00  0.00    +0.000 A 
ATOM      4  C   UNL     1      45.939   5.179  13.008  0.00  0.00    +0.000 A 
ATOM      5  C   UNL     1      45.577   3.968  12.410  0.00  0.00    +0.000 A 
ATOM      6  C   UNL     1      45.075   3.954  11.108  0.00  0.00    +0.000 A 
ATOM      7  C   UNL     1      45.014   5.138  10.383  0.00  0.00    +0.000 A 
ATOM      8  C   UNL     1      45.374   6.344  10.978  0.00  0.00    +0.000 A 
BRANCH   6   9
ATOM      9  O   UNL     1      44.669   2.737  10.627  0.00  0.00    +0.000 OA
BRANCH   9  10
ATOM     10  C   UNL     1      44.282   2.749   9.246  0.00  0.00    +0.000 C 
BRANCH  10  11
ATOM     11  C   UNL     1      45.465   2.408   8.378  0.00  0.00    +0.000 A 
ATOM     12  C   UNL     1      46.027   3.391   7.565  0.00  0.00    +0.000 A 
ATOM     13  C   UNL     1      47.131   3.067   6.788  0.00  0.00    +0.000 A 
ATOM     14  C   UNL     1      47.649   1.780   6.850  0.00  0.00    +0.000 A 
ATOM     15  C   UNL     1      47.045   0.867   7.698  0.00  0.00    +0.000 A 
ATOM     16  N   UNL     1      45.972   1.152   8.466  0.00  0.00    +0.000 NA
ENDBRANCH  10  11
ENDBRANCH   9  10
ENDBRANCH   6   9
ENDBRANCH   2   3
BRANCH   2  17
ATOM     17  N   UNL     1      47.578   7.888  13.058  0.00  0.00    +0.000 N 
ATOM     18  C   UNL     1      48.168   8.483  14.146  0.00  0.00    +0.000 C 
ATOM     19  O   UNL     1      47.511   8.884  15.104  0.00  0.00    +0.000 OA
ATOM     20  H   UNL     1      48.119   7.727  12.215  0.00  0.00    +0.000 HD
BRANCH  18  21
ATOM     21  C   UNL     1      49.632   8.562  14.155  0.00  0.00    +0.000 A 
ATOM     22  C   UNL     1      50.290   8.878  15.336  0.00  0.00    +0.000 A 
ATOM     23  S   UNL     1      51.986   8.937  15.185  0.00  0.00    +0.000 S 
ATOM     24  C   UNL     1      51.900   8.592  13.522  0.00  0.00    +0.000 A 
ATOM     25  N   UNL     1      53.028   8.548  12.762  0.00  0.00    +0.000 NA
ATOM     26  C   UNL     1      52.816   8.317  11.509  0.00  0.00    +0.000 A 
ATOM     27  N   UNL     1      51.578   8.107  10.953  0.00  0.00    +0.000 N 
ATOM     28  C   UNL     1      50.419   8.086  11.691  0.00  0.00    +0.000 A 
ATOM     29  O   UNL     1      49.334   7.809  11.183  0.00  0.00    +0.000 OA
ATOM     30  C   UNL     1      50.598   8.389  13.098  0.00  0.00    +0.000 A 
ATOM     31  H   UNL     1      51.487   7.909   9.968  0.00  0.00    +0.000 HD
ENDBRANCH  18  21
ENDBRANCH   2  17
TORSDOF 6
ENDMDL
