MODEL 1
REMARK VINA RESULT:    -7.667      0.000      0.000
REMARK INTER + INTRA:         -11.421
REMARK INTER:                 -10.132
REMARK INTRA:                  -1.289
REMARK UNBOUND:                -1.289
REMARK  Name = 
REMARK  7 active torsions:
REMARK  status: ('A' for Active; 'I' for Inactive)
REMARK    1  A    between atoms: C_1  and  N_2
REMARK    2  A    between atoms: N_2  and  C_3
REMARK    3  A    between atoms: C_3  and  C_4
REMARK    4  A    between atoms: C_7  and  C_8
REMARK    5  A    between atoms: C_8  and  O_9
REMARK    6  A    between atoms: C_8  and  C_10
REMARK    7  A    between atoms: C_18  and  C_20
REMARK                            x       y       z     vdW  Elec       q    Type
REMARK                         _______ _______ _______ _____ _____    ______ ____
ROOT
ATOM      1  C   UNL     1      47.478   6.690  12.191  0.00  0.00    +0.000 C 
ENDROOT
BRANCH   1   2
ATOM      2  C   UNL     1      47.610   6.074  13.568  0.00  0.00    +0.000 A 
ATOM      3  C   UNL     1      48.458   6.658  14.521  0.00  0.00    +0.000 A 
ATOM      4  C   UNL     1      48.635   6.066  15.771  0.00  0.00    +0.000 A 
ATOM      5  C   UNL     1      47.975   4.871  16.100  0.00  0.00    +0.000 A 
ATOM      6  C   UNL     1      47.107   4.305  15.153  0.00  0.00    +0.000 A 
ATOM      7  C   UNL     1      46.921   4.902  13.901  0.00  0.00    +0.000 A 
BRANCH   5   8
ATOM      8  C   UNL     1      48.226   4.219  17.448  0.00  0.00    +0.000 C 
BRANCH   8   9
ATOM      9  C   UNL     1      49.498   3.404  17.571  0.00  0.00    +0.000 A 
ATOM     10  C   UNL     1      50.657   3.953  18.140  0.00  0.00    +0.000 A 
ATOM     11  C   UNL     1      51.843   3.226  18.162  0.00  0.00    +0.000 A 
ATOM     12  C   UNL     1      51.844   1.961  17.605  0.00  0.00    +0.000 A 
ATOM     13  N   UNL     1      50.758   1.391  17.043  0.00  0.00    +0.000 NA
ATOM     14  C   UNL     1      49.618   2.124  17.033  0.00  0.00    +0.000 A 
ENDBRANCH   8   9
BRANCH   8  15
ATOM     15  O   UNL     1      47.103   3.411  17.818  0.00  0.00    +0.000 OA
ATOM     16  H   UNL     1      47.393   2.784  18.500  0.00  0.00    +0.000 HD
ENDBRANCH   8  15
ENDBRANCH   5   8
ENDBRANCH   1   2
BRANCH   1  18
ATOM     17  C   UNL     1      46.436   8.936  12.712  0.00  0.00    +0.000 C 
ATOM     18  N   UNL     1      46.403   7.667  11.988  0.00  0.00    +0.000 N 
ATOM     19  C   UNL     1      45.160   7.353  11.399  0.00  0.00    +0.000 C 
ATOM     20  O   UNL     1      44.210   8.132  11.460  0.00  0.00    +0.000 OA
BRANCH  19  21
ATOM     21  C   UNL     1      44.969   6.060  10.720  0.00  0.00    +0.000 A 
ATOM     22  C   UNL     1      45.544   5.699   9.513  0.00  0.00    +0.000 A 
ATOM     23  S   UNL     1      45.195   4.097   9.034  0.00  0.00    +0.000 S 
ATOM     24  C   UNL     1      44.401   3.780  10.502  0.00  0.00    +0.000 A 
ATOM     25  N   UNL     1      43.945   2.531  10.794  0.00  0.00    +0.000 NA
ATOM     26  C   UNL     1      43.438   2.418  11.977  0.00  0.00    +0.000 A 
ATOM     27  N   UNL     1      43.324   3.446  12.882  0.00  0.00    +0.000 N 
ATOM     28  C   UNL     1      43.649   4.751  12.582  0.00  0.00    +0.000 A 
ATOM     29  O   UNL     1      43.325   5.670  13.326  0.00  0.00    +0.000 OA
ATOM     30  C   UNL     1      44.324   4.906  11.303  0.00  0.00    +0.000 A 
ATOM     31  H   UNL     1      42.866   3.297  13.768  0.00  0.00    +0.000 HD
ENDBRANCH  19  21
ENDBRANCH   1  18
TORSDOF 6
ENDMDL
MODEL 2
REMARK VINA RESULT:    -7.631      1.482      2.149
REMARK INTER + INTRA:         -11.375
REMARK INTER:                 -10.610
REMARK INTRA:                  -0.765
REMARK UNBOUND:                -1.289
REMARK  Name = 
REMARK  7 active torsions:
REMARK  status: ('A' for Active; 'I' for Inactive)
REMARK    1  A    between atoms: C_1  and  N_2
REMARK    2  A    between atoms: N_2  and  C_3
REMARK    3  A    between atoms: C_3  and  C_4
REMARK    4  A    between atoms: C_7  and  C_8
REMARK    5  A    between atoms: C_8  and  O_9
REMARK    6  A    between atoms: C_8  and  C_10
REMARK    7  A    between atoms: C_18  and  C_20
REMARK                            x       y       z     vdW  Elec       q    Type
REMARK                         _______ _______ _______ _____ _____    ______ ____
ROOT
ATOM      1  C   UNL     1      46.897   6.179  11.882  0.00  0.00    +0.000 C 
ENDROOT
BRANCH   1   2
ATOM      2  C   UNL     1      47.130   5.723  13.307  0.00  0.00    +0.000 A 
ATOM      3  C   UNL     1      47.949   6.478  14.161  0.00  0.00    +0.000 A 
ATOM      4  C   UNL     1      48.221   6.038  15.456  0.00  0.00    +0.000 A 
ATOM      5  C   UNL     1      47.687   4.829  15.930  0.00  0.00    +0.000 A 
ATOM      6  C   UNL     1      46.848   4.091  15.081  0.00  0.00    +0.000 A 
ATOM      7  C   UNL     1      46.567   4.535  13.784  0.00  0.00    +0.000 A 
BRANCH   5   8
ATOM      8  C   UNL     1      48.042   4.347  17.326  0.00  0.00    +0.000 C 
BRANCH   8   9
ATOM      9  C   UNL     1      49.317   3.537  17.450  0.00  0.00    +0.000 A 
ATOM     10  C   UNL     1      50.503   4.122  17.917  0.00  0.00    +0.000 A 
ATOM     11  C   UNL     1      51.688   3.393  17.938  0.00  0.00    +0.000 A 
ATOM     12  C   UNL     1      51.659   2.088  17.483  0.00  0.00    +0.000 A 
ATOM     13  N   UNL     1      50.546   1.481  17.022  0.00  0.00    +0.000 NA
ATOM     14  C   UNL     1      49.408   2.218  17.010  0.00  0.00    +0.000 A 
ENDBRANCH   8   9
BRANCH   8  15
ATOM     15  O   UNL     1      46.949   3.606  17.880  0.00  0.00    +0.000 OA
ATOM     16  H   UNL     1      46.374   4.225  18.357  0.00  0.00    +0.000 HD
ENDBRANCH   8  15
ENDBRANCH   5   8
ENDBRANCH   1   2
BRANCH   1  18
ATOM     17  C   UNL     1      45.664   8.388  11.849  0.00  0.00    +0.000 C 
ATOM     18  N   UNL     1      45.678   6.947  11.608  0.00  0.00    +0.000 N 
ATOM     19  C   UNL     1      44.405   6.361  11.441  0.00  0.00    +0.000 C 
ATOM     20  O   UNL     1      43.383   7.045  11.448  0.00  0.00    +0.000 OA
BRANCH  19  21
ATOM     21  C   UNL     1      44.276   4.903  11.283  0.00  0.00    +0.000 A 
ATOM     22  C   UNL     1      43.546   4.070  12.114  0.00  0.00    +0.000 A 
ATOM     23  S   UNL     1      43.526   2.437  11.611  0.00  0.00    +0.000 S 
ATOM     24  C   UNL     1      44.353   2.819  10.177  0.00  0.00    +0.000 A 
ATOM     25  N   UNL     1      44.570   1.873   9.223  0.00  0.00    +0.000 NA
ATOM     26  C   UNL     1      45.136   2.323   8.153  0.00  0.00    +0.000 A 
ATOM     27  N   UNL     1      45.526   3.628   7.962  0.00  0.00    +0.000 N 
ATOM     28  C   UNL     1      45.449   4.587   8.949  0.00  0.00    +0.000 A 
ATOM     29  O   UNL     1      46.010   5.669   8.822  0.00  0.00    +0.000 OA
ATOM     30  C   UNL     1      44.720   4.153  10.130  0.00  0.00    +0.000 A 
ATOM     31  H   UNL     1      46.014   3.896   7.121  0.00  0.00    +0.000 HD
ENDBRANCH  19  21
ENDBRANCH   1  18
TORSDOF 6
ENDMDL
MODEL 3
REMARK VINA RESULT:    -7.406      2.736      7.827
REMARK INTER + INTRA:         -11.077
REMARK INTER:                  -9.881
REMARK INTRA:                  -1.196
REMARK UNBOUND:                -1.289
REMARK  Name = 
REMARK  7 active torsions:
REMARK  status: ('A' for Active; 'I' for Inactive)
REMARK    1  A    between atoms: C_1  and  N_2
REMARK    2  A    between atoms: N_2  and  C_3
REMARK    3  A    between atoms: C_3  and  C_4
REMARK    4  A    between atoms: C_7  and  C_8
REMARK    5  A    between atoms: C_8  and  O_9
REMARK    6  A    between atoms: C_8  and  C_10
REMARK    7  A    between atoms: C_18  and  C_20
REMARK                            x       y       z     vdW  Elec       q    Type
REMARK                         _______ _______ _______ _____ _____    ______ ____
ROOT
ATOM      1  C   UNL     1      48.910   6.643  14.646  0.00  0.00    +0.000 C 
ENDROOT
BRANCH   1   2
ATOM      2  C   UNL     1      47.737   6.276  13.762  0.00  0.00    +0.000 A 
ATOM      3  C   UNL     1      47.139   5.012  13.878  0.00  0.00    +0.000 A 
ATOM      4  C   UNL     1      46.097   4.638  13.029  0.00  0.00    +0.000 A 
ATOM      5  C   UNL     1      45.631   5.515  12.037  0.00  0.00    +0.000 A 
ATOM      6  C   UNL     1      46.214   6.788  11.942  0.00  0.00    +0.000 A 
ATOM      7  C   UNL     1      47.253   7.168  12.799  0.00  0.00    +0.000 A 
BRANCH   5   8
ATOM      8  C   UNL     1      44.531   5.064  11.091  0.00  0.00    +0.000 C 
BRANCH   8   9
ATOM      9  C   UNL     1      44.973   4.253   9.890  0.00  0.00    +0.000 A 
ATOM     10  C   UNL     1      44.836   2.857   9.870  0.00  0.00    +0.000 A 
ATOM     11  C   UNL     1      45.331   2.116   8.800  0.00  0.00    +0.000 A 
ATOM     12  C   UNL     1      45.960   2.793   7.773  0.00  0.00    +0.000 A 
ATOM     13  N   UNL     1      46.120   4.132   7.747  0.00  0.00    +0.000 NA
ATOM     14  C   UNL     1      45.631   4.827   8.804  0.00  0.00    +0.000 A 
ENDBRANCH   8   9
BRANCH   8  15
ATOM     15  O   UNL     1      43.770   6.194  10.651  0.00  0.00    +0.000 OA
ATOM     16  H   UNL     1      44.369   6.802  10.188  0.00  0.00    +0.000 HD
ENDBRANCH   8  15
ENDBRANCH   5   8
ENDBRANCH   1   2
BRANCH   1  18
ATOM     17  C   UNL     1      48.763   8.893  15.794  0.00  0.00    +0.000 C 
ATOM     18  N   UNL     1      48.630   7.439  15.845  0.00  0.00    +0.000 N 
ATOM     19  C   UNL     1      48.558   6.896  17.146  0.00  0.00    +0.000 C 
ATOM     20  O   UNL     1      48.555   7.620  18.140  0.00  0.00    +0.000 OA
BRANCH  19  21
ATOM     21  C   UNL     1      48.514   5.437  17.337  0.00  0.00    +0.000 A 
ATOM     22  C   UNL     1      47.379   4.650  17.234  0.00  0.00    +0.000 A 
ATOM     23  S   UNL     1      47.676   2.979  17.427  0.00  0.00    +0.000 S 
ATOM     24  C   UNL     1      49.355   3.236  17.488  0.00  0.00    +0.000 A 
ATOM     25  N   UNL     1      50.220   2.187  17.536  0.00  0.00    +0.000 NA
ATOM     26  C   UNL     1      51.465   2.528  17.495  0.00  0.00    +0.000 A 
ATOM     27  N   UNL     1      51.921   3.824  17.435  0.00  0.00    +0.000 N 
ATOM     28  C   UNL     1      51.088   4.918  17.519  0.00  0.00    +0.000 A 
ATOM     29  O   UNL     1      51.540   6.044  17.690  0.00  0.00    +0.000 OA
ATOM     30  C   UNL     1      49.674   4.583  17.456  0.00  0.00    +0.000 A 
ATOM     31  H   UNL     1      52.911   4.018  17.462  0.00  0.00    +0.000 HD
ENDBRANCH  19  21
ENDBRANCH   1  18
TORSDOF 6
ENDMDL
MODEL 4
REMARK VINA RESULT:    -6.602      3.019      7.740
REMARK INTER + INTRA:         -10.014
REMARK INTER:                  -8.814
REMARK INTRA:                  -1.200
REMARK UNBOUND:                -1.289
REMARK  Name = 
REMARK  7 active torsions:
REMARK  status: ('A' for Active; 'I' for Inactive)
REMARK    1  A    between atoms: C_1  and  N_2
REMARK    2  A    between atoms: N_2  and  C_3
REMARK    3  A    between atoms: C_3  and  C_4
REMARK    4  A    between atoms: C_7  and  C_8
REMARK    5  A    between atoms: C_8  and  O_9
REMARK    6  A    between atoms: C_8  and  C_10
REMARK    7  A    between atoms: C_18  and  C_20
REMARK                            x       y       z     vdW  Elec       q    Type
REMARK                         _______ _______ _______ _____ _____    ______ ____
ROOT
ATOM      1  C   UNL     1      49.089   7.503  14.560  0.00  0.00    +0.000 C 
ENDROOT
BRANCH   1   2
ATOM      2  C   UNL     1      47.991   6.937  13.684  0.00  0.00    +0.000 A 
ATOM      3  C   UNL     1      47.386   7.743  12.708  0.00  0.00    +0.000 A 
ATOM      4  C   UNL     1      46.332   7.254  11.936  0.00  0.00    +0.000 A 
ATOM      5  C   UNL     1      45.851   5.948  12.124  0.00  0.00    +0.000 A 
ATOM      6  C   UNL     1      46.478   5.137  13.083  0.00  0.00    +0.000 A 
ATOM      7  C   UNL     1      47.540   5.623  13.852  0.00  0.00    +0.000 A 
BRANCH   5   8
ATOM      8  C   UNL     1      44.669   5.457  11.307  0.00  0.00    +0.000 C 
BRANCH   8   9
ATOM      9  C   UNL     1      45.000   4.610  10.094  0.00  0.00    +0.000 A 
ATOM     10  C   UNL     1      44.698   3.240  10.064  0.00  0.00    +0.000 A 
ATOM     11  C   UNL     1      45.090   2.456   8.984  0.00  0.00    +0.000 A 
ATOM     12  C   UNL     1      45.785   3.063   7.956  0.00  0.00    +0.000 A 
ATOM     13  N   UNL     1      46.103   4.374   7.939  0.00  0.00    +0.000 NA
ATOM     14  C   UNL     1      45.711   5.112   9.006  0.00  0.00    +0.000 A 
ENDBRANCH   8   9
BRANCH   8  15
ATOM     15  O   UNL     1      43.856   6.566  10.908  0.00  0.00    +0.000 OA
ATOM     16  H   UNL     1      43.330   6.847  11.673  0.00  0.00    +0.000 HD
ENDBRANCH   8  15
ENDBRANCH   5   8
ENDBRANCH   1   2
BRANCH   1  18
ATOM     17  C   UNL     1      47.837   9.198  15.960  0.00  0.00    +0.000 C 
ATOM     18  N   UNL     1      48.704   8.025  15.875  0.00  0.00    +0.000 N 
ATOM     19  C   UNL     1      49.365   7.688  17.075  0.00  0.00    +0.000 C 
ATOM     20  O   UNL     1      49.166   8.319  18.112  0.00  0.00    +0.000 OA
BRANCH  19  21
ATOM     21  C   UNL     1      50.337   6.582  17.100  0.00  0.00    +0.000 A 
ATOM     22  C   UNL     1      51.712   6.728  17.176  0.00  0.00    +0.000 A 
ATOM     23  S   UNL     1      52.559   5.247  17.272  0.00  0.00    +0.000 S 
ATOM     24  C   UNL     1      51.108   4.369  17.383  0.00  0.00    +0.000 A 
ATOM     25  N   UNL     1      51.119   3.026  17.599  0.00  0.00    +0.000 NA
ATOM     26  C   UNL     1      49.947   2.505  17.744  0.00  0.00    +0.000 A 
ATOM     27  N   UNL     1      48.764   3.203  17.667  0.00  0.00    +0.000 N 
ATOM     28  C   UNL     1      48.699   4.534  17.318  0.00  0.00    +0.000 A 
ATOM     29  O   UNL     1      47.628   5.062  17.039  0.00  0.00    +0.000 OA
ATOM     30  C   UNL     1      49.997   5.186  17.254  0.00  0.00    +0.000 A 
ATOM     31  H   UNL     1      47.881   2.719  17.735  0.00  0.00    +0.000 HD
ENDBRANCH  19  21
ENDBRANCH   1  18
TORSDOF 6
ENDMDL
MODEL 5
REMARK VINA RESULT:    -6.223      3.009      7.502
REMARK INTER + INTRA:          -9.513
REMARK INTER:                  -7.953
REMARK INTRA:                  -1.560
REMARK UNBOUND:                -1.289
REMARK  Name = 
REMARK  7 active torsions:
REMARK  status: ('A' for Active; 'I' for Inactive)
REMARK    1  A    between atoms: C_1  and  N_2
REMARK    2  A    between atoms: N_2  and  C_3
REMARK    3  A    between atoms: C_3  and  C_4
REMARK    4  A    between atoms: C_7  and  C_8
REMARK    5  A    between atoms: C_8  and  O_9
REMARK    6  A    between atoms: C_8  and  C_10
REMARK    7  A    between atoms: C_18  and  C_20
REMARK                            x       y       z     vdW  Elec       q    Type
REMARK                         _______ _______ _______ _____ _____    ______ ____
ROOT
ATOM      1  C   UNL     1      49.205   8.396  15.829  0.00  0.00    +0.000 C 
ENDROOT
BRANCH   1   2
ATOM      2  C   UNL     1      48.265   7.923  14.740  0.00  0.00    +0.000 A 
ATOM      3  C   UNL     1      48.238   6.568  14.376  0.00  0.00    +0.000 A 
ATOM      4  C   UNL     1      47.421   6.129  13.334  0.00  0.00    +0.000 A 
ATOM      5  C   UNL     1      46.616   7.034  12.624  0.00  0.00    +0.000 A 
ATOM      6  C   UNL     1      46.626   8.383  13.009  0.00  0.00    +0.000 A 
ATOM      7  C   UNL     1      47.439   8.824  14.060  0.00  0.00    +0.000 A 
BRANCH   5   8
ATOM      8  C   UNL     1      45.775   6.538  11.460  0.00  0.00    +0.000 C 
BRANCH   8   9
ATOM      9  C   UNL     1      44.903   5.329  11.731  0.00  0.00    +0.000 A 
ATOM     10  C   UNL     1      44.090   5.266  12.873  0.00  0.00    +0.000 A 
ATOM     11  C   UNL     1      43.365   4.113  13.159  0.00  0.00    +0.000 A 
ATOM     12  C   UNL     1      43.477   3.041  12.293  0.00  0.00    +0.000 A 
ATOM     13  N   UNL     1      44.246   3.051  11.186  0.00  0.00    +0.000 NA
ATOM     14  C   UNL     1      44.943   4.187  10.935  0.00  0.00    +0.000 A 
ENDBRANCH   8   9
BRANCH   8  15
ATOM     15  O   UNL     1      46.612   6.279  10.327  0.00  0.00    +0.000 OA
ATOM     16  H   UNL     1      47.353   6.905  10.348  0.00  0.00    +0.000 HD
ENDBRANCH   8  15
ENDBRANCH   5   8
ENDBRANCH   1   2
BRANCH   1  18
ATOM     17  C   UNL     1      47.880   9.453  17.706  0.00  0.00    +0.000 C 
ATOM     18  N   UNL     1      48.713   8.361  17.210  0.00  0.00    +0.000 N 
ATOM     19  C   UNL     1      49.247   7.520  18.209  0.00  0.00    +0.000 C 
ATOM     20  O   UNL     1      48.970   7.685  19.396  0.00  0.00    +0.000 OA
BRANCH  19  21
ATOM     21  C   UNL     1      50.177   6.437  17.847  0.00  0.00    +0.000 A 
ATOM     22  C   UNL     1      51.559   6.519  17.899  0.00  0.00    +0.000 A 
ATOM     23  S   UNL     1      52.352   5.061  17.496  0.00  0.00    +0.000 S 
ATOM     24  C   UNL     1      50.875   4.227  17.399  0.00  0.00    +0.000 A 
ATOM     25  N   UNL     1      50.845   2.883  17.191  0.00  0.00    +0.000 NA
ATOM     26  C   UNL     1      49.659   2.371  17.223  0.00  0.00    +0.000 A 
ATOM     27  N   UNL     1      48.502   3.086  17.421  0.00  0.00    +0.000 N 
ATOM     28  C   UNL     1      48.473   4.462  17.502  0.00  0.00    +0.000 A 
ATOM     29  O   UNL     1      47.413   5.075  17.449  0.00  0.00    +0.000 OA
ATOM     30  C   UNL     1      49.792   5.070  17.580  0.00  0.00    +0.000 A 
ATOM     31  H   UNL     1      47.605   2.627  17.378  0.00  0.00    +0.000 HD
ENDBRANCH  19  21
ENDBRANCH   1  18
TORSDOF 6
ENDMDL
MODEL 6
REMARK VINA RESULT:    -6.196      3.112      8.690
REMARK INTER + INTRA:          -9.478
REMARK INTER:                  -9.030
REMARK INTRA:                  -0.448
REMARK UNBOUND:                -1.289
REMARK  Name = 
REMARK  7 active torsions:
REMARK  status: ('A' for Active; 'I' for Inactive)
REMARK    1  A    between atoms: C_1  and  N_2
REMARK    2  A    between atoms: N_2  and  C_3
REMARK    3  A    between atoms: C_3  and  C_4
REMARK    4  A    between atoms: C_7  and  C_8
REMARK    5  A    between atoms: C_8  and  O_9
REMARK    6  A    between atoms: C_8  and  C_10
REMARK    7  A    between atoms: C_18  and  C_20
REMARK                            x       y       z     vdW  Elec       q    Type
REMARK                         _______ _______ _______ _____ _____    ______ ____
ROOT
ATOM      1  C   UNL     1      48.459   5.384  15.571  0.00  0.00    +0.000 C 
ENDROOT
BRANCH   1   2
ATOM      2  C   UNL     1      47.517   5.229  14.396  0.00  0.00    +0.000 A 
ATOM      3  C   UNL     1      47.094   6.359  13.681  0.00  0.00    +0.000 A 
ATOM      4  C   UNL     1      46.179   6.237  12.636  0.00  0.00    +0.000 A 
ATOM      5  C   UNL     1      45.657   4.982  12.282  0.00  0.00    +0.000 A 
ATOM      6  C   UNL     1      46.104   3.851  12.982  0.00  0.00    +0.000 A 
ATOM      7  C   UNL     1      47.028   3.971  14.026  0.00  0.00    +0.000 A 
BRANCH   5   8
ATOM      8  C   UNL     1      44.623   4.883  11.174  0.00  0.00    +0.000 C 
BRANCH   8   9
ATOM      9  C   UNL     1      45.073   4.201   9.898  0.00  0.00    +0.000 A 
ATOM     10  C   UNL     1      44.970   2.810   9.745  0.00  0.00    +0.000 A 
ATOM     11  C   UNL     1      45.472   2.186   8.607  0.00  0.00    +0.000 A 
ATOM     12  C   UNL     1      46.075   2.973   7.645  0.00  0.00    +0.000 A 
ATOM     13  N   UNL     1      46.203   4.312   7.746  0.00  0.00    +0.000 NA
ATOM     14  C   UNL     1      45.707   4.891   8.867  0.00  0.00    +0.000 A 
ENDBRANCH   8   9
BRANCH   8  15
ATOM     15  O   UNL     1      44.110   6.183  10.865  0.00  0.00    +0.000 OA
ATOM     16  H   UNL     1      44.713   6.844  11.240  0.00  0.00    +0.000 HD
ENDBRANCH   8  15
ENDBRANCH   5   8
ENDBRANCH   1   2
BRANCH   1  18
ATOM     17  C   UNL     1      46.772   4.269  17.092  0.00  0.00    +0.000 C 
ATOM     18  N   UNL     1      48.157   4.619  16.786  0.00  0.00    +0.000 N 
ATOM     19  C   UNL     1      49.058   4.471  17.861  0.00  0.00    +0.000 C 
ATOM     20  O   UNL     1      48.688   4.027  18.947  0.00  0.00    +0.000 OA
BRANCH  19  21
ATOM     21  C   UNL     1      50.465   4.877  17.709  0.00  0.00    +0.000 A 
ATOM     22  C   UNL     1      50.938   6.175  17.807  0.00  0.00    +0.000 A 
ATOM     23  S   UNL     1      52.636   6.304  17.667  0.00  0.00    +0.000 S 
ATOM     24  C   UNL     1      52.810   4.614  17.637  0.00  0.00    +0.000 A 
ATOM     25  N   UNL     1      54.044   4.039  17.637  0.00  0.00    +0.000 NA
ATOM     26  C   UNL     1      54.025   2.749  17.698  0.00  0.00    +0.000 A 
ATOM     27  N   UNL     1      52.883   1.983  17.733  0.00  0.00    +0.000 N 
ATOM     28  C   UNL     1      51.618   2.513  17.600  0.00  0.00    +0.000 A 
ATOM     29  O   UNL     1      50.647   1.790  17.410  0.00  0.00    +0.000 OA
ATOM     30  C   UNL     1      51.587   3.967  17.640  0.00  0.00    +0.000 A 
ATOM     31  H   UNL     1      52.944   0.977  17.724  0.00  0.00    +0.000 HD
ENDBRANCH  19  21
ENDBRANCH   1  18
TORSDOF 6
ENDMDL
MODEL 7
REMARK VINA RESULT:    -6.153      3.784      7.651
REMARK INTER + INTRA:          -9.421
REMARK INTER:                  -7.740
REMARK INTRA:                  -1.680
REMARK UNBOUND:                -1.289
REMARK  Name = 
REMARK  7 active torsions:
REMARK  status: ('A' for Active; 'I' for Inactive)
REMARK    1  A    between atoms: C_1  and  N_2
REMARK    2  A    between atoms: N_2  and  C_3
REMARK    3  A    between atoms: C_3  and  C_4
REMARK    4  A    between atoms: C_7  and  C_8
REMARK    5  A    between atoms: C_8  and  O_9
REMARK    6  A    between atoms: C_8  and  C_10
REMARK    7  A    between atoms: C_18  and  C_20
REMARK                            x       y       z     vdW  Elec       q    Type
REMARK                         _______ _______ _______ _____ _____    ______ ____
ROOT
ATOM      1  C   UNL     1      50.404   8.224  12.885  0.00  0.00    +0.000 C 
ENDROOT
BRANCH   1   2
ATOM      2  C   UNL     1      48.964   7.770  12.770  0.00  0.00    +0.000 A 
ATOM      3  C   UNL     1      48.590   6.495  13.220  0.00  0.00    +0.000 A 
ATOM      4  C   UNL     1      47.281   6.042  13.064  0.00  0.00    +0.000 A 
ATOM      5  C   UNL     1      46.311   6.849  12.447  0.00  0.00    +0.000 A 
ATOM      6  C   UNL     1      46.682   8.134  12.022  0.00  0.00    +0.000 A 
ATOM      7  C   UNL     1      47.994   8.593  12.186  0.00  0.00    +0.000 A 
BRANCH   5   8
ATOM      8  C   UNL     1      44.905   6.311  12.242  0.00  0.00    +0.000 C 
BRANCH   8   9
ATOM      9  C   UNL     1      44.764   5.165  11.261  0.00  0.00    +0.000 A 
ATOM     10  C   UNL     1      45.393   5.204  10.007  0.00  0.00    +0.000 A 
ATOM     11  C   UNL     1      45.180   4.188   9.080  0.00  0.00    +0.000 A 
ATOM     12  C   UNL     1      44.333   3.153   9.429  0.00  0.00    +0.000 A 
ATOM     13  N   UNL     1      43.704   3.071  10.619  0.00  0.00    +0.000 NA
ATOM     14  C   UNL     1      43.927   4.077  11.500  0.00  0.00    +0.000 A 
ENDBRANCH   8   9
BRANCH   8  15
ATOM     15  O   UNL     1      44.025   7.375  11.864  0.00  0.00    +0.000 OA
ATOM     16  H   UNL     1      44.538   8.197  11.835  0.00  0.00    +0.000 HD
ENDBRANCH   8  15
ENDBRANCH   5   8
ENDBRANCH   1   2
BRANCH   1  18
ATOM     17  C   UNL     1      50.845  10.712  13.012  0.00  0.00    +0.000 C 
ATOM     18  N   UNL     1      50.672   9.425  13.683  0.00  0.00    +0.000 N 
ATOM     19  C   UNL     1      51.105   9.394  15.025  0.00  0.00    +0.000 C 
ATOM     20  O   UNL     1      51.540  10.401  15.579  0.00  0.00    +0.000 OA
BRANCH  19  21
ATOM     21  C   UNL     1      51.070   8.132  15.784  0.00  0.00    +0.000 A 
ATOM     22  C   UNL     1      52.159   7.307  16.014  0.00  0.00    +0.000 A 
ATOM     23  S   UNL     1      51.806   5.960  17.004  0.00  0.00    +0.000 S 
ATOM     24  C   UNL     1      50.230   6.524  17.294  0.00  0.00    +0.000 A 
ATOM     25  N   UNL     1      49.408   5.882  18.168  0.00  0.00    +0.000 NA
ATOM     26  C   UNL     1      48.272   6.467  18.351  0.00  0.00    +0.000 A 
ATOM     27  N   UNL     1      47.875   7.624  17.721  0.00  0.00    +0.000 N 
ATOM     28  C   UNL     1      48.618   8.233  16.732  0.00  0.00    +0.000 A 
ATOM     29  O   UNL     1      48.137   9.122  16.039  0.00  0.00    +0.000 OA
ATOM     30  C   UNL     1      49.949   7.671  16.571  0.00  0.00    +0.000 A 
ATOM     31  H   UNL     1      46.950   7.995  17.872  0.00  0.00    +0.000 HD
ENDBRANCH  19  21
ENDBRANCH   1  18
TORSDOF 6
ENDMDL
MODEL 8
REMARK VINA RESULT:    -6.101      2.660      7.636
REMARK INTER + INTRA:          -9.352
REMARK INTER:                  -8.356
REMARK INTRA:                  -0.996
REMARK UNBOUND:                -1.289
REMARK  Name = 
REMARK  7 active torsions:
REMARK  status: ('A' for Active; 'I' for Inactive)
REMARK    1  A    between atoms: C_1  and  N_2
REMARK    2  A    between atoms: N_2  and  C_3
REMARK    3  A    between atoms: C_3  and  C_4
REMARK    4  A    between atoms: C_7  and  C_8
REMARK    5  A    between atoms: C_8  and  O_9
REMARK    6  A    between atoms: C_8  and  C_10
REMARK    7  A    between atoms: C_18  and  C_20
REMARK                            x       y       z     vdW  Elec       q    Type
REMARK                         _______ _______ _______ _____ _____    ______ ____
ROOT
ATOM      1  C   UNL     1      49.613   7.059  15.984  0.00  0.00    +0.000 C 
ENDROOT
BRANCH   1   2
ATOM      2  C   UNL     1      48.537   6.873  14.935  0.00  0.00    +0.000 A 
ATOM      3  C   UNL     1      48.131   5.582  14.565  0.00  0.00    +0.000 A 
ATOM      4  C   UNL     1      47.184   5.396  13.558  0.00  0.00    +0.000 A 
ATOM      5  C   UNL     1      46.624   6.496  12.888  0.00  0.00    +0.000 A 
ATOM      6  C   UNL     1      47.013   7.786  13.280  0.00  0.00    +0.000 A 
ATOM      7  C   UNL     1      47.956   7.975  14.296  0.00  0.00    +0.000 A 
BRANCH   5   8
ATOM      8  C   UNL     1      45.635   6.264  11.759  0.00  0.00    +0.000 C 
BRANCH   8   9
ATOM      9  C   UNL     1      44.893   4.943  11.780  0.00  0.00    +0.000 A 
ATOM     10  C   UNL     1      44.818   4.137  10.634  0.00  0.00    +0.000 A 
ATOM     11  C   UNL     1      44.057   2.972  10.641  0.00  0.00    +0.000 A 
ATOM     12  C   UNL     1      43.379   2.642  11.800  0.00  0.00    +0.000 A 
ATOM     13  N   UNL     1      43.417   3.384  12.925  0.00  0.00    +0.000 NA
ATOM     14  C   UNL     1      44.163   4.515  12.887  0.00  0.00    +0.000 A 
ENDBRANCH   8   9
BRANCH   8  15
ATOM     15  O   UNL     1      46.288   6.425  10.495  0.00  0.00    +0.000 OA
ATOM     16  H   UNL     1      46.253   7.365  10.253  0.00  0.00    +0.000 HD
ENDBRANCH   8  15
ENDBRANCH   5   8
ENDBRANCH   1   2
BRANCH   1  18
ATOM     17  C   UNL     1      49.489   8.869  17.746  0.00  0.00    +0.000 C 
ATOM     18  N   UNL     1      49.190   7.506  17.315  0.00  0.00    +0.000 N 
ATOM     19  C   UNL     1      48.804   6.627  18.350  0.00  0.00    +0.000 C 
ATOM     20  O   UNL     1      48.685   7.021  19.508  0.00  0.00    +0.000 OA
BRANCH  19  21
ATOM     21  C   UNL     1      48.565   5.204  18.061  0.00  0.00    +0.000 A 
ATOM     22  C   UNL     1      47.341   4.652  17.718  0.00  0.00    +0.000 A 
ATOM     23  S   UNL     1      47.412   2.983  17.360  0.00  0.00    +0.000 S 
ATOM     24  C   UNL     1      49.106   2.978  17.489  0.00  0.00    +0.000 A 
ATOM     25  N   UNL     1      49.826   1.862  17.191  0.00  0.00    +0.000 NA
ATOM     26  C   UNL     1      51.106   2.027  17.254  0.00  0.00    +0.000 A 
ATOM     27  N   UNL     1      51.728   3.201  17.611  0.00  0.00    +0.000 N 
ATOM     28  C   UNL     1      51.041   4.312  18.049  0.00  0.00    +0.000 A 
ATOM     29  O   UNL     1      51.629   5.253  18.570  0.00  0.00    +0.000 OA
ATOM     30  C   UNL     1      49.599   4.208  17.891  0.00  0.00    +0.000 A 
ATOM     31  H   UNL     1      52.732   3.241  17.692  0.00  0.00    +0.000 HD
ENDBRANCH  19  21
ENDBRANCH   1  18
TORSDOF 6
ENDMDL
MODEL 9
REMARK VINA RESULT:    -6.090      4.264      8.146
REMARK INTER + INTRA:          -9.337
REMARK INTER:                  -8.176
REMARK INTRA:                  -1.161
REMARK UNBOUND:                -1.289
REMARK  Name = 
REMARK  7 active torsions:
REMARK  status: ('A' for Active; 'I' for Inactive)
REMARK    1  A    between atoms: C_1  and  N_2
REMARK    2  A    between atoms: N_2  and  C_3
REMARK    3  A    between atoms: C_3  and  C_4
REMARK    4  A    between atoms: C_7  and  C_8
REMARK    5  A    between atoms: C_8  and  O_9
REMARK    6  A    between atoms: C_8  and  C_10
REMARK    7  A    between atoms: C_18  and  C_20
REMARK                            x       y       z     vdW  Elec       q    Type
REMARK                         _______ _______ _______ _____ _____    ______ ____
ROOT
ATOM      1  C   UNL     1      49.172   7.035  14.377  0.00  0.00    +0.000 C 
ENDROOT
BRANCH   1   2
ATOM      2  C   UNL     1      48.043   6.479  13.535  0.00  0.00    +0.000 A 
ATOM      3  C   UNL     1      47.745   7.056  12.291  0.00  0.00    +0.000 A 
ATOM      4  C   UNL     1      46.669   6.593  11.533  0.00  0.00    +0.000 A 
ATOM      5  C   UNL     1      45.860   5.545  12.001  0.00  0.00    +0.000 A 
ATOM      6  C   UNL     1      46.178   4.954  13.233  0.00  0.00    +0.000 A 
ATOM      7  C   UNL     1      47.262   5.411  13.991  0.00  0.00    +0.000 A 
BRANCH   5   8
ATOM      8  C   UNL     1      44.663   5.095  11.181  0.00  0.00    +0.000 C 
BRANCH   8   9
ATOM      9  C   UNL     1      44.967   4.225   9.978  0.00  0.00    +0.000 A 
ATOM     10  C   UNL     1      44.789   2.834  10.028  0.00  0.00    +0.000 A 
ATOM     11  C   UNL     1      45.159   2.037   8.949  0.00  0.00    +0.000 A 
ATOM     12  C   UNL     1      45.709   2.653   7.841  0.00  0.00    +0.000 A 
ATOM     13  N   UNL     1      45.904   3.984   7.745  0.00  0.00    +0.000 NA
ATOM     14  C   UNL     1      45.537   4.735   8.813  0.00  0.00    +0.000 A 
ENDBRANCH   8   9
BRANCH   8  15
ATOM     15  O   UNL     1      43.898   6.232  10.766  0.00  0.00    +0.000 OA
ATOM     16  H   UNL     1      44.382   6.680  10.055  0.00  0.00    +0.000 HD
ENDBRANCH   8  15
ENDBRANCH   5   8
ENDBRANCH   1   2
BRANCH   1  18
ATOM     17  C   UNL     1      48.145   9.061  15.492  0.00  0.00    +0.000 C 
ATOM     18  N   UNL     1      49.176   8.478  14.635  0.00  0.00    +0.000 N 
ATOM     19  C   UNL     1      49.899   9.410  13.860  0.00  0.00    +0.000 C 
ATOM     20  O   UNL     1      49.693  10.618  13.960  0.00  0.00    +0.000 OA
BRANCH  19  21
ATOM     21  C   UNL     1      50.902   8.944  12.888  0.00  0.00    +0.000 A 
ATOM     22  C   UNL     1      50.755   8.973  11.511  0.00  0.00    +0.000 A 
ATOM     23  S   UNL     1      52.136   8.440  10.659  0.00  0.00    +0.000 S 
ATOM     24  C   UNL     1      53.033   8.309  12.096  0.00  0.00    +0.000 A 
ATOM     25  N   UNL     1      54.357   7.997  12.067  0.00  0.00    +0.000 NA
ATOM     26  C   UNL     1      54.929   8.013  13.225  0.00  0.00    +0.000 A 
ATOM     27  N   UNL     1      54.289   8.291  14.410  0.00  0.00    +0.000 N 
ATOM     28  C   UNL     1      52.928   8.480  14.503  0.00  0.00    +0.000 A 
ATOM     29  O   UNL     1      52.366   8.499  15.592  0.00  0.00    +0.000 OA
ATOM     30  C   UNL     1      52.262   8.578  13.214  0.00  0.00    +0.000 A 
ATOM     31  H   UNL     1      54.789   8.231  15.285  0.00  0.00    +0.000 HD
ENDBRANCH  19  21
ENDBRANCH   1  18
TORSDOF 6
ENDMDL
