MODEL 1
REMARK VINA RESULT:    -8.883      0.000      0.000
REMARK INTER + INTRA:         -14.457
REMARK INTER:                 -13.037
REMARK INTRA:                  -1.420
REMARK UNBOUND:                -1.420
REMARK  Name = 
REMARK  10 active torsions:
REMARK  status: ('A' for Active; 'I' for Inactive)
REMARK    1  A    between atoms: C_1  and  O_2
REMARK    2  A    between atoms: O_2  and  C_3
REMARK    3  A    between atoms: C_10  and  C_11
REMARK    4  A    between atoms: N_13  and  C_14
REMARK    5  A    between atoms: C_14  and  C_15
REMARK    6  A    between atoms: C_18  and  C_19
REMARK    7  A    between atoms: C_19  and  C_20
REMARK    8  A    between atoms: C_19  and  N_21
REMARK    9  A    between atoms: N_21  and  C_22
REMARK   10  A    between atoms: C_22  and  C_23
REMARK                            x       y       z     vdW  Elec       q    Type
REMARK                         _______ _______ _______ _____ _____    ______ ____
ROOT
ATOM      1  C   UNL     1      46.330   7.543  12.434  0.00  0.00    +0.000 A 
ATOM      2  C   UNL     1      46.824   6.657  11.470  0.00  0.00    +0.000 A 
ATOM      3  C   UNL     1      45.955   5.835  10.737  0.00  0.00    +0.000 A 
ATOM      4  C   UNL     1      44.567   5.872  10.946  0.00  0.00    +0.000 A 
ATOM      5  C   UNL     1      44.078   6.852  11.831  0.00  0.00    +0.000 A 
ATOM      6  C   UNL     1      44.944   7.670  12.567  0.00  0.00    +0.000 A 
ENDROOT
BRANCH   4   7
ATOM      7  C   UNL     1      43.590   4.868  10.305  0.00  0.00    +0.000 C 
ATOM      8  C   UNL     1      43.271   3.761  11.329  0.00  0.00    +0.000 C 
BRANCH   7   9
ATOM      9  N   UNL     1      44.114   4.290   9.052  0.00  0.00    +0.000 NA
ATOM     10  H   UNL     1      44.945   4.814   8.777  0.00  0.00    +0.000 HD
BRANCH   9  11
ATOM     11  C   UNL     1      44.518   2.878   9.170  0.00  0.00    +0.000 C 
BRANCH  11  12
ATOM     12  C   UNL     1      45.613   2.507   8.184  0.00  0.00    +0.000 A 
ATOM     13  C   UNL     1      46.028   3.419   7.217  0.00  0.00    +0.000 A 
ATOM     14  C   UNL     1      47.040   3.050   6.335  0.00  0.00    +0.000 A 
ATOM     15  C   UNL     1      47.607   1.785   6.437  0.00  0.00    +0.000 A 
ATOM     16  C   UNL     1      47.138   0.938   7.425  0.00  0.00    +0.000 A 
ATOM     17  N   UNL     1      46.161   1.268   8.298  0.00  0.00    +0.000 NA
ENDBRANCH  11  12
ENDBRANCH   9  11
ENDBRANCH   7   9
ENDBRANCH   4   7
BRANCH   1  18
ATOM     18  C   UNL     1      47.260   8.320  13.328  0.00  0.00    +0.000 C 
BRANCH  18  21
ATOM     19  C   UNL     1      48.745   6.885  14.632  0.00  0.00    +0.000 C 
ATOM     20  O   UNL     1      49.523   6.803  13.683  0.00  0.00    +0.000 OA
ATOM     21  N   UNL     1      47.591   7.614  14.537  0.00  0.00    +0.000 N 
ATOM     22  H   UNL     1      46.963   7.697  15.329  0.00  0.00    +0.000 HD
BRANCH  19  30
ATOM     23  C   UNL     1      47.278   4.243  16.300  0.00  0.00    +0.000 A 
ATOM     24  N   UNL     1      46.898   3.279  17.164  0.00  0.00    +0.000 NA
ATOM     25  C   UNL     1      47.605   3.121  18.285  0.00  0.00    +0.000 A 
ATOM     26  N   UNL     1      48.671   3.821  18.660  0.00  0.00    +0.000 NA
ATOM     27  C   UNL     1      49.007   4.781  17.780  0.00  0.00    +0.000 A 
ATOM     28  S   UNL     1      50.348   5.768  18.101  0.00  0.00    +0.000 S 
ATOM     29  C   UNL     1      50.117   6.629  16.655  0.00  0.00    +0.000 A 
ATOM     30  C   UNL     1      49.032   6.196  15.906  0.00  0.00    +0.000 A 
ATOM     31  C   UNL     1      48.371   5.081  16.578  0.00  0.00    +0.000 A 
BRANCH  23  33
ATOM     32  C   UNL     1      47.118   3.672  14.046  0.00  0.00    +0.000 C 
ATOM     33  O   UNL     1      46.547   4.391  15.138  0.00  0.00    +0.000 OA
ENDBRANCH  23  33
ENDBRANCH  19  30
ENDBRANCH  18  21
ENDBRANCH   1  18
TORSDOF 8
ENDMDL
MODEL 2
REMARK VINA RESULT:    -8.548      1.524      1.856
REMARK INTER + INTRA:         -13.966
REMARK INTER:                 -12.602
REMARK INTRA:                  -1.364
REMARK UNBOUND:                -1.420
REMARK  Name = 
REMARK  10 active torsions:
REMARK  status: ('A' for Active; 'I' for Inactive)
REMARK    1  A    between atoms: C_1  and  O_2
REMARK    2  A    between atoms: O_2  and  C_3
REMARK    3  A    between atoms: C_10  and  C_11
REMARK    4  A    between atoms: N_13  and  C_14
REMARK    5  A    between atoms: C_14  and  C_15
REMARK    6  A    between atoms: C_18  and  C_19
REMARK    7  A    between atoms: C_19  and  C_20
REMARK    8  A    between atoms: C_19  and  N_21
REMARK    9  A    between atoms: N_21  and  C_22
REMARK   10  A    between atoms: C_22  and  C_23
REMARK                            x       y       z     vdW  Elec       q    Type
REMARK                         _______ _______ _______ _____ _____    ______ ____
ROOT
ATOM      1  C   UNL     1      46.996   6.395  12.702  0.00  0.00    +0.000 A 
ATOM      2  C   UNL     1      46.472   5.312  13.416  0.00  0.00    +0.000 A 
ATOM      3  C   UNL     1      45.449   4.520  12.873  0.00  0.00    +0.000 A 
ATOM      4  C   UNL     1      44.918   4.788  11.601  0.00  0.00    +0.000 A 
ATOM      5  C   UNL     1      45.538   5.805  10.848  0.00  0.00    +0.000 A 
ATOM      6  C   UNL     1      46.555   6.599  11.391  0.00  0.00    +0.000 A 
ENDROOT
BRANCH   4   7
ATOM      7  C   UNL     1      43.678   4.070  11.035  0.00  0.00    +0.000 C 
ATOM      8  C   UNL     1      43.354   2.857  11.930  0.00  0.00    +0.000 C 
BRANCH   7   9
ATOM      9  N   UNL     1      43.858   3.652   9.631  0.00  0.00    +0.000 NA
ATOM     10  H   UNL     1      44.457   4.334   9.165  0.00  0.00    +0.000 HD
BRANCH   9  11
ATOM     11  C   UNL     1      44.504   2.337   9.477  0.00  0.00    +0.000 C 
BRANCH  11  12
ATOM     12  C   UNL     1      45.576   2.345   8.401  0.00  0.00    +0.000 A 
ATOM     13  C   UNL     1      45.791   3.483   7.627  0.00  0.00    +0.000 A 
ATOM     14  C   UNL     1      46.787   3.458   6.655  0.00  0.00    +0.000 A 
ATOM     15  C   UNL     1      47.538   2.302   6.477  0.00  0.00    +0.000 A 
ATOM     16  C   UNL     1      47.262   1.214   7.285  0.00  0.00    +0.000 A 
ATOM     17  N   UNL     1      46.306   1.208   8.239  0.00  0.00    +0.000 NA
ENDBRANCH  11  12
ENDBRANCH   9  11
ENDBRANCH   7   9
ENDBRANCH   4   7
BRANCH   1  18
ATOM     18  C   UNL     1      47.986   7.339  13.333  0.00  0.00    +0.000 C 
BRANCH  18  21
ATOM     19  C   UNL     1      48.967   7.001  15.544  0.00  0.00    +0.000 C 
ATOM     20  O   UNL     1      50.025   6.635  15.034  0.00  0.00    +0.000 OA
ATOM     21  N   UNL     1      47.899   7.361  14.769  0.00  0.00    +0.000 N 
ATOM     22  H   UNL     1      47.035   7.682  15.193  0.00  0.00    +0.000 HD
BRANCH  19  30
ATOM     23  C   UNL     1      48.921   4.612  18.036  0.00  0.00    +0.000 A 
ATOM     24  N   UNL     1      48.836   3.908  19.184  0.00  0.00    +0.000 NA
ATOM     25  C   UNL     1      48.654   4.579  20.324  0.00  0.00    +0.000 A 
ATOM     26  N   UNL     1      48.543   5.896  20.465  0.00  0.00    +0.000 NA
ATOM     27  C   UNL     1      48.617   6.558  19.297  0.00  0.00    +0.000 A 
ATOM     28  S   UNL     1      48.498   8.251  19.294  0.00  0.00    +0.000 S 
ATOM     29  C   UNL     1      48.668   8.305  17.605  0.00  0.00    +0.000 A 
ATOM     30  C   UNL     1      48.816   7.059  17.011  0.00  0.00    +0.000 A 
ATOM     31  C   UNL     1      48.793   6.012  18.029  0.00  0.00    +0.000 A 
BRANCH  23  33
ATOM     32  C   UNL     1      47.903   3.399  16.327  0.00  0.00    +0.000 C 
ATOM     33  O   UNL     1      49.121   3.911  16.864  0.00  0.00    +0.000 OA
ENDBRANCH  23  33
ENDBRANCH  19  30
ENDBRANCH  18  21
ENDBRANCH   1  18
TORSDOF 8
ENDMDL
MODEL 3
REMARK VINA RESULT:    -8.171      2.456      3.194
REMARK INTER + INTRA:         -13.412
REMARK INTER:                 -12.025
REMARK INTRA:                  -1.387
REMARK UNBOUND:                -1.420
REMARK  Name = 
REMARK  10 active torsions:
REMARK  status: ('A' for Active; 'I' for Inactive)
REMARK    1  A    between atoms: C_1  and  O_2
REMARK    2  A    between atoms: O_2  and  C_3
REMARK    3  A    between atoms: C_10  and  C_11
REMARK    4  A    between atoms: N_13  and  C_14
REMARK    5  A    between atoms: C_14  and  C_15
REMARK    6  A    between atoms: C_18  and  C_19
REMARK    7  A    between atoms: C_19  and  C_20
REMARK    8  A    between atoms: C_19  and  N_21
REMARK    9  A    between atoms: N_21  and  C_22
REMARK   10  A    between atoms: C_22  and  C_23
REMARK                            x       y       z     vdW  Elec       q    Type
REMARK                         _______ _______ _______ _____ _____    ______ ____
ROOT
ATOM      1  C   UNL     1      47.274   6.167  13.094  0.00  0.00    +0.000 A 
ATOM      2  C   UNL     1      46.682   5.020  13.636  0.00  0.00    +0.000 A 
ATOM      3  C   UNL     1      45.634   4.368  12.969  0.00  0.00    +0.000 A 
ATOM      4  C   UNL     1      45.144   4.844  11.742  0.00  0.00    +0.000 A 
ATOM      5  C   UNL     1      45.828   5.925  11.154  0.00  0.00    +0.000 A 
ATOM      6  C   UNL     1      46.871   6.580  11.821  0.00  0.00    +0.000 A 
ENDROOT
BRANCH   4   7
ATOM      7  C   UNL     1      43.883   4.279  11.061  0.00  0.00    +0.000 C 
ATOM      8  C   UNL     1      43.360   3.090  11.890  0.00  0.00    +0.000 C 
BRANCH   7   9
ATOM      9  N   UNL     1      44.128   3.876   9.662  0.00  0.00    +0.000 NA
ATOM     10  H   UNL     1      44.852   4.481   9.274  0.00  0.00    +0.000 HD
BRANCH   9  11
ATOM     11  C   UNL     1      44.602   2.489   9.515  0.00  0.00    +0.000 C 
BRANCH  11  12
ATOM     12  C   UNL     1      45.620   2.344   8.397  0.00  0.00    +0.000 A 
ATOM     13  C   UNL     1      45.883   3.410   7.540  0.00  0.00    +0.000 A 
ATOM     14  C   UNL     1      46.828   3.246   6.531  0.00  0.00    +0.000 A 
ATOM     15  C   UNL     1      47.482   2.026   6.400  0.00  0.00    +0.000 A 
ATOM     16  C   UNL     1      47.163   1.016   7.291  0.00  0.00    +0.000 A 
ATOM     17  N   UNL     1      46.255   1.147   8.282  0.00  0.00    +0.000 NA
ENDBRANCH  11  12
ENDBRANCH   9  11
ENDBRANCH   7   9
ENDBRANCH   4   7
BRANCH   1  18
ATOM     18  C   UNL     1      48.295   6.957  13.870  0.00  0.00    +0.000 C 
BRANCH  18  21
ATOM     19  C   UNL     1      48.942   6.575  16.194  0.00  0.00    +0.000 C 
ATOM     20  O   UNL     1      50.032   6.135  15.833  0.00  0.00    +0.000 OA
ATOM     21  N   UNL     1      48.015   6.998  15.280  0.00  0.00    +0.000 N 
ATOM     22  H   UNL     1      47.125   7.379  15.583  0.00  0.00    +0.000 HD
BRANCH  19  30
ATOM     23  C   UNL     1      47.718   9.092  18.214  0.00  0.00    +0.000 A 
ATOM     24  N   UNL     1      47.283   9.879  19.220  0.00  0.00    +0.000 NA
ATOM     25  C   UNL     1      47.186   9.348  20.441  0.00  0.00    +0.000 A 
ATOM     26  N   UNL     1      47.474   8.099  20.792  0.00  0.00    +0.000 NA
ATOM     27  C   UNL     1      47.918   7.353  19.765  0.00  0.00    +0.000 A 
ATOM     28  S   UNL     1      48.330   5.729  20.036  0.00  0.00    +0.000 S 
ATOM     29  C   UNL     1      48.753   5.518  18.404  0.00  0.00    +0.000 A 
ATOM     30  C   UNL     1      48.597   6.657  17.626  0.00  0.00    +0.000 A 
ATOM     31  C   UNL     1      48.087   7.755  18.443  0.00  0.00    +0.000 A 
BRANCH  23  33
ATOM     32  C   UNL     1      49.023  10.364  16.762  0.00  0.00    +0.000 C 
ATOM     33  O   UNL     1      47.804   9.647  16.953  0.00  0.00    +0.000 OA
ENDBRANCH  23  33
ENDBRANCH  19  30
ENDBRANCH  18  21
ENDBRANCH   1  18
TORSDOF 8
ENDMDL
MODEL 4
REMARK VINA RESULT:    -7.414      1.583      2.076
REMARK INTER + INTRA:         -12.301
REMARK INTER:                 -11.224
REMARK INTRA:                  -1.077
REMARK UNBOUND:                -1.420
REMARK  Name = 
REMARK  10 active torsions:
REMARK  status: ('A' for Active; 'I' for Inactive)
REMARK    1  A    between atoms: C_1  and  O_2
REMARK    2  A    between atoms: O_2  and  C_3
REMARK    3  A    between atoms: C_10  and  C_11
REMARK    4  A    between atoms: N_13  and  C_14
REMARK    5  A    between atoms: C_14  and  C_15
REMARK    6  A    between atoms: C_18  and  C_19
REMARK    7  A    between atoms: C_19  and  C_20
REMARK    8  A    between atoms: C_19  and  N_21
REMARK    9  A    between atoms: N_21  and  C_22
REMARK   10  A    between atoms: C_22  and  C_23
REMARK                            x       y       z     vdW  Elec       q    Type
REMARK                         _______ _______ _______ _____ _____    ______ ____
ROOT
ATOM      1  C   UNL     1      46.875   7.355  12.669  0.00  0.00    +0.000 A 
ATOM      2  C   UNL     1      45.741   7.777  11.966  0.00  0.00    +0.000 A 
ATOM      3  C   UNL     1      44.844   6.846  11.423  0.00  0.00    +0.000 A 
ATOM      4  C   UNL     1      45.055   5.464  11.562  0.00  0.00    +0.000 A 
ATOM      5  C   UNL     1      46.133   5.059  12.372  0.00  0.00    +0.000 A 
ATOM      6  C   UNL     1      47.032   5.987  12.912  0.00  0.00    +0.000 A 
ENDROOT
BRANCH   4   7
ATOM      7  C   UNL     1      44.208   4.403  10.834  0.00  0.00    +0.000 C 
ATOM      8  C   UNL     1      42.888   4.205  11.605  0.00  0.00    +0.000 C 
BRANCH   7   9
ATOM      9  N   UNL     1      44.922   3.120  10.676  0.00  0.00    +0.000 NA
ATOM     10  H   UNL     1      44.724   2.539  11.491  0.00  0.00    +0.000 HD
BRANCH   9  11
ATOM     11  C   UNL     1      44.510   2.350   9.489  0.00  0.00    +0.000 C 
BRANCH  11  12
ATOM     12  C   UNL     1      45.599   2.297   8.431  0.00  0.00    +0.000 A 
ATOM     13  C   UNL     1      45.924   3.434   7.697  0.00  0.00    +0.000 A 
ATOM     14  C   UNL     1      46.932   3.353   6.741  0.00  0.00    +0.000 A 
ATOM     15  C   UNL     1      47.585   2.142   6.539  0.00  0.00    +0.000 A 
ATOM     16  C   UNL     1      47.202   1.058   7.308  0.00  0.00    +0.000 A 
ATOM     17  N   UNL     1      46.232   1.107   8.247  0.00  0.00    +0.000 NA
ENDBRANCH  11  12
ENDBRANCH   9  11
ENDBRANCH   7   9
ENDBRANCH   4   7
BRANCH   1  18
ATOM     18  C   UNL     1      47.919   8.339  13.127  0.00  0.00    +0.000 C 
BRANCH  18  21
ATOM     19  C   UNL     1      49.183   7.852  15.160  0.00  0.00    +0.000 C 
ATOM     20  O   UNL     1      48.405   8.534  15.824  0.00  0.00    +0.000 OA
ATOM     21  N   UNL     1      49.019   7.710  13.809  0.00  0.00    +0.000 N 
ATOM     22  H   UNL     1      49.651   7.129  13.268  0.00  0.00    +0.000 HD
BRANCH  19  30
ATOM     23  C   UNL     1      49.461   5.122  17.254  0.00  0.00    +0.000 A 
ATOM     24  N   UNL     1      49.854   4.132  18.081  0.00  0.00    +0.000 NA
ATOM     25  C   UNL     1      51.159   4.001  18.334  0.00  0.00    +0.000 A 
ATOM     26  N   UNL     1      52.143   4.752  17.852  0.00  0.00    +0.000 NA
ATOM     27  C   UNL     1      51.708   5.736  17.045  0.00  0.00    +0.000 A 
ATOM     28  S   UNL     1      52.834   6.789  16.338  0.00  0.00    +0.000 S 
ATOM     29  C   UNL     1      51.602   7.650  15.549  0.00  0.00    +0.000 A 
ATOM     30  C   UNL     1      50.324   7.168  15.799  0.00  0.00    +0.000 A 
ATOM     31  C   UNL     1      50.391   6.013  16.691  0.00  0.00    +0.000 A 
BRANCH  23  33
ATOM     32  C   UNL     1      47.413   4.013  17.180  0.00  0.00    +0.000 C 
ATOM     33  O   UNL     1      48.111   5.242  16.989  0.00  0.00    +0.000 OA
ENDBRANCH  23  33
ENDBRANCH  19  30
ENDBRANCH  18  21
ENDBRANCH   1  18
TORSDOF 8
ENDMDL
MODEL 5
REMARK VINA RESULT:    -7.374      2.245      3.635
REMARK INTER + INTRA:         -12.243
REMARK INTER:                 -10.953
REMARK INTRA:                  -1.290
REMARK UNBOUND:                -1.420
REMARK  Name = 
REMARK  10 active torsions:
REMARK  status: ('A' for Active; 'I' for Inactive)
REMARK    1  A    between atoms: C_1  and  O_2
REMARK    2  A    between atoms: O_2  and  C_3
REMARK    3  A    between atoms: C_10  and  C_11
REMARK    4  A    between atoms: N_13  and  C_14
REMARK    5  A    between atoms: C_14  and  C_15
REMARK    6  A    between atoms: C_18  and  C_19
REMARK    7  A    between atoms: C_19  and  C_20
REMARK    8  A    between atoms: C_19  and  N_21
REMARK    9  A    between atoms: N_21  and  C_22
REMARK   10  A    between atoms: C_22  and  C_23
REMARK                            x       y       z     vdW  Elec       q    Type
REMARK                         _______ _______ _______ _____ _____    ______ ____
ROOT
ATOM      1  C   UNL     1      46.864   4.157  14.063  0.00  0.00    +0.000 A 
ATOM      2  C   UNL     1      46.116   3.274  13.277  0.00  0.00    +0.000 A 
ATOM      3  C   UNL     1      45.487   3.714  12.102  0.00  0.00    +0.000 A 
ATOM      4  C   UNL     1      45.585   5.050  11.680  0.00  0.00    +0.000 A 
ATOM      5  C   UNL     1      46.439   5.894  12.416  0.00  0.00    +0.000 A 
ATOM      6  C   UNL     1      47.063   5.458  13.591  0.00  0.00    +0.000 A 
ENDROOT
BRANCH   4   7
ATOM      7  C   UNL     1      44.771   5.626  10.506  0.00  0.00    +0.000 C 
ATOM      8  C   UNL     1      43.307   5.160  10.640  0.00  0.00    +0.000 C 
BRANCH   7   9
ATOM      9  N   UNL     1      45.324   5.244   9.192  0.00  0.00    +0.000 NA
ATOM     10  H   UNL     1      46.312   5.017   9.311  0.00  0.00    +0.000 HD
BRANCH   9  11
ATOM     11  C   UNL     1      44.681   4.060   8.594  0.00  0.00    +0.000 C 
BRANCH  11  12
ATOM     12  C   UNL     1      45.676   3.166   7.874  0.00  0.00    +0.000 A 
ATOM     13  C   UNL     1      45.938   1.882   8.344  0.00  0.00    +0.000 A 
ATOM     14  C   UNL     1      46.849   1.086   7.655  0.00  0.00    +0.000 A 
ATOM     15  C   UNL     1      47.477   1.591   6.523  0.00  0.00    +0.000 A 
ATOM     16  C   UNL     1      47.163   2.877   6.122  0.00  0.00    +0.000 A 
ATOM     17  N   UNL     1      46.280   3.672   6.765  0.00  0.00    +0.000 NA
ENDBRANCH  11  12
ENDBRANCH   9  11
ENDBRANCH   7   9
ENDBRANCH   4   7
BRANCH   1  18
ATOM     18  C   UNL     1      47.418   3.733  15.399  0.00  0.00    +0.000 C 
BRANCH  18  21
ATOM     19  C   UNL     1      47.872   4.633  17.623  0.00  0.00    +0.000 C 
ATOM     20  O   UNL     1      47.906   3.496  18.092  0.00  0.00    +0.000 OA
ATOM     21  N   UNL     1      47.627   4.840  16.293  0.00  0.00    +0.000 N 
ATOM     22  H   UNL     1      47.621   5.778  15.907  0.00  0.00    +0.000 HD
BRANCH  19  30
ATOM     23  C   UNL     1      49.933   7.394  17.408  0.00  0.00    +0.000 A 
ATOM     24  N   UNL     1      50.633   8.532  17.594  0.00  0.00    +0.000 NA
ATOM     25  C   UNL     1      50.388   9.253  18.690  0.00  0.00    +0.000 A 
ATOM     26  N   UNL     1      49.509   8.974  19.647  0.00  0.00    +0.000 NA
ATOM     27  C   UNL     1      48.844   7.825  19.432  0.00  0.00    +0.000 A 
ATOM     28  S   UNL     1      47.679   7.318  20.556  0.00  0.00    +0.000 S 
ATOM     29  C   UNL     1      47.339   5.926  19.645  0.00  0.00    +0.000 A 
ATOM     30  C   UNL     1      48.091   5.812  18.483  0.00  0.00    +0.000 A 
ATOM     31  C   UNL     1      48.988   6.958  18.353  0.00  0.00    +0.000 A 
BRANCH  23  33
ATOM     32  C   UNL     1      50.195   7.475  15.094  0.00  0.00    +0.000 C 
ATOM     33  O   UNL     1      50.186   6.661  16.266  0.00  0.00    +0.000 OA
ENDBRANCH  23  33
ENDBRANCH  19  30
ENDBRANCH  18  21
ENDBRANCH   1  18
TORSDOF 8
ENDMDL
MODEL 6
REMARK VINA RESULT:    -7.218      2.573      3.295
REMARK INTER + INTRA:         -12.014
REMARK INTER:                 -11.021
REMARK INTRA:                  -0.993
REMARK UNBOUND:                -1.420
REMARK  Name = 
REMARK  10 active torsions:
REMARK  status: ('A' for Active; 'I' for Inactive)
REMARK    1  A    between atoms: C_1  and  O_2
REMARK    2  A    between atoms: O_2  and  C_3
REMARK    3  A    between atoms: C_10  and  C_11
REMARK    4  A    between atoms: N_13  and  C_14
REMARK    5  A    between atoms: C_14  and  C_15
REMARK    6  A    between atoms: C_18  and  C_19
REMARK    7  A    between atoms: C_19  and  C_20
REMARK    8  A    between atoms: C_19  and  N_21
REMARK    9  A    between atoms: N_21  and  C_22
REMARK   10  A    between atoms: C_22  and  C_23
REMARK                            x       y       z     vdW  Elec       q    Type
REMARK                         _______ _______ _______ _____ _____    ______ ____
ROOT
ATOM      1  C   UNL     1      47.005   4.731  14.034  0.00  0.00    +0.000 A 
ATOM      2  C   UNL     1      46.322   3.620  13.526  0.00  0.00    +0.000 A 
ATOM      3  C   UNL     1      45.430   3.753  12.452  0.00  0.00    +0.000 A 
ATOM      4  C   UNL     1      45.191   5.002  11.854  0.00  0.00    +0.000 A 
ATOM      5  C   UNL     1      45.975   6.085  12.298  0.00  0.00    +0.000 A 
ATOM      6  C   UNL     1      46.862   5.954  13.373  0.00  0.00    +0.000 A 
ENDROOT
BRANCH   4   7
ATOM      7  C   UNL     1      44.093   5.237  10.800  0.00  0.00    +0.000 C 
ATOM      8  C   UNL     1      42.773   4.629  11.313  0.00  0.00    +0.000 C 
BRANCH   7   9
ATOM      9  N   UNL     1      44.449   4.680   9.479  0.00  0.00    +0.000 NA
ATOM     10  H   UNL     1      45.385   5.003   9.234  0.00  0.00    +0.000 HD
BRANCH   9  11
ATOM     11  C   UNL     1      44.478   3.208   9.440  0.00  0.00    +0.000 C 
BRANCH  11  12
ATOM     12  C   UNL     1      45.510   2.678   8.460  0.00  0.00    +0.000 A 
ATOM     13  C   UNL     1      46.066   3.518   7.499  0.00  0.00    +0.000 A 
ATOM     14  C   UNL     1      47.016   3.002   6.621  0.00  0.00    +0.000 A 
ATOM     15  C   UNL     1      47.383   1.665   6.721  0.00  0.00    +0.000 A 
ATOM     16  C   UNL     1      46.783   0.896   7.703  0.00  0.00    +0.000 A 
ATOM     17  N   UNL     1      45.863   1.369   8.571  0.00  0.00    +0.000 NA
ENDBRANCH  11  12
ENDBRANCH   9  11
ENDBRANCH   7   9
ENDBRANCH   4   7
BRANCH   1  18
ATOM     18  C   UNL     1      47.848   4.625  15.278  0.00  0.00    +0.000 C 
BRANCH  18  21
ATOM     19  C   UNL     1      48.900   6.629  16.196  0.00  0.00    +0.000 C 
ATOM     20  O   UNL     1      49.953   6.357  15.623  0.00  0.00    +0.000 OA
ATOM     21  N   UNL     1      47.805   5.816  16.084  0.00  0.00    +0.000 N 
ATOM     22  H   UNL     1      46.932   6.056  16.541  0.00  0.00    +0.000 HD
BRANCH  19  30
ATOM     23  C   UNL     1      47.789   7.225  19.410  0.00  0.00    +0.000 A 
ATOM     24  N   UNL     1      47.396   7.742  20.593  0.00  0.00    +0.000 NA
ATOM     25  C   UNL     1      47.525   9.057  20.782  0.00  0.00    +0.000 A 
ATOM     26  N   UNL     1      48.010   9.943  19.917  0.00  0.00    +0.000 NA
ATOM     27  C   UNL     1      48.374   9.391  18.747  0.00  0.00    +0.000 A 
ATOM     28  S   UNL     1      49.018  10.379  17.528  0.00  0.00    +0.000 S 
ATOM     29  C   UNL     1      49.201   9.051  16.485  0.00  0.00    +0.000 A 
ATOM     30  C   UNL     1      48.784   7.844  17.027  0.00  0.00    +0.000 A 
ATOM     31  C   UNL     1      48.295   8.048  18.389  0.00  0.00    +0.000 A 
BRANCH  23  33
ATOM     32  C   UNL     1      48.804   5.148  19.695  0.00  0.00    +0.000 C 
ATOM     33  O   UNL     1      47.662   5.863  19.228  0.00  0.00    +0.000 OA
ENDBRANCH  23  33
ENDBRANCH  19  30
ENDBRANCH  18  21
ENDBRANCH   1  18
TORSDOF 8
ENDMDL
MODEL 7
REMARK VINA RESULT:    -7.118      2.069      2.759
REMARK INTER + INTRA:         -11.867
REMARK INTER:                 -10.593
REMARK INTRA:                  -1.275
REMARK UNBOUND:                -1.420
REMARK  Name = 
REMARK  10 active torsions:
REMARK  status: ('A' for Active; 'I' for Inactive)
REMARK    1  A    between atoms: C_1  and  O_2
REMARK    2  A    between atoms: O_2  and  C_3
REMARK    3  A    between atoms: C_10  and  C_11
REMARK    4  A    between atoms: N_13  and  C_14
REMARK    5  A    between atoms: C_14  and  C_15
REMARK    6  A    between atoms: C_18  and  C_19
REMARK    7  A    between atoms: C_19  and  C_20
REMARK    8  A    between atoms: C_19  and  N_21
REMARK    9  A    between atoms: N_21  and  C_22
REMARK   10  A    between atoms: C_22  and  C_23
REMARK                            x       y       z     vdW  Elec       q    Type
REMARK                         _______ _______ _______ _____ _____    ______ ____
ROOT
ATOM      1  C   UNL     1      47.996   6.617  13.321  0.00  0.00    +0.000 A 
ATOM      2  C   UNL     1      47.231   5.559  13.826  0.00  0.00    +0.000 A 
ATOM      3  C   UNL     1      46.131   5.062  13.112  0.00  0.00    +0.000 A 
ATOM      4  C   UNL     1      45.760   5.609  11.873  0.00  0.00    +0.000 A 
ATOM      5  C   UNL     1      46.609   6.590  11.325  0.00  0.00    +0.000 A 
ATOM      6  C   UNL     1      47.705   7.090  12.038  0.00  0.00    +0.000 A 
ENDROOT
BRANCH   4   7
ATOM      7  C   UNL     1      44.461   5.228  11.137  0.00  0.00    +0.000 C 
ATOM      8  C   UNL     1      43.907   3.925  11.747  0.00  0.00    +0.000 C 
BRANCH   7   9
ATOM      9  N   UNL     1      44.658   5.083   9.681  0.00  0.00    +0.000 NA
ATOM     10  H   UNL     1      45.648   5.218   9.474  0.00  0.00    +0.000 HD
BRANCH   9  11
ATOM     11  C   UNL     1      44.286   3.757   9.157  0.00  0.00    +0.000 C 
BRANCH  11  12
ATOM     12  C   UNL     1      45.416   3.109   8.375  0.00  0.00    +0.000 A 
ATOM     13  C   UNL     1      45.711   1.760   8.551  0.00  0.00    +0.000 A 
ATOM     14  C   UNL     1      46.748   1.196   7.812  0.00  0.00    +0.000 A 
ATOM     15  C   UNL     1      47.463   1.990   6.923  0.00  0.00    +0.000 A 
ATOM     16  C   UNL     1      47.108   3.322   6.807  0.00  0.00    +0.000 A 
ATOM     17  N   UNL     1      46.105   3.896   7.506  0.00  0.00    +0.000 NA
ENDBRANCH  11  12
ENDBRANCH   9  11
ENDBRANCH   7   9
ENDBRANCH   4   7
BRANCH   1  18
ATOM     18  C   UNL     1      49.084   7.254  14.145  0.00  0.00    +0.000 C 
BRANCH  18  21
ATOM     19  C   UNL     1      50.508   6.719  16.056  0.00  0.00    +0.000 C 
ATOM     20  O   UNL     1      51.394   7.451  15.619  0.00  0.00    +0.000 OA
ATOM     21  N   UNL     1      49.329   6.558  15.380  0.00  0.00    +0.000 N 
ATOM     22  H   UNL     1      48.592   5.970  15.755  0.00  0.00    +0.000 HD
BRANCH  19  30
ATOM     23  C   UNL     1      48.678   6.514  18.977  0.00  0.00    +0.000 A 
ATOM     24  N   UNL     1      48.194   6.274  20.212  0.00  0.00    +0.000 NA
ATOM     25  C   UNL     1      48.878   5.452  21.011  0.00  0.00    +0.000 A 
ATOM     26  N   UNL     1      50.014   4.824  20.723  0.00  0.00    +0.000 NA
ATOM     27  C   UNL     1      50.471   5.101  19.490  0.00  0.00    +0.000 A 
ATOM     28  S   UNL     1      51.910   4.379  18.956  0.00  0.00    +0.000 S 
ATOM     29  C   UNL     1      51.802   5.168  17.456  0.00  0.00    +0.000 A 
ATOM     30  C   UNL     1      50.689   5.987  17.325  0.00  0.00    +0.000 A 
ATOM     31  C   UNL     1      49.886   5.939  18.544  0.00  0.00    +0.000 A 
BRANCH  23  33
ATOM     32  C   UNL     1      48.232   8.731  18.416  0.00  0.00    +0.000 C 
ATOM     33  O   UNL     1      47.957   7.356  18.154  0.00  0.00    +0.000 OA
ENDBRANCH  23  33
ENDBRANCH  19  30
ENDBRANCH  18  21
ENDBRANCH   1  18
TORSDOF 8
ENDMDL
MODEL 8
REMARK VINA RESULT:    -6.709      2.496      3.781
REMARK INTER + INTRA:         -11.267
REMARK INTER:                 -10.212
REMARK INTRA:                  -1.055
REMARK UNBOUND:                -1.420
REMARK  Name = 
REMARK  10 active torsions:
REMARK  status: ('A' for Active; 'I' for Inactive)
REMARK    1  A    between atoms: C_1  and  O_2
REMARK    2  A    between atoms: O_2  and  C_3
REMARK    3  A    between atoms: C_10  and  C_11
REMARK    4  A    between atoms: N_13  and  C_14
REMARK    5  A    between atoms: C_14  and  C_15
REMARK    6  A    between atoms: C_18  and  C_19
REMARK    7  A    between atoms: C_19  and  C_20
REMARK    8  A    between atoms: C_19  and  N_21
REMARK    9  A    between atoms: N_21  and  C_22
REMARK   10  A    between atoms: C_22  and  C_23
REMARK                            x       y       z     vdW  Elec       q    Type
REMARK                         _______ _______ _______ _____ _____    ______ ____
ROOT
ATOM      1  C   UNL     1      46.962   7.001  12.393  0.00  0.00    +0.000 A 
ATOM      2  C   UNL     1      45.867   7.270  11.564  0.00  0.00    +0.000 A 
ATOM      3  C   UNL     1      44.918   6.276  11.282  0.00  0.00    +0.000 A 
ATOM      4  C   UNL     1      45.037   4.982  11.816  0.00  0.00    +0.000 A 
ATOM      5  C   UNL     1      46.076   4.764  12.741  0.00  0.00    +0.000 A 
ATOM      6  C   UNL     1      47.026   5.753  13.020  0.00  0.00    +0.000 A 
ENDROOT
BRANCH   4   7
ATOM      7  C   UNL     1      44.132   3.809  11.395  0.00  0.00    +0.000 C 
ATOM      8  C   UNL     1      43.584   3.123  12.662  0.00  0.00    +0.000 C 
BRANCH   7   9
ATOM      9  N   UNL     1      44.831   2.837  10.532  0.00  0.00    +0.000 NA
ATOM     10  H   UNL     1      44.558   1.896  10.817  0.00  0.00    +0.000 HD
BRANCH   9  11
ATOM     11  C   UNL     1      44.503   2.963   9.101  0.00  0.00    +0.000 C 
BRANCH  11  12
ATOM     12  C   UNL     1      45.655   2.540   8.206  0.00  0.00    +0.000 A 
ATOM     13  C   UNL     1      46.241   3.452   7.333  0.00  0.00    +0.000 A 
ATOM     14  C   UNL     1      47.300   3.033   6.533  0.00  0.00    +0.000 A 
ATOM     15  C   UNL     1      47.744   1.719   6.620  0.00  0.00    +0.000 A 
ATOM     16  C   UNL     1      47.107   0.874   7.512  0.00  0.00    +0.000 A 
ATOM     17  N   UNL     1      46.081   1.252   8.305  0.00  0.00    +0.000 NA
ENDBRANCH  11  12
ENDBRANCH   9  11
ENDBRANCH   7   9
ENDBRANCH   4   7
BRANCH   1  18
ATOM     18  C   UNL     1      48.062   8.012  12.583  0.00  0.00    +0.000 C 
BRANCH  18  21
ATOM     19  C   UNL     1      49.160   7.703  14.743  0.00  0.00    +0.000 C 
ATOM     20  O   UNL     1      48.255   8.316  15.307  0.00  0.00    +0.000 OA
ATOM     21  N   UNL     1      49.146   7.513  13.388  0.00  0.00    +0.000 N 
ATOM     22  H   UNL     1      49.883   6.988  12.930  0.00  0.00    +0.000 HD
BRANCH  19  30
ATOM     23  C   UNL     1      52.583   8.112  14.570  0.00  0.00    +0.000 A 
ATOM     24  N   UNL     1      53.924   8.062  14.710  0.00  0.00    +0.000 NA
ATOM     25  C   UNL     1      54.430   7.287  15.672  0.00  0.00    +0.000 A 
ATOM     26  N   UNL     1      53.749   6.539  16.534  0.00  0.00    +0.000 NA
ATOM     27  C   UNL     1      52.418   6.605  16.351  0.00  0.00    +0.000 A 
ATOM     28  S   UNL     1      51.395   5.713  17.368  0.00  0.00    +0.000 S 
ATOM     29  C   UNL     1      50.016   6.285  16.559  0.00  0.00    +0.000 A 
ATOM     30  C   UNL     1      50.294   7.153  15.511  0.00  0.00    +0.000 A 
ATOM     31  C   UNL     1      51.736   7.350  15.393  0.00  0.00    +0.000 A 
BRANCH  23  33
ATOM     32  C   UNL     1      52.479  10.282  13.729  0.00  0.00    +0.000 C 
ATOM     33  O   UNL     1      52.069   8.925  13.579  0.00  0.00    +0.000 OA
ENDBRANCH  23  33
ENDBRANCH  19  30
ENDBRANCH  18  21
ENDBRANCH   1  18
TORSDOF 8
ENDMDL
MODEL 9
REMARK VINA RESULT:    -6.693      3.501      8.650
REMARK INTER + INTRA:         -11.243
REMARK INTER:                  -9.575
REMARK INTRA:                  -1.668
REMARK UNBOUND:                -1.420
REMARK  Name = 
REMARK  10 active torsions:
REMARK  status: ('A' for Active; 'I' for Inactive)
REMARK    1  A    between atoms: C_1  and  O_2
REMARK    2  A    between atoms: O_2  and  C_3
REMARK    3  A    between atoms: C_10  and  C_11
REMARK    4  A    between atoms: N_13  and  C_14
REMARK    5  A    between atoms: C_14  and  C_15
REMARK    6  A    between atoms: C_18  and  C_19
REMARK    7  A    between atoms: C_19  and  C_20
REMARK    8  A    between atoms: C_19  and  N_21
REMARK    9  A    between atoms: N_21  and  C_22
REMARK   10  A    between atoms: C_22  and  C_23
REMARK                            x       y       z     vdW  Elec       q    Type
REMARK                         _______ _______ _______ _____ _____    ______ ____
ROOT
ATOM      1  C   UNL     1      48.580   3.315  17.464  0.00  0.00    +0.000 A 
ATOM      2  C   UNL     1      49.521   2.380  17.019  0.00  0.00    +0.000 A 
ATOM      3  C   UNL     1      50.875   2.502  17.366  0.00  0.00    +0.000 A 
ATOM      4  C   UNL     1      51.329   3.565  18.165  0.00  0.00    +0.000 A 
ATOM      5  C   UNL     1      50.353   4.427  18.701  0.00  0.00    +0.000 A 
ATOM      6  C   UNL     1      49.002   4.308  18.352  0.00  0.00    +0.000 A 
ENDROOT
BRANCH   4   7
ATOM      7  C   UNL     1      52.821   3.849  18.422  0.00  0.00    +0.000 C 
ATOM      8  C   UNL     1      52.954   4.676  19.716  0.00  0.00    +0.000 C 
BRANCH   7   9
ATOM      9  N   UNL     1      53.469   4.540  17.289  0.00  0.00    +0.000 NA
ATOM     10  H   UNL     1      52.910   4.380  16.451  0.00  0.00    +0.000 HD
BRANCH   9  11
ATOM     11  C   UNL     1      53.575   6.000  17.462  0.00  0.00    +0.000 C 
BRANCH  11  12
ATOM     12  C   UNL     1      52.837   6.763  16.375  0.00  0.00    +0.000 A 
ATOM     13  C   UNL     1      51.449   6.703  16.290  0.00  0.00    +0.000 A 
ATOM     14  C   UNL     1      50.804   7.422  15.287  0.00  0.00    +0.000 A 
ATOM     15  C   UNL     1      51.558   8.176  14.396  0.00  0.00    +0.000 A 
ATOM     16  C   UNL     1      52.933   8.182  14.547  0.00  0.00    +0.000 A 
ATOM     17  N   UNL     1      53.587   7.500  15.512  0.00  0.00    +0.000 NA
ENDBRANCH  11  12
ENDBRANCH   9  11
ENDBRANCH   7   9
ENDBRANCH   4   7
BRANCH   1  18
ATOM     18  C   UNL     1      47.155   3.277  16.977  0.00  0.00    +0.000 C 
BRANCH  18  21
ATOM     19  C   UNL     1      46.970   4.191  14.720  0.00  0.00    +0.000 C 
ATOM     20  O   UNL     1      47.364   3.129  14.242  0.00  0.00    +0.000 OA
ATOM     21  N   UNL     1      46.845   4.352  16.073  0.00  0.00    +0.000 N 
ATOM     22  H   UNL     1      46.499   5.223  16.462  0.00  0.00    +0.000 HD
BRANCH  19  30
ATOM     23  C   UNL     1      44.274   4.901  12.684  0.00  0.00    +0.000 A 
ATOM     24  N   UNL     1      43.383   5.413  11.811  0.00  0.00    +0.000 NA
ATOM     25  C   UNL     1      43.647   6.602  11.263  0.00  0.00    +0.000 A 
ATOM     26  N   UNL     1      44.715   7.362  11.483  0.00  0.00    +0.000 NA
ATOM     27  C   UNL     1      45.585   6.809  12.346  0.00  0.00    +0.000 A 
ATOM     28  S   UNL     1      47.005   7.648  12.745  0.00  0.00    +0.000 S 
ATOM     29  C   UNL     1      47.506   6.398  13.781  0.00  0.00    +0.000 A 
ATOM     30  C   UNL     1      46.622   5.330  13.848  0.00  0.00    +0.000 A 
ATOM     31  C   UNL     1      45.465   5.582  12.992  0.00  0.00    +0.000 A 
BRANCH  23  33
ATOM     32  C   UNL     1      43.521   2.732  12.294  0.00  0.00    +0.000 C 
ATOM     33  O   UNL     1      43.987   3.677  13.254  0.00  0.00    +0.000 OA
ENDBRANCH  23  33
ENDBRANCH  19  30
ENDBRANCH  18  21
ENDBRANCH   1  18
TORSDOF 8
ENDMDL
