MODEL 1
REMARK VINA RESULT:    -7.483      0.000      0.000
REMARK INTER + INTRA:         -10.057
REMARK INTER:                  -9.671
REMARK INTRA:                  -0.387
REMARK UNBOUND:                -0.387
REMARK  Name = 
REMARK  6 active torsions:
REMARK  status: ('A' for Active; 'I' for Inactive)
REMARK    1  A    between atoms: N_1  and  C_2
REMARK    2  A    between atoms: C_2  and  C_3
REMARK    3  A    between atoms: C_6  and  C_7
REMARK    4  A    between atoms: C_7  and  S_8
REMARK    5  A    between atoms: S_8  and  C_9
REMARK    6  A    between atoms: C_13  and  N_14
REMARK                            x       y       z     vdW  Elec       q    Type
REMARK                         _______ _______ _______ _____ _____    ______ ____
ROOT
ATOM      1  C   UNL     1      43.734   4.405   9.938  0.00  0.00    +0.000 C 
ENDROOT
BRANCH   1   5
ATOM      2  C   UNL     1      46.665   2.279   7.518  0.00  0.00    +0.000 A 
ATOM      3  C   UNL     1      46.507   3.666   7.397  0.00  0.00    +0.000 A 
ATOM      4  C   UNL     1      45.574   4.353   8.180  0.00  0.00    +0.000 A 
ATOM      5  C   UNL     1      44.759   3.668   9.096  0.00  0.00    +0.000 A 
ATOM      6  C   UNL     1      44.922   2.281   9.221  0.00  0.00    +0.000 A 
ATOM      7  C   UNL     1      45.865   1.596   8.442  0.00  0.00    +0.000 A 
BRANCH   2   8
ATOM      8  C   UNL     1      47.647   1.537   6.646  0.00  0.00    +0.000 C 
BRANCH   8   9
ATOM      9  N   UNL     1      48.680   2.420   6.113  0.00  0.00    +0.000 NA
ATOM     10  H   UNL     1      48.533   3.360   6.473  0.00  0.00    +0.000 HD
ATOM     11  H   UNL     1      48.568   2.477   5.101  0.00  0.00    +0.000 HD
ENDBRANCH   8   9
ENDBRANCH   2   8
ENDBRANCH   1   5
BRANCH   1  12
ATOM     12  S   UNL     1      43.546   3.645  11.580  0.00  0.00    +0.000 S 
BRANCH  12  13
ATOM     13  C   UNL     1      44.998   4.235  12.419  0.00  0.00    +0.000 A 
ATOM     14  N   UNL     1      45.301   5.524  12.185  0.00  0.00    +0.000 NA
ATOM     15  C   UNL     1      46.375   6.016  12.822  0.00  0.00    +0.000 A 
ATOM     16  C   UNL     1      47.152   5.267  13.667  0.00  0.00    +0.000 A 
ATOM     17  C   UNL     1      46.774   3.952  13.827  0.00  0.00    +0.000 A 
ATOM     18  N   UNL     1      45.701   3.418  13.223  0.00  0.00    +0.000 NA
BRANCH  17  19
ATOM     19  N   UNL     1      47.491   3.134  14.700  0.00  0.00    +0.000 N 
ATOM     20  H   UNL     1      47.512   3.499  15.645  0.00  0.00    +0.000 HD
ATOM     21  H   UNL     1      48.425   2.998  14.321  0.00  0.00    +0.000 HD
ENDBRANCH  17  19
ENDBRANCH  12  13
ENDBRANCH   1  12
TORSDOF 6
ENDMDL
MODEL 2
REMARK VINA RESULT:    -7.446      0.631      1.585
REMARK INTER + INTRA:         -10.009
REMARK INTER:                  -9.643
REMARK INTRA:                  -0.366
REMARK UNBOUND:                -0.387
REMARK  Name = 
REMARK  6 active torsions:
REMARK  status: ('A' for Active; 'I' for Inactive)
REMARK    1  A    between atoms: N_1  and  C_2
REMARK    2  A    between atoms: C_2  and  C_3
REMARK    3  A    between atoms: C_6  and  C_7
REMARK    4  A    between atoms: C_7  and  S_8
REMARK    5  A    between atoms: S_8  and  C_9
REMARK    6  A    between atoms: C_13  and  N_14
REMARK                            x       y       z     vdW  Elec       q    Type
REMARK                         _______ _______ _______ _____ _____    ______ ____
ROOT
ATOM      1  C   UNL     1      43.714   4.378   9.989  0.00  0.00    +0.000 C 
ENDROOT
BRANCH   1   5
ATOM      2  C   UNL     1      46.663   2.311   7.540  0.00  0.00    +0.000 A 
ATOM      3  C   UNL     1      46.494   3.698   7.439  0.00  0.00    +0.000 A 
ATOM      4  C   UNL     1      45.555   4.366   8.232  0.00  0.00    +0.000 A 
ATOM      5  C   UNL     1      44.746   3.661   9.138  0.00  0.00    +0.000 A 
ATOM      6  C   UNL     1      44.920   2.274   9.242  0.00  0.00    +0.000 A 
ATOM      7  C   UNL     1      45.868   1.608   8.454  0.00  0.00    +0.000 A 
BRANCH   2   8
ATOM      8  C   UNL     1      47.651   1.590   6.658  0.00  0.00    +0.000 C 
BRANCH   8   9
ATOM      9  N   UNL     1      48.635   2.501   6.081  0.00  0.00    +0.000 NA
ATOM     10  H   UNL     1      49.403   2.619   6.735  0.00  0.00    +0.000 HD
ATOM     11  H   UNL     1      48.203   3.419   5.972  0.00  0.00    +0.000 HD
ENDBRANCH   8   9
ENDBRANCH   2   8
ENDBRANCH   1   5
BRANCH   1  12
ATOM     12  S   UNL     1      43.516   3.579  11.611  0.00  0.00    +0.000 S 
BRANCH  12  13
ATOM     13  C   UNL     1      44.899   4.240  12.511  0.00  0.00    +0.000 A 
ATOM     14  N   UNL     1      45.734   3.317  13.022  0.00  0.00    +0.000 NA
ATOM     15  C   UNL     1      46.806   3.775  13.685  0.00  0.00    +0.000 A 
ATOM     16  C   UNL     1      47.063   5.110  13.862  0.00  0.00    +0.000 A 
ATOM     17  C   UNL     1      46.140   5.978  13.320  0.00  0.00    +0.000 A 
ATOM     18  N   UNL     1      45.060   5.569  12.637  0.00  0.00    +0.000 NA
BRANCH  17  19
ATOM     19  N   UNL     1      46.350   7.354  13.424  0.00  0.00    +0.000 N 
ATOM     20  H   UNL     1      47.043   7.589  14.123  0.00  0.00    +0.000 HD
ATOM     21  H   UNL     1      45.455   7.804  13.604  0.00  0.00    +0.000 HD
ENDBRANCH  17  19
ENDBRANCH  12  13
ENDBRANCH   1  12
TORSDOF 6
ENDMDL
MODEL 3
REMARK VINA RESULT:    -6.682      1.415      2.134
REMARK INTER + INTRA:          -9.022
REMARK INTER:                  -8.695
REMARK INTRA:                  -0.326
REMARK UNBOUND:                -0.387
REMARK  Name = 
REMARK  6 active torsions:
REMARK  status: ('A' for Active; 'I' for Inactive)
REMARK    1  A    between atoms: N_1  and  C_2
REMARK    2  A    between atoms: C_2  and  C_3
REMARK    3  A    between atoms: C_6  and  C_7
REMARK    4  A    between atoms: C_7  and  S_8
REMARK    5  A    between atoms: S_8  and  C_9
REMARK    6  A    between atoms: C_13  and  N_14
REMARK                            x       y       z     vdW  Elec       q    Type
REMARK                         _______ _______ _______ _____ _____    ______ ____
ROOT
ATOM      1  C   UNL     1      43.966   3.390  10.596  0.00  0.00    +0.000 C 
ENDROOT
BRANCH   1   5
ATOM      2  C   UNL     1      46.468   2.706   7.097  0.00  0.00    +0.000 A 
ATOM      3  C   UNL     1      46.104   1.645   7.936  0.00  0.00    +0.000 A 
ATOM      4  C   UNL     1      45.293   1.860   9.055  0.00  0.00    +0.000 A 
ATOM      5  C   UNL     1      44.835   3.148   9.375  0.00  0.00    +0.000 A 
ATOM      6  C   UNL     1      45.194   4.209   8.531  0.00  0.00    +0.000 A 
ATOM      7  C   UNL     1      46.000   3.990   7.406  0.00  0.00    +0.000 A 
BRANCH   2   8
ATOM      8  C   UNL     1      47.372   2.476   5.912  0.00  0.00    +0.000 C 
BRANCH   8   9
ATOM      9  N   UNL     1      48.609   1.799   6.292  0.00  0.00    +0.000 NA
ATOM     10  H   UNL     1      49.283   1.889   5.537  0.00  0.00    +0.000 HD
ATOM     11  H   UNL     1      48.415   0.802   6.391  0.00  0.00    +0.000 HD
ENDBRANCH   8   9
ENDBRANCH   2   8
ENDBRANCH   1   5
BRANCH   1  12
ATOM     12  S   UNL     1      44.951   3.396  12.125  0.00  0.00    +0.000 S 
BRANCH  12  13
ATOM     13  C   UNL     1      45.327   5.125  12.306  0.00  0.00    +0.000 A 
ATOM     14  N   UNL     1      44.553   5.950  11.578  0.00  0.00    +0.000 NA
ATOM     15  C   UNL     1      44.787   7.265  11.707  0.00  0.00    +0.000 A 
ATOM     16  C   UNL     1      45.764   7.775  12.522  0.00  0.00    +0.000 A 
ATOM     17  C   UNL     1      46.518   6.850  13.210  0.00  0.00    +0.000 A 
ATOM     18  N   UNL     1      46.314   5.527  13.125  0.00  0.00    +0.000 NA
BRANCH  17  19
ATOM     19  N   UNL     1      47.508   7.291  14.089  0.00  0.00    +0.000 N 
ATOM     20  H   UNL     1      47.731   6.604  14.799  0.00  0.00    +0.000 HD
ATOM     21  H   UNL     1      47.210   8.176  14.493  0.00  0.00    +0.000 HD
ENDBRANCH  17  19
ENDBRANCH  12  13
ENDBRANCH   1  12
TORSDOF 6
ENDMDL
MODEL 4
REMARK VINA RESULT:    -6.582      2.171      6.060
REMARK INTER + INTRA:          -8.893
REMARK INTER:                  -8.563
REMARK INTRA:                  -0.330
REMARK UNBOUND:                -0.387
REMARK  Name = 
REMARK  6 active torsions:
REMARK  status: ('A' for Active; 'I' for Inactive)
REMARK    1  A    between atoms: N_1  and  C_2
REMARK    2  A    between atoms: C_2  and  C_3
REMARK    3  A    between atoms: C_6  and  C_7
REMARK    4  A    between atoms: C_7  and  S_8
REMARK    5  A    between atoms: S_8  and  C_9
REMARK    6  A    between atoms: C_13  and  N_14
REMARK                            x       y       z     vdW  Elec       q    Type
REMARK                         _______ _______ _______ _____ _____    ______ ____
ROOT
ATOM      1  C   UNL     1      44.292   3.475  10.466  0.00  0.00    +0.000 C 
ENDROOT
BRANCH   1   5
ATOM      2  C   UNL     1      46.959   5.573  13.196  0.00  0.00    +0.000 A 
ATOM      3  C   UNL     1      46.540   6.173  12.002  0.00  0.00    +0.000 A 
ATOM      4  C   UNL     1      45.675   5.506  11.128  0.00  0.00    +0.000 A 
ATOM      5  C   UNL     1      45.218   4.211  11.418  0.00  0.00    +0.000 A 
ATOM      6  C   UNL     1      45.633   3.613  12.616  0.00  0.00    +0.000 A 
ATOM      7  C   UNL     1      46.492   4.287  13.495  0.00  0.00    +0.000 A 
BRANCH   2   8
ATOM      8  C   UNL     1      47.920   6.281  14.118  0.00  0.00    +0.000 C 
BRANCH   8   9
ATOM      9  N   UNL     1      49.196   6.561  13.467  0.00  0.00    +0.000 NA
ATOM     10  H   UNL     1      49.071   7.322  12.804  0.00  0.00    +0.000 HD
ATOM     11  H   UNL     1      49.469   5.743  12.922  0.00  0.00    +0.000 HD
ENDBRANCH   8   9
ENDBRANCH   2   8
ENDBRANCH   1   5
BRANCH   1  12
ATOM     12  S   UNL     1      44.458   4.092   8.763  0.00  0.00    +0.000 S 
BRANCH  12  13
ATOM     13  C   UNL     1      45.652   2.962   8.085  0.00  0.00    +0.000 A 
ATOM     14  N   UNL     1      45.560   1.701   8.542  0.00  0.00    +0.000 NA
ATOM     15  C   UNL     1      46.426   0.811   8.035  0.00  0.00    +0.000 A 
ATOM     16  C   UNL     1      47.377   1.140   7.104  0.00  0.00    +0.000 A 
ATOM     17  C   UNL     1      47.407   2.460   6.713  0.00  0.00    +0.000 A 
ATOM     18  N   UNL     1      46.554   3.384   7.181  0.00  0.00    +0.000 NA
BRANCH  17  19
ATOM     19  N   UNL     1      48.321   2.867   5.740  0.00  0.00    +0.000 N 
ATOM     20  H   UNL     1      49.144   2.277   5.711  0.00  0.00    +0.000 HD
ATOM     21  H   UNL     1      48.555   3.843   5.905  0.00  0.00    +0.000 HD
ENDBRANCH  17  19
ENDBRANCH  12  13
ENDBRANCH   1  12
TORSDOF 6
ENDMDL
MODEL 5
REMARK VINA RESULT:    -6.316      2.018      5.930
REMARK INTER + INTRA:          -8.549
REMARK INTER:                  -8.220
REMARK INTRA:                  -0.330
REMARK UNBOUND:                -0.387
REMARK  Name = 
REMARK  6 active torsions:
REMARK  status: ('A' for Active; 'I' for Inactive)
REMARK    1  A    between atoms: N_1  and  C_2
REMARK    2  A    between atoms: C_2  and  C_3
REMARK    3  A    between atoms: C_6  and  C_7
REMARK    4  A    between atoms: C_7  and  S_8
REMARK    5  A    between atoms: S_8  and  C_9
REMARK    6  A    between atoms: C_13  and  N_14
REMARK                            x       y       z     vdW  Elec       q    Type
REMARK                         _______ _______ _______ _____ _____    ______ ____
ROOT
ATOM      1  C   UNL     1      44.234   4.869  10.447  0.00  0.00    +0.000 C 
ENDROOT
BRANCH   1   5
ATOM      2  C   UNL     1      47.241   6.049  13.369  0.00  0.00    +0.000 A 
ATOM      3  C   UNL     1      47.137   6.713  12.139  0.00  0.00    +0.000 A 
ATOM      4  C   UNL     1      46.166   6.343  11.203  0.00  0.00    +0.000 A 
ATOM      5  C   UNL     1      45.280   5.286  11.465  0.00  0.00    +0.000 A 
ATOM      6  C   UNL     1      45.380   4.626  12.698  0.00  0.00    +0.000 A 
ATOM      7  C   UNL     1      46.348   5.004  13.638  0.00  0.00    +0.000 A 
BRANCH   2   8
ATOM      8  C   UNL     1      48.312   6.427  14.360  0.00  0.00    +0.000 C 
BRANCH   8   9
ATOM      9  N   UNL     1      48.185   5.685  15.611  0.00  0.00    +0.000 NA
ATOM     10  H   UNL     1      47.326   5.143  15.590  0.00  0.00    +0.000 HD
ATOM     11  H   UNL     1      48.088   6.353  16.376  0.00  0.00    +0.000 HD
ENDBRANCH   8   9
ENDBRANCH   2   8
ENDBRANCH   1   5
BRANCH   1  12
ATOM     12  S   UNL     1      44.075   3.060  10.354  0.00  0.00    +0.000 S 
BRANCH  12  13
ATOM     13  C   UNL     1      45.202   2.666   9.036  0.00  0.00    +0.000 A 
ATOM     14  N   UNL     1      45.599   3.718   8.299  0.00  0.00    +0.000 NA
ATOM     15  C   UNL     1      46.471   3.467   7.311  0.00  0.00    +0.000 A 
ATOM     16  C   UNL     1      46.945   2.211   7.033  0.00  0.00    +0.000 A 
ATOM     17  C   UNL     1      46.464   1.195   7.829  0.00  0.00    +0.000 A 
ATOM     18  N   UNL     1      45.603   1.398   8.837  0.00  0.00    +0.000 NA
BRANCH  17  19
ATOM     19  N   UNL     1      46.928  -0.107   7.634  0.00  0.00    +0.000 N 
ATOM     20  H   UNL     1      47.179  -0.563   8.502  0.00  0.00    +0.000 HD
ATOM     21  H   UNL     1      47.704  -0.078   6.977  0.00  0.00    +0.000 HD
ENDBRANCH  17  19
ENDBRANCH  12  13
ENDBRANCH   1  12
TORSDOF 6
ENDMDL
MODEL 6
REMARK VINA RESULT:    -5.814      2.276      5.931
REMARK INTER + INTRA:          -7.900
REMARK INTER:                  -7.591
REMARK INTRA:                  -0.309
REMARK UNBOUND:                -0.387
REMARK  Name = 
REMARK  6 active torsions:
REMARK  status: ('A' for Active; 'I' for Inactive)
REMARK    1  A    between atoms: N_1  and  C_2
REMARK    2  A    between atoms: C_2  and  C_3
REMARK    3  A    between atoms: C_6  and  C_7
REMARK    4  A    between atoms: C_7  and  S_8
REMARK    5  A    between atoms: S_8  and  C_9
REMARK    6  A    between atoms: C_13  and  N_14
REMARK                            x       y       z     vdW  Elec       q    Type
REMARK                         _______ _______ _______ _____ _____    ______ ____
ROOT
ATOM      1  C   UNL     1      44.400   4.407  11.940  0.00  0.00    +0.000 C 
ENDROOT
BRANCH   1   5
ATOM      2  C   UNL     1      48.017   6.646  12.875  0.00  0.00    +0.000 A 
ATOM      3  C   UNL     1      47.272   6.937  11.725  0.00  0.00    +0.000 A 
ATOM      4  C   UNL     1      46.104   6.227  11.428  0.00  0.00    +0.000 A 
ATOM      5  C   UNL     1      45.658   5.192  12.266  0.00  0.00    +0.000 A 
ATOM      6  C   UNL     1      46.401   4.905  13.419  0.00  0.00    +0.000 A 
ATOM      7  C   UNL     1      47.566   5.624  13.720  0.00  0.00    +0.000 A 
BRANCH   2   8
ATOM      8  C   UNL     1      49.295   7.389  13.173  0.00  0.00    +0.000 C 
BRANCH   8   9
ATOM      9  N   UNL     1      49.176   8.816  12.888  0.00  0.00    +0.000 NA
ATOM     10  H   UNL     1      49.498   8.995  11.941  0.00  0.00    +0.000 HD
ATOM     11  H   UNL     1      49.805   9.325  13.510  0.00  0.00    +0.000 HD
ENDBRANCH   8   9
ENDBRANCH   2   8
ENDBRANCH   1   5
BRANCH   1  12
ATOM     12  S   UNL     1      43.776   4.805  10.279  0.00  0.00    +0.000 S 
BRANCH  12  13
ATOM     13  C   UNL     1      44.795   3.770   9.254  0.00  0.00    +0.000 A 
ATOM     14  N   UNL     1      44.733   2.457   9.539  0.00  0.00    +0.000 NA
ATOM     15  C   UNL     1      45.467   1.638   8.770  0.00  0.00    +0.000 A 
ATOM     16  C   UNL     1      46.259   2.085   7.744  0.00  0.00    +0.000 A 
ATOM     17  C   UNL     1      46.272   3.448   7.542  0.00  0.00    +0.000 A 
ATOM     18  N   UNL     1      45.546   4.305   8.275  0.00  0.00    +0.000 NA
BRANCH  17  19
ATOM     19  N   UNL     1      47.024   3.978   6.493  0.00  0.00    +0.000 N 
ATOM     20  H   UNL     1      46.776   3.577   5.597  0.00  0.00    +0.000 HD
ATOM     21  H   UNL     1      48.010   3.856   6.709  0.00  0.00    +0.000 HD
ENDBRANCH  17  19
ENDBRANCH  12  13
ENDBRANCH   1  12
TORSDOF 6
ENDMDL
MODEL 7
REMARK VINA RESULT:    -5.748      2.289      2.869
REMARK INTER + INTRA:          -7.815
REMARK INTER:                  -7.543
REMARK INTRA:                  -0.272
REMARK UNBOUND:                -0.387
REMARK  Name = 
REMARK  6 active torsions:
REMARK  status: ('A' for Active; 'I' for Inactive)
REMARK    1  A    between atoms: N_1  and  C_2
REMARK    2  A    between atoms: C_2  and  C_3
REMARK    3  A    between atoms: C_6  and  C_7
REMARK    4  A    between atoms: C_7  and  S_8
REMARK    5  A    between atoms: S_8  and  C_9
REMARK    6  A    between atoms: C_13  and  N_14
REMARK                            x       y       z     vdW  Elec       q    Type
REMARK                         _______ _______ _______ _____ _____    ______ ____
ROOT
ATOM      1  C   UNL     1      44.581   4.590  12.574  0.00  0.00    +0.000 C 
ENDROOT
BRANCH   1   5
ATOM      2  C   UNL     1      45.526   3.574   8.445  0.00  0.00    +0.000 A 
ATOM      3  C   UNL     1      45.685   4.885   8.915  0.00  0.00    +0.000 A 
ATOM      4  C   UNL     1      45.392   5.211  10.243  0.00  0.00    +0.000 A 
ATOM      5  C   UNL     1      44.915   4.238  11.135  0.00  0.00    +0.000 A 
ATOM      6  C   UNL     1      44.762   2.926  10.666  0.00  0.00    +0.000 A 
ATOM      7  C   UNL     1      45.065   2.598   9.338  0.00  0.00    +0.000 A 
BRANCH   2   8
ATOM      8  C   UNL     1      45.809   3.233   7.004  0.00  0.00    +0.000 C 
BRANCH   8   9
ATOM      9  N   UNL     1      46.863   4.072   6.440  0.00  0.00    +0.000 NA
ATOM     10  H   UNL     1      46.963   4.908   7.010  0.00  0.00    +0.000 HD
ATOM     11  H   UNL     1      46.568   4.386   5.515  0.00  0.00    +0.000 HD
ENDBRANCH   8   9
ENDBRANCH   2   8
ENDBRANCH   1   5
BRANCH   1  12
ATOM     12  S   UNL     1      46.052   4.512  13.640  0.00  0.00    +0.000 S 
BRANCH  12  13
ATOM     13  C   UNL     1      46.905   6.005  13.187  0.00  0.00    +0.000 A 
ATOM     14  N   UNL     1      46.126   7.097  13.102  0.00  0.00    +0.000 NA
ATOM     15  C   UNL     1      46.737   8.250  12.789  0.00  0.00    +0.000 A 
ATOM     16  C   UNL     1      48.083   8.343  12.552  0.00  0.00    +0.000 A 
ATOM     17  C   UNL     1      48.794   7.167  12.642  0.00  0.00    +0.000 A 
ATOM     18  N   UNL     1      48.232   5.992  12.965  0.00  0.00    +0.000 NA
BRANCH  17  19
ATOM     19  N   UNL     1      50.176   7.185  12.452  0.00  0.00    +0.000 N 
ATOM     20  H   UNL     1      50.566   8.117  12.520  0.00  0.00    +0.000 HD
ATOM     21  H   UNL     1      50.385   6.746  11.558  0.00  0.00    +0.000 HD
ENDBRANCH  17  19
ENDBRANCH  12  13
ENDBRANCH   1  12
TORSDOF 6
ENDMDL
MODEL 8
REMARK VINA RESULT:    -5.589      2.531      3.514
REMARK INTER + INTRA:          -7.610
REMARK INTER:                  -7.387
REMARK INTRA:                  -0.222
REMARK UNBOUND:                -0.387
REMARK  Name = 
REMARK  6 active torsions:
REMARK  status: ('A' for Active; 'I' for Inactive)
REMARK    1  A    between atoms: N_1  and  C_2
REMARK    2  A    between atoms: C_2  and  C_3
REMARK    3  A    between atoms: C_6  and  C_7
REMARK    4  A    between atoms: C_7  and  S_8
REMARK    5  A    between atoms: S_8  and  C_9
REMARK    6  A    between atoms: C_13  and  N_14
REMARK                            x       y       z     vdW  Elec       q    Type
REMARK                         _______ _______ _______ _____ _____    ______ ____
ROOT
ATOM      1  C   UNL     1      45.554   5.179  13.267  0.00  0.00    +0.000 C 
ENDROOT
BRANCH   1   5
ATOM      2  C   UNL     1      45.114   3.885   9.131  0.00  0.00    +0.000 A 
ATOM      3  C   UNL     1      45.583   5.170   9.434  0.00  0.00    +0.000 A 
ATOM      4  C   UNL     1      45.735   5.585  10.761  0.00  0.00    +0.000 A 
ATOM      5  C   UNL     1      45.406   4.729  11.824  0.00  0.00    +0.000 A 
ATOM      6  C   UNL     1      44.941   3.441  11.521  0.00  0.00    +0.000 A 
ATOM      7  C   UNL     1      44.799   3.025  10.190  0.00  0.00    +0.000 A 
BRANCH   2   8
ATOM      8  C   UNL     1      44.917   3.455   7.699  0.00  0.00    +0.000 C 
BRANCH   8   9
ATOM      9  N   UNL     1      46.099   3.715   6.883  0.00  0.00    +0.000 NA
ATOM     10  H   UNL     1      45.804   4.023   5.960  0.00  0.00    +0.000 HD
ATOM     11  H   UNL     1      46.601   2.837   6.749  0.00  0.00    +0.000 HD
ENDBRANCH   8   9
ENDBRANCH   2   8
ENDBRANCH   1   5
BRANCH   1  12
ATOM     12  S   UNL     1      47.131   6.043  13.538  0.00  0.00    +0.000 S 
BRANCH  12  13
ATOM     13  C   UNL     1      47.653   5.360  15.095  0.00  0.00    +0.000 A 
ATOM     14  N   UNL     1      48.733   5.952  15.637  0.00  0.00    +0.000 NA
ATOM     15  C   UNL     1      49.143   5.483  16.825  0.00  0.00    +0.000 A 
ATOM     16  C   UNL     1      48.523   4.449  17.476  0.00  0.00    +0.000 A 
ATOM     17  C   UNL     1      47.439   3.894  16.832  0.00  0.00    +0.000 A 
ATOM     18  N   UNL     1      46.983   4.335  15.650  0.00  0.00    +0.000 NA
BRANCH  17  19
ATOM     19  N   UNL     1      46.731   2.861  17.447  0.00  0.00    +0.000 N 
ATOM     20  H   UNL     1      46.541   2.091  16.817  0.00  0.00    +0.000 HD
ATOM     21  H   UNL     1      45.880   3.248  17.848  0.00  0.00    +0.000 HD
ENDBRANCH  17  19
ENDBRANCH  12  13
ENDBRANCH   1  12
TORSDOF 6
ENDMDL
MODEL 9
REMARK VINA RESULT:    -5.559      2.120      6.733
REMARK INTER + INTRA:          -7.571
REMARK INTER:                  -7.295
REMARK INTRA:                  -0.276
REMARK UNBOUND:                -0.387
REMARK  Name = 
REMARK  6 active torsions:
REMARK  status: ('A' for Active; 'I' for Inactive)
REMARK    1  A    between atoms: N_1  and  C_2
REMARK    2  A    between atoms: C_2  and  C_3
REMARK    3  A    between atoms: C_6  and  C_7
REMARK    4  A    between atoms: C_7  and  S_8
REMARK    5  A    between atoms: S_8  and  C_9
REMARK    6  A    between atoms: C_13  and  N_14
REMARK                            x       y       z     vdW  Elec       q    Type
REMARK                         _______ _______ _______ _____ _____    ______ ____
ROOT
ATOM      1  C   UNL     1      47.027   6.511  11.797  0.00  0.00    +0.000 C 
ENDROOT
BRANCH   1   5
ATOM      2  C   UNL     1      47.560   4.781  15.759  0.00  0.00    +0.000 A 
ATOM      3  C   UNL     1      46.731   4.164  14.813  0.00  0.00    +0.000 A 
ATOM      4  C   UNL     1      46.566   4.711  13.537  0.00  0.00    +0.000 A 
ATOM      5  C   UNL     1      47.214   5.903  13.176  0.00  0.00    +0.000 A 
ATOM      6  C   UNL     1      48.048   6.518  14.121  0.00  0.00    +0.000 A 
ATOM      7  C   UNL     1      48.219   5.963  15.396  0.00  0.00    +0.000 A 
BRANCH   2   8
ATOM      8  C   UNL     1      47.707   4.207  17.145  0.00  0.00    +0.000 C 
BRANCH   8   9
ATOM      9  N   UNL     1      46.687   3.204  17.432  0.00  0.00    +0.000 NA
ATOM     10  H   UNL     1      47.084   2.277  17.298  0.00  0.00    +0.000 HD
ATOM     11  H   UNL     1      45.936   3.299  16.748  0.00  0.00    +0.000 HD
ENDBRANCH   8   9
ENDBRANCH   2   8
ENDBRANCH   1   5
BRANCH   1  12
ATOM     12  S   UNL     1      45.273   6.551  11.318  0.00  0.00    +0.000 S 
BRANCH  12  13
ATOM     13  C   UNL     1      45.155   5.125  10.263  0.00  0.00    +0.000 A 
ATOM     14  N   UNL     1      44.372   4.137  10.733  0.00  0.00    +0.000 NA
ATOM     15  C   UNL     1      44.235   3.054   9.954  0.00  0.00    +0.000 A 
ATOM     16  C   UNL     1      44.855   2.923   8.739  0.00  0.00    +0.000 A 
ATOM     17  C   UNL     1      45.652   3.978   8.352  0.00  0.00    +0.000 A 
ATOM     18  N   UNL     1      45.811   5.087   9.089  0.00  0.00    +0.000 NA
BRANCH  17  19
ATOM     19  N   UNL     1      46.288   3.937   7.110  0.00  0.00    +0.000 N 
ATOM     20  H   UNL     1      46.835   3.094   6.982  0.00  0.00    +0.000 HD
ATOM     21  H   UNL     1      46.851   4.779   7.008  0.00  0.00    +0.000 HD
ENDBRANCH  17  19
ENDBRANCH  12  13
ENDBRANCH   1  12
TORSDOF 6
ENDMDL
