MODEL 1
REMARK VINA RESULT:    -7.215      0.000      0.000
REMARK INTER + INTRA:         -10.849
REMARK INTER:                 -10.167
REMARK INTRA:                  -0.682
REMARK UNBOUND:                -0.682
REMARK  Name = 
REMARK  11 active torsions:
REMARK  status: ('A' for Active; 'I' for Inactive)
REMARK    1  A    between atoms: C_1  and  C_2
REMARK    2  A    between atoms: C_2  and  N_3
REMARK    3  A    between atoms: N_3  and  C_4
REMARK    4  A    between atoms: C_5  and  C_7
REMARK    5  A    between atoms: C_10  and  N_11
REMARK    6  A    between atoms: N_11  and  C_12
REMARK    7  A    between atoms: C_12  and  C_13
REMARK    8  A    between atoms: C_13  and  C_14
REMARK    9  A    between atoms: C_13  and  C_15
REMARK   10  A    between atoms: C_13  and  C_16
REMARK   11  A    between atoms: C_20  and  C_21
REMARK                            x       y       z     vdW  Elec       q    Type
REMARK                         _______ _______ _______ _____ _____    ______ ____
ROOT
ATOM      1  N   UNL     1      46.115   4.762  12.790  0.00  0.00    +0.000 N 
ATOM      2  H   UNL     1      45.668   5.660  12.649  0.00  0.00    +0.000 HD
ENDROOT
BRANCH   1   6
ATOM      3  C   UNL     1      48.403   4.880  16.205  0.00  0.00    +0.000 A 
ATOM      4  C   UNL     1      47.563   3.805  15.955  0.00  0.00    +0.000 A 
ATOM      5  N   UNL     1      46.760   3.735  14.857  0.00  0.00    +0.000 NA
ATOM      6  C   UNL     1      46.820   4.773  13.998  0.00  0.00    +0.000 A 
ATOM      7  C   UNL     1      47.654   5.862  14.282  0.00  0.00    +0.000 A 
ATOM      8  N   UNL     1      48.454   5.948  15.372  0.00  0.00    +0.000 NA
BRANCH   3  11
ATOM      9  N   UNL     1      48.966   5.388  18.599  0.00  0.00    +0.000 N 
ATOM     10  C   UNL     1      47.623   5.869  18.887  0.00  0.00    +0.000 C 
ATOM     11  C   UNL     1      49.334   4.824  17.367  0.00  0.00    +0.000 C 
ATOM     12  O   UNL     1      50.429   4.278  17.199  0.00  0.00    +0.000 OA
BRANCH   9  14
ATOM     13  C   UNL     1      49.394   4.861  20.985  0.00  0.00    +0.000 C 
ATOM     14  C   UNL     1      49.946   5.414  19.680  0.00  0.00    +0.000 C 
ENDBRANCH   9  14
ENDBRANCH   3  11
ENDBRANCH   1   6
BRANCH   1  15
ATOM     15  C   UNL     1      45.262   3.600  12.511  0.00  0.00    +0.000 C 
BRANCH  15  16
ATOM     16  C   UNL     1      44.283   3.863  11.317  0.00  0.00    +0.000 C 
ATOM     17  C   UNL     1      43.079   2.891  11.403  0.00  0.00    +0.000 C 
ATOM     18  C   UNL     1      43.726   5.304  11.430  0.00  0.00    +0.000 C 
BRANCH  16  19
ATOM     19  C   UNL     1      44.997   3.609   9.964  0.00  0.00    +0.000 A 
ATOM     20  C   UNL     1      45.388   4.693   9.151  0.00  0.00    +0.000 A 
ATOM     21  C   UNL     1      46.104   4.498   7.966  0.00  0.00    +0.000 A 
ATOM     22  C   UNL     1      46.445   3.212   7.558  0.00  0.00    +0.000 A 
ATOM     23  C   UNL     1      46.059   2.115   8.327  0.00  0.00    +0.000 A 
ATOM     24  C   UNL     1      45.337   2.316   9.516  0.00  0.00    +0.000 A 
BRANCH  23  25
ATOM     25  C   UNL     1      46.414   0.785   7.917  0.00  0.00    +0.000 C 
ATOM     26  N   UNL     1      46.707  -0.288   7.592  0.00  0.00    +0.000 NA
ENDBRANCH  23  25
ENDBRANCH  16  19
ENDBRANCH  15  16
ENDBRANCH   1  15
TORSDOF 7
ENDMDL
MODEL 2
REMARK VINA RESULT:    -6.812      3.171      4.126
REMARK INTER + INTRA:         -10.282
REMARK INTER:                  -9.464
REMARK INTRA:                  -0.818
REMARK UNBOUND:                -0.682
REMARK  Name = 
REMARK  11 active torsions:
REMARK  status: ('A' for Active; 'I' for Inactive)
REMARK    1  A    between atoms: C_1  and  C_2
REMARK    2  A    between atoms: C_2  and  N_3
REMARK    3  A    between atoms: N_3  and  C_4
REMARK    4  A    between atoms: C_5  and  C_7
REMARK    5  A    between atoms: C_10  and  N_11
REMARK    6  A    between atoms: N_11  and  C_12
REMARK    7  A    between atoms: C_12  and  C_13
REMARK    8  A    between atoms: C_13  and  C_14
REMARK    9  A    between atoms: C_13  and  C_15
REMARK   10  A    between atoms: C_13  and  C_16
REMARK   11  A    between atoms: C_20  and  C_21
REMARK                            x       y       z     vdW  Elec       q    Type
REMARK                         _______ _______ _______ _____ _____    ______ ____
ROOT
ATOM      1  N   UNL     1      45.089   5.433  12.957  0.00  0.00    +0.000 N 
ATOM      2  H   UNL     1      44.662   5.531  13.870  0.00  0.00    +0.000 HD
ENDROOT
BRANCH   1   6
ATOM      3  C   UNL     1      48.582   7.601  13.055  0.00  0.00    +0.000 A 
ATOM      4  C   UNL     1      47.443   8.124  12.463  0.00  0.00    +0.000 A 
ATOM      5  N   UNL     1      46.272   7.434  12.374  0.00  0.00    +0.000 NA
ATOM      6  C   UNL     1      46.262   6.193  12.903  0.00  0.00    +0.000 A 
ATOM      7  C   UNL     1      47.430   5.671  13.472  0.00  0.00    +0.000 A 
ATOM      8  N   UNL     1      48.602   6.344  13.563  0.00  0.00    +0.000 NA
BRANCH   3  11
ATOM      9  N   UNL     1      50.840   8.392  12.292  0.00  0.00    +0.000 N 
ATOM     10  C   UNL     1      50.757   7.648  11.044  0.00  0.00    +0.000 C 
ATOM     11  C   UNL     1      49.785   8.465  13.215  0.00  0.00    +0.000 C 
ATOM     12  O   UNL     1      49.817   9.229  14.185  0.00  0.00    +0.000 OA
BRANCH   9  14
ATOM     13  C   UNL     1      53.129   8.363  13.248  0.00  0.00    +0.000 C 
ATOM     14  C   UNL     1      52.048   9.170  12.543  0.00  0.00    +0.000 C 
ENDBRANCH   9  14
ENDBRANCH   3  11
ENDBRANCH   1   6
BRANCH   1  15
ATOM     15  C   UNL     1      45.149   4.056  12.451  0.00  0.00    +0.000 C 
BRANCH  15  16
ATOM     16  C   UNL     1      44.121   3.811  11.293  0.00  0.00    +0.000 C 
ATOM     17  C   UNL     1      43.280   2.546  11.599  0.00  0.00    +0.000 C 
ATOM     18  C   UNL     1      43.146   5.012  11.223  0.00  0.00    +0.000 C 
BRANCH  16  19
ATOM     19  C   UNL     1      44.862   3.570   9.952  0.00  0.00    +0.000 A 
ATOM     20  C   UNL     1      45.240   4.661   9.142  0.00  0.00    +0.000 A 
ATOM     21  C   UNL     1      45.978   4.480   7.969  0.00  0.00    +0.000 A 
ATOM     22  C   UNL     1      46.357   3.201   7.570  0.00  0.00    +0.000 A 
ATOM     23  C   UNL     1      45.984   2.097   8.336  0.00  0.00    +0.000 A 
ATOM     24  C   UNL     1      45.240   2.284   9.514  0.00  0.00    +0.000 A 
BRANCH  23  25
ATOM     25  C   UNL     1      46.378   0.774   7.937  0.00  0.00    +0.000 C 
ATOM     26  N   UNL     1      46.689  -0.295   7.618  0.00  0.00    +0.000 NA
ENDBRANCH  23  25
ENDBRANCH  16  19
ENDBRANCH  15  16
ENDBRANCH   1  15
TORSDOF 7
ENDMDL
MODEL 3
REMARK VINA RESULT:    -6.147      1.339      1.892
REMARK INTER + INTRA:          -9.344
REMARK INTER:                  -8.691
REMARK INTRA:                  -0.653
REMARK UNBOUND:                -0.682
REMARK  Name = 
REMARK  11 active torsions:
REMARK  status: ('A' for Active; 'I' for Inactive)
REMARK    1  A    between atoms: C_1  and  C_2
REMARK    2  A    between atoms: C_2  and  N_3
REMARK    3  A    between atoms: N_3  and  C_4
REMARK    4  A    between atoms: C_5  and  C_7
REMARK    5  A    between atoms: C_10  and  N_11
REMARK    6  A    between atoms: N_11  and  C_12
REMARK    7  A    between atoms: C_12  and  C_13
REMARK    8  A    between atoms: C_13  and  C_14
REMARK    9  A    between atoms: C_13  and  C_15
REMARK   10  A    between atoms: C_13  and  C_16
REMARK   11  A    between atoms: C_20  and  C_21
REMARK                            x       y       z     vdW  Elec       q    Type
REMARK                         _______ _______ _______ _____ _____    ______ ____
ROOT
ATOM      1  N   UNL     1      46.260   5.785  13.298  0.00  0.00    +0.000 N 
ATOM      2  H   UNL     1      46.053   6.777  13.286  0.00  0.00    +0.000 HD
ENDROOT
BRANCH   1   6
ATOM      3  C   UNL     1      48.704   4.922  16.491  0.00  0.00    +0.000 A 
ATOM      4  C   UNL     1      47.602   4.128  16.211  0.00  0.00    +0.000 A 
ATOM      5  N   UNL     1      46.743   4.390  15.186  0.00  0.00    +0.000 NA
ATOM      6  C   UNL     1      47.015   5.476  14.434  0.00  0.00    +0.000 A 
ATOM      7  C   UNL     1      48.116   6.281  14.750  0.00  0.00    +0.000 A 
ATOM      8  N   UNL     1      48.976   6.035  15.768  0.00  0.00    +0.000 NA
BRANCH   3  11
ATOM      9  N   UNL     1      49.626   5.106  18.819  0.00  0.00    +0.000 N 
ATOM     10  C   UNL     1      48.570   6.015  19.242  0.00  0.00    +0.000 C 
ATOM     11  C   UNL     1      49.657   4.499  17.554  0.00  0.00    +0.000 C 
ATOM     12  O   UNL     1      50.469   3.611  17.276  0.00  0.00    +0.000 OA
BRANCH   9  14
ATOM     13  C   UNL     1      51.442   5.948  20.285  0.00  0.00    +0.000 C 
ATOM     14  C   UNL     1      50.647   4.745  19.797  0.00  0.00    +0.000 C 
ENDBRANCH   9  14
ENDBRANCH   3  11
ENDBRANCH   1   6
BRANCH   1  15
ATOM     15  C   UNL     1      45.118   4.916  12.984  0.00  0.00    +0.000 C 
BRANCH  15  16
ATOM     16  C   UNL     1      44.432   5.313  11.633  0.00  0.00    +0.000 C 
ATOM     17  C   UNL     1      42.905   5.464  11.846  0.00  0.00    +0.000 C 
ATOM     18  C   UNL     1      44.978   6.689  11.176  0.00  0.00    +0.000 C 
BRANCH  16  19
ATOM     19  C   UNL     1      44.651   4.206  10.568  0.00  0.00    +0.000 A 
ATOM     20  C   UNL     1      44.080   2.929  10.740  0.00  0.00    +0.000 A 
ATOM     21  C   UNL     1      44.193   1.938   9.760  0.00  0.00    +0.000 A 
ATOM     22  C   UNL     1      44.885   2.196   8.580  0.00  0.00    +0.000 A 
ATOM     23  C   UNL     1      45.479   3.442   8.383  0.00  0.00    +0.000 A 
ATOM     24  C   UNL     1      45.364   4.435   9.372  0.00  0.00    +0.000 A 
BRANCH  23  25
ATOM     25  C   UNL     1      46.187   3.720   7.164  0.00  0.00    +0.000 C 
ATOM     26  N   UNL     1      46.761   3.938   6.182  0.00  0.00    +0.000 NA
ENDBRANCH  23  25
ENDBRANCH  16  19
ENDBRANCH  15  16
ENDBRANCH   1  15
TORSDOF 7
ENDMDL
MODEL 4
REMARK VINA RESULT:    -6.123      3.162      8.151
REMARK INTER + INTRA:          -9.311
REMARK INTER:                  -8.359
REMARK INTRA:                  -0.952
REMARK UNBOUND:                -0.682
REMARK  Name = 
REMARK  11 active torsions:
REMARK  status: ('A' for Active; 'I' for Inactive)
REMARK    1  A    between atoms: C_1  and  C_2
REMARK    2  A    between atoms: C_2  and  N_3
REMARK    3  A    between atoms: N_3  and  C_4
REMARK    4  A    between atoms: C_5  and  C_7
REMARK    5  A    between atoms: C_10  and  N_11
REMARK    6  A    between atoms: N_11  and  C_12
REMARK    7  A    between atoms: C_12  and  C_13
REMARK    8  A    between atoms: C_13  and  C_14
REMARK    9  A    between atoms: C_13  and  C_15
REMARK   10  A    between atoms: C_13  and  C_16
REMARK   11  A    between atoms: C_20  and  C_21
REMARK                            x       y       z     vdW  Elec       q    Type
REMARK                         _______ _______ _______ _____ _____    ______ ____
ROOT
ATOM      1  N   UNL     1      48.493   7.961  15.411  0.00  0.00    +0.000 N 
ATOM      2  H   UNL     1      48.622   8.952  15.242  0.00  0.00    +0.000 HD
ENDROOT
BRANCH   1   6
ATOM      3  C   UNL     1      46.478   6.342  12.214  0.00  0.00    +0.000 A 
ATOM      4  C   UNL     1      47.347   5.566  12.966  0.00  0.00    +0.000 A 
ATOM      5  N   UNL     1      48.063   6.063  14.013  0.00  0.00    +0.000 NA
ATOM      6  C   UNL     1      47.886   7.369  14.299  0.00  0.00    +0.000 A 
ATOM      7  C   UNL     1      47.026   8.143  13.510  0.00  0.00    +0.000 A 
ATOM      8  N   UNL     1      46.311   7.663  12.464  0.00  0.00    +0.000 NA
BRANCH   3  11
ATOM      9  N   UNL     1      44.458   5.030  11.505  0.00  0.00    +0.000 N 
ATOM     10  C   UNL     1      43.862   5.095  12.831  0.00  0.00    +0.000 C 
ATOM     11  C   UNL     1      45.645   5.694  11.161  0.00  0.00    +0.000 C 
ATOM     12  O   UNL     1      46.044   5.758   9.994  0.00  0.00    +0.000 OA
BRANCH   9  14
ATOM     13  C   UNL     1      44.119   2.844  10.381  0.00  0.00    +0.000 C 
ATOM     14  C   UNL     1      43.728   4.312  10.464  0.00  0.00    +0.000 C 
ENDBRANCH   9  14
ENDBRANCH   3  11
ENDBRANCH   1   6
BRANCH   1  15
ATOM     15  C   UNL     1      49.657   7.280  15.993  0.00  0.00    +0.000 C 
BRANCH  15  16
ATOM     16  C   UNL     1      49.374   6.772  17.448  0.00  0.00    +0.000 C 
ATOM     17  C   UNL     1      50.648   6.933  18.316  0.00  0.00    +0.000 C 
ATOM     18  C   UNL     1      48.266   7.650  18.081  0.00  0.00    +0.000 C 
BRANCH  16  19
ATOM     19  C   UNL     1      49.001   5.267  17.434  0.00  0.00    +0.000 A 
ATOM     20  C   UNL     1      47.650   4.868  17.372  0.00  0.00    +0.000 A 
ATOM     21  C   UNL     1      47.288   3.521  17.277  0.00  0.00    +0.000 A 
ATOM     22  C   UNL     1      48.268   2.533  17.245  0.00  0.00    +0.000 A 
ATOM     23  C   UNL     1      49.614   2.889  17.323  0.00  0.00    +0.000 A 
ATOM     24  C   UNL     1      49.973   4.245  17.421  0.00  0.00    +0.000 A 
BRANCH  23  25
ATOM     25  C   UNL     1      50.632   1.876  17.283  0.00  0.00    +0.000 C 
ATOM     26  N   UNL     1      51.454   1.061  17.243  0.00  0.00    +0.000 NA
ENDBRANCH  23  25
ENDBRANCH  16  19
ENDBRANCH  15  16
ENDBRANCH   1  15
TORSDOF 7
ENDMDL
MODEL 5
REMARK VINA RESULT:    -5.751      2.684      8.366
REMARK INTER + INTRA:          -8.786
REMARK INTER:                  -7.959
REMARK INTRA:                  -0.827
REMARK UNBOUND:                -0.682
REMARK  Name = 
REMARK  11 active torsions:
REMARK  status: ('A' for Active; 'I' for Inactive)
REMARK    1  A    between atoms: C_1  and  C_2
REMARK    2  A    between atoms: C_2  and  N_3
REMARK    3  A    between atoms: N_3  and  C_4
REMARK    4  A    between atoms: C_5  and  C_7
REMARK    5  A    between atoms: C_10  and  N_11
REMARK    6  A    between atoms: N_11  and  C_12
REMARK    7  A    between atoms: C_12  and  C_13
REMARK    8  A    between atoms: C_13  and  C_14
REMARK    9  A    between atoms: C_13  and  C_15
REMARK   10  A    between atoms: C_13  and  C_16
REMARK   11  A    between atoms: C_20  and  C_21
REMARK                            x       y       z     vdW  Elec       q    Type
REMARK                         _______ _______ _______ _____ _____    ______ ____
ROOT
ATOM      1  N   UNL     1      48.657   8.496  14.402  0.00  0.00    +0.000 N 
ATOM      2  H   UNL     1      49.618   8.437  14.087  0.00  0.00    +0.000 HD
ENDROOT
BRANCH   1   6
ATOM      3  C   UNL     1      46.200   5.677  12.691  0.00  0.00    +0.000 A 
ATOM      4  C   UNL     1      47.482   5.342  13.098  0.00  0.00    +0.000 A 
ATOM      5  N   UNL     1      48.346   6.246  13.640  0.00  0.00    +0.000 NA
ATOM      6  C   UNL     1      47.893   7.509  13.771  0.00  0.00    +0.000 A 
ATOM      7  C   UNL     1      46.606   7.835  13.327  0.00  0.00    +0.000 A 
ATOM      8  N   UNL     1      45.737   6.948  12.784  0.00  0.00    +0.000 NA
BRANCH   3  11
ATOM      9  N   UNL     1      44.945   4.504  10.860  0.00  0.00    +0.000 N 
ATOM     10  C   UNL     1      45.604   5.276   9.816  0.00  0.00    +0.000 C 
ATOM     11  C   UNL     1      45.279   4.605  12.219  0.00  0.00    +0.000 C 
ATOM     12  O   UNL     1      44.824   3.828  13.064  0.00  0.00    +0.000 OA
BRANCH   9  14
ATOM     13  C   UNL     1      44.517   2.487   9.479  0.00  0.00    +0.000 C 
ATOM     14  C   UNL     1      43.954   3.513  10.452  0.00  0.00    +0.000 C 
ENDBRANCH   9  14
ENDBRANCH   3  11
ENDBRANCH   1   6
BRANCH   1  15
ATOM     15  C   UNL     1      48.495   8.655  15.853  0.00  0.00    +0.000 C 
BRANCH  15  16
ATOM     16  C   UNL     1      49.798   8.272  16.635  0.00  0.00    +0.000 C 
ATOM     17  C   UNL     1      51.044   8.673  15.805  0.00  0.00    +0.000 C 
ATOM     18  C   UNL     1      49.844   9.073  17.960  0.00  0.00    +0.000 C 
BRANCH  16  19
ATOM     19  C   UNL     1      49.861   6.740  16.867  0.00  0.00    +0.000 A 
ATOM     20  C   UNL     1      51.098   6.106  17.107  0.00  0.00    +0.000 A 
ATOM     21  C   UNL     1      51.176   4.741  17.399  0.00  0.00    +0.000 A 
ATOM     22  C   UNL     1      50.019   3.970  17.456  0.00  0.00    +0.000 A 
ATOM     23  C   UNL     1      48.780   4.558  17.207  0.00  0.00    +0.000 A 
ATOM     24  C   UNL     1      48.707   5.931  16.911  0.00  0.00    +0.000 A 
BRANCH  23  25
ATOM     25  C   UNL     1      47.580   3.772  17.272  0.00  0.00    +0.000 C 
ATOM     26  N   UNL     1      46.609   3.142  17.329  0.00  0.00    +0.000 NA
ENDBRANCH  23  25
ENDBRANCH  16  19
ENDBRANCH  15  16
ENDBRANCH   1  15
TORSDOF 7
ENDMDL
MODEL 6
REMARK VINA RESULT:    -5.181      3.379      8.468
REMARK INTER + INTRA:          -7.983
REMARK INTER:                  -7.108
REMARK INTRA:                  -0.875
REMARK UNBOUND:                -0.682
REMARK  Name = 
REMARK  11 active torsions:
REMARK  status: ('A' for Active; 'I' for Inactive)
REMARK    1  A    between atoms: C_1  and  C_2
REMARK    2  A    between atoms: C_2  and  N_3
REMARK    3  A    between atoms: N_3  and  C_4
REMARK    4  A    between atoms: C_5  and  C_7
REMARK    5  A    between atoms: C_10  and  N_11
REMARK    6  A    between atoms: N_11  and  C_12
REMARK    7  A    between atoms: C_12  and  C_13
REMARK    8  A    between atoms: C_13  and  C_14
REMARK    9  A    between atoms: C_13  and  C_15
REMARK   10  A    between atoms: C_13  and  C_16
REMARK   11  A    between atoms: C_20  and  C_21
REMARK                            x       y       z     vdW  Elec       q    Type
REMARK                         _______ _______ _______ _____ _____    ______ ____
ROOT
ATOM      1  N   UNL     1      50.552   7.566  14.561  0.00  0.00    +0.000 N 
ATOM      2  H   UNL     1      51.257   6.896  14.281  0.00  0.00    +0.000 HD
ENDROOT
BRANCH   1   6
ATOM      3  C   UNL     1      47.070   6.840  12.497  0.00  0.00    +0.000 A 
ATOM      4  C   UNL     1      48.283   6.922  11.829  0.00  0.00    +0.000 A 
ATOM      5  N   UNL     1      49.458   7.194  12.462  0.00  0.00    +0.000 NA
ATOM      6  C   UNL     1      49.396   7.379  13.796  0.00  0.00    +0.000 A 
ATOM      7  C   UNL     1      48.159   7.320  14.449  0.00  0.00    +0.000 A 
ATOM      8  N   UNL     1      46.981   7.055  13.832  0.00  0.00    +0.000 NA
BRANCH   3  11
ATOM      9  N   UNL     1      45.394   5.098  11.818  0.00  0.00    +0.000 N 
ATOM     10  C   UNL     1      45.931   4.116  12.750  0.00  0.00    +0.000 C 
ATOM     11  C   UNL     1      45.851   6.422  11.749  0.00  0.00    +0.000 C 
ATOM     12  O   UNL     1      45.275   7.278  11.069  0.00  0.00    +0.000 OA
BRANCH   9  14
ATOM     13  C   UNL     1      43.006   4.427  11.795  0.00  0.00    +0.000 C 
ATOM     14  C   UNL     1      44.264   4.700  10.985  0.00  0.00    +0.000 C 
ENDBRANCH   9  14
ENDBRANCH   3  11
ENDBRANCH   1   6
BRANCH   1  15
ATOM     15  C   UNL     1      50.388   7.715  16.013  0.00  0.00    +0.000 C 
BRANCH  15  16
ATOM     16  C   UNL     1      51.463   6.902  16.812  0.00  0.00    +0.000 C 
ATOM     17  C   UNL     1      52.772   6.814  15.987  0.00  0.00    +0.000 C 
ATOM     18  C   UNL     1      51.790   7.655  18.126  0.00  0.00    +0.000 C 
BRANCH  16  19
ATOM     19  C   UNL     1      50.970   5.454  17.067  0.00  0.00    +0.000 A 
ATOM     20  C   UNL     1      51.884   4.444  17.434  0.00  0.00    +0.000 A 
ATOM     21  C   UNL     1      51.457   3.150  17.748  0.00  0.00    +0.000 A 
ATOM     22  C   UNL     1      50.104   2.828  17.700  0.00  0.00    +0.000 A 
ATOM     23  C   UNL     1      49.173   3.796  17.324  0.00  0.00    +0.000 A 
ATOM     24  C   UNL     1      49.607   5.095  17.007  0.00  0.00    +0.000 A 
BRANCH  23  25
ATOM     25  C   UNL     1      47.774   3.475  17.281  0.00  0.00    +0.000 C 
ATOM     26  N   UNL     1      46.645   3.215  17.239  0.00  0.00    +0.000 NA
ENDBRANCH  23  25
ENDBRANCH  16  19
ENDBRANCH  15  16
ENDBRANCH   1  15
TORSDOF 7
ENDMDL
MODEL 7
REMARK VINA RESULT:    -5.130      3.559      8.550
REMARK INTER + INTRA:          -7.912
REMARK INTER:                  -7.474
REMARK INTRA:                  -0.438
REMARK UNBOUND:                -0.682
REMARK  Name = 
REMARK  11 active torsions:
REMARK  status: ('A' for Active; 'I' for Inactive)
REMARK    1  A    between atoms: C_1  and  C_2
REMARK    2  A    between atoms: C_2  and  N_3
REMARK    3  A    between atoms: N_3  and  C_4
REMARK    4  A    between atoms: C_5  and  C_7
REMARK    5  A    between atoms: C_10  and  N_11
REMARK    6  A    between atoms: N_11  and  C_12
REMARK    7  A    between atoms: C_12  and  C_13
REMARK    8  A    between atoms: C_13  and  C_14
REMARK    9  A    between atoms: C_13  and  C_15
REMARK   10  A    between atoms: C_13  and  C_16
REMARK   11  A    between atoms: C_20  and  C_21
REMARK                            x       y       z     vdW  Elec       q    Type
REMARK                         _______ _______ _______ _____ _____    ______ ____
ROOT
ATOM      1  N   UNL     1      46.334   8.466  13.453  0.00  0.00    +0.000 N 
ATOM      2  H   UNL     1      45.673   8.837  14.125  0.00  0.00    +0.000 HD
ENDROOT
BRANCH   1   6
ATOM      3  C   UNL     1      45.081   4.939  11.752  0.00  0.00    +0.000 A 
ATOM      4  C   UNL     1      44.485   6.141  11.402  0.00  0.00    +0.000 A 
ATOM      5  N   UNL     1      44.841   7.332  11.961  0.00  0.00    +0.000 NA
ATOM      6  C   UNL     1      45.821   7.295  12.887  0.00  0.00    +0.000 A 
ATOM      7  C   UNL     1      46.391   6.068  13.247  0.00  0.00    +0.000 A 
ATOM      8  N   UNL     1      46.044   4.876  12.703  0.00  0.00    +0.000 NA
BRANCH   3  11
ATOM      9  N   UNL     1      44.949   3.605   9.628  0.00  0.00    +0.000 N 
ATOM     10  C   UNL     1      45.721   4.586   8.880  0.00  0.00    +0.000 C 
ATOM     11  C   UNL     1      44.716   3.700  11.009  0.00  0.00    +0.000 C 
ATOM     12  O   UNL     1      44.199   2.779  11.650  0.00  0.00    +0.000 OA
BRANCH   9  14
ATOM     13  C   UNL     1      45.610   1.496   8.501  0.00  0.00    +0.000 C 
ATOM     14  C   UNL     1      44.477   2.422   8.916  0.00  0.00    +0.000 C 
ENDBRANCH   9  14
ENDBRANCH   3  11
ENDBRANCH   1   6
BRANCH   1  15
ATOM     15  C   UNL     1      46.911   9.465  12.544  0.00  0.00    +0.000 C 
BRANCH  15  16
ATOM     16  C   UNL     1      48.474   9.367  12.480  0.00  0.00    +0.000 C 
ATOM     17  C   UNL     1      48.887   8.099  11.691  0.00  0.00    +0.000 C 
ATOM     18  C   UNL     1      49.024  10.594  11.711  0.00  0.00    +0.000 C 
BRANCH  16  19
ATOM     19  C   UNL     1      49.069   9.248  13.907  0.00  0.00    +0.000 A 
ATOM     20  C   UNL     1      48.979  10.328  14.809  0.00  0.00    +0.000 A 
ATOM     21  C   UNL     1      49.435  10.222  16.126  0.00  0.00    +0.000 A 
ATOM     22  C   UNL     1      49.997   9.031  16.579  0.00  0.00    +0.000 A 
ATOM     23  C   UNL     1      50.118   7.948  15.710  0.00  0.00    +0.000 A 
ATOM     24  C   UNL     1      49.661   8.060  14.386  0.00  0.00    +0.000 A 
BRANCH  23  25
ATOM     25  C   UNL     1      50.689   6.713  16.172  0.00  0.00    +0.000 C 
ATOM     26  N   UNL     1      51.149   5.719  16.551  0.00  0.00    +0.000 NA
ENDBRANCH  23  25
ENDBRANCH  16  19
ENDBRANCH  15  16
ENDBRANCH   1  15
TORSDOF 7
ENDMDL
MODEL 8
REMARK VINA RESULT:    -5.120      3.030      5.068
REMARK INTER + INTRA:          -7.898
REMARK INTER:                  -7.517
REMARK INTRA:                  -0.381
REMARK UNBOUND:                -0.682
REMARK  Name = 
REMARK  11 active torsions:
REMARK  status: ('A' for Active; 'I' for Inactive)
REMARK    1  A    between atoms: C_1  and  C_2
REMARK    2  A    between atoms: C_2  and  N_3
REMARK    3  A    between atoms: N_3  and  C_4
REMARK    4  A    between atoms: C_5  and  C_7
REMARK    5  A    between atoms: C_10  and  N_11
REMARK    6  A    between atoms: N_11  and  C_12
REMARK    7  A    between atoms: C_12  and  C_13
REMARK    8  A    between atoms: C_13  and  C_14
REMARK    9  A    between atoms: C_13  and  C_15
REMARK   10  A    between atoms: C_13  and  C_16
REMARK   11  A    between atoms: C_20  and  C_21
REMARK                            x       y       z     vdW  Elec       q    Type
REMARK                         _______ _______ _______ _____ _____    ______ ____
ROOT
ATOM      1  N   UNL     1      46.471   4.181  14.001  0.00  0.00    +0.000 N 
ATOM      2  H   UNL     1      46.334   3.204  13.773  0.00  0.00    +0.000 HD
ENDROOT
BRANCH   1   6
ATOM      3  C   UNL     1      48.768   4.603  17.386  0.00  0.00    +0.000 A 
ATOM      4  C   UNL     1      48.045   3.441  17.164  0.00  0.00    +0.000 A 
ATOM      5  N   UNL     1      47.244   3.265  16.076  0.00  0.00    +0.000 NA
ATOM      6  C   UNL     1      47.183   4.289  15.200  0.00  0.00    +0.000 A 
ATOM      7  C   UNL     1      47.897   5.465  15.456  0.00  0.00    +0.000 A 
ATOM      8  N   UNL     1      48.694   5.656  16.535  0.00  0.00    +0.000 NA
BRANCH   3  11
ATOM      9  N   UNL     1      51.066   4.969  18.330  0.00  0.00    +0.000 N 
ATOM     10  C   UNL     1      51.595   5.425  17.053  0.00  0.00    +0.000 C 
ATOM     11  C   UNL     1      49.711   4.669  18.538  0.00  0.00    +0.000 C 
ATOM     12  O   UNL     1      49.256   4.442  19.664  0.00  0.00    +0.000 OA
BRANCH   9  14
ATOM     13  C   UNL     1      52.890   3.695  19.427  0.00  0.00    +0.000 C 
ATOM     14  C   UNL     1      51.980   4.914  19.466  0.00  0.00    +0.000 C 
ENDBRANCH   9  14
ENDBRANCH   3  11
ENDBRANCH   1   6
BRANCH   1  15
ATOM     15  C   UNL     1      46.905   5.020  12.876  0.00  0.00    +0.000 C 
BRANCH  15  16
ATOM     16  C   UNL     1      45.719   5.840  12.263  0.00  0.00    +0.000 C 
ATOM     17  C   UNL     1      45.462   5.381  10.806  0.00  0.00    +0.000 C 
ATOM     18  C   UNL     1      44.433   5.550  13.077  0.00  0.00    +0.000 C 
BRANCH  16  19
ATOM     19  C   UNL     1      46.067   7.352  12.226  0.00  0.00    +0.000 A 
ATOM     20  C   UNL     1      47.412   7.774  12.281  0.00  0.00    +0.000 A 
ATOM     21  C   UNL     1      47.760   9.123  12.169  0.00  0.00    +0.000 A 
ATOM     22  C   UNL     1      46.772  10.090  12.001  0.00  0.00    +0.000 A 
ATOM     23  C   UNL     1      45.431   9.711  11.960  0.00  0.00    +0.000 A 
ATOM     24  C   UNL     1      45.086   8.352  12.076  0.00  0.00    +0.000 A 
BRANCH  23  25
ATOM     25  C   UNL     1      44.405  10.700  11.779  0.00  0.00    +0.000 C 
ATOM     26  N   UNL     1      43.583  11.502  11.628  0.00  0.00    +0.000 NA
ENDBRANCH  23  25
ENDBRANCH  16  19
ENDBRANCH  15  16
ENDBRANCH   1  15
TORSDOF 7
ENDMDL
MODEL 9
REMARK VINA RESULT:    -4.940      4.865      7.996
REMARK INTER + INTRA:          -7.643
REMARK INTER:                  -6.963
REMARK INTRA:                  -0.680
REMARK UNBOUND:                -0.682
REMARK  Name = 
REMARK  11 active torsions:
REMARK  status: ('A' for Active; 'I' for Inactive)
REMARK    1  A    between atoms: C_1  and  C_2
REMARK    2  A    between atoms: C_2  and  N_3
REMARK    3  A    between atoms: N_3  and  C_4
REMARK    4  A    between atoms: C_5  and  C_7
REMARK    5  A    between atoms: C_10  and  N_11
REMARK    6  A    between atoms: N_11  and  C_12
REMARK    7  A    between atoms: C_12  and  C_13
REMARK    8  A    between atoms: C_13  and  C_14
REMARK    9  A    between atoms: C_13  and  C_15
REMARK   10  A    between atoms: C_13  and  C_16
REMARK   11  A    between atoms: C_20  and  C_21
REMARK                            x       y       z     vdW  Elec       q    Type
REMARK                         _______ _______ _______ _____ _____    ______ ____
ROOT
ATOM      1  N   UNL     1      48.035   8.904  13.494  0.00  0.00    +0.000 N 
ATOM      2  H   UNL     1      47.518   9.555  14.072  0.00  0.00    +0.000 HD
ENDROOT
BRANCH   1   6
ATOM      3  C   UNL     1      45.939   5.476  12.620  0.00  0.00    +0.000 A 
ATOM      4  C   UNL     1      45.292   6.700  12.688  0.00  0.00    +0.000 A 
ATOM      5  N   UNL     1      45.934   7.859  13.006  0.00  0.00    +0.000 NA
ATOM      6  C   UNL     1      47.257   7.767  13.254  0.00  0.00    +0.000 A 
ATOM      7  C   UNL     1      47.887   6.517  13.209  0.00  0.00    +0.000 A 
ATOM      8  N   UNL     1      47.260   5.356  12.899  0.00  0.00    +0.000 NA
BRANCH   3  11
ATOM      9  N   UNL     1      44.872   4.125  10.792  0.00  0.00    +0.000 N 
ATOM     10  C   UNL     1      45.408   4.985   9.747  0.00  0.00    +0.000 C 
ATOM     11  C   UNL     1      45.188   4.278  12.151  0.00  0.00    +0.000 C 
ATOM     12  O   UNL     1      44.853   3.443  12.998  0.00  0.00    +0.000 OA
BRANCH   9  14
ATOM     13  C   UNL     1      44.666   2.179   9.268  0.00  0.00    +0.000 C 
ATOM     14  C   UNL     1      44.039   2.997  10.387  0.00  0.00    +0.000 C 
ENDBRANCH   9  14
ENDBRANCH   3  11
ENDBRANCH   1   6
BRANCH   1  15
ATOM     15  C   UNL     1      48.720   9.512  12.346  0.00  0.00    +0.000 C 
BRANCH  15  16
ATOM     16  C   UNL     1      50.228   9.809  12.652  0.00  0.00    +0.000 C 
ATOM     17  C   UNL     1      50.411  11.313  12.974  0.00  0.00    +0.000 C 
ATOM     18  C   UNL     1      50.654   9.009  13.908  0.00  0.00    +0.000 C 
BRANCH  16  19
ATOM     19  C   UNL     1      51.107   9.481  11.416  0.00  0.00    +0.000 A 
ATOM     20  C   UNL     1      51.432  10.491  10.486  0.00  0.00    +0.000 A 
ATOM     21  C   UNL     1      52.287  10.244   9.408  0.00  0.00    +0.000 A 
ATOM     22  C   UNL     1      52.839   8.979   9.227  0.00  0.00    +0.000 A 
ATOM     23  C   UNL     1      52.525   7.952  10.116  0.00  0.00    +0.000 A 
ATOM     24  C   UNL     1      51.663   8.204  11.198  0.00  0.00    +0.000 A 
BRANCH  23  25
ATOM     25  C   UNL     1      53.097   6.646   9.942  0.00  0.00    +0.000 C 
ATOM     26  N   UNL     1      53.557   5.591   9.808  0.00  0.00    +0.000 NA
ENDBRANCH  23  25
ENDBRANCH  16  19
ENDBRANCH  15  16
ENDBRANCH   1  15
TORSDOF 7
ENDMDL
