MODEL 1
REMARK VINA RESULT:    -9.286      0.000      0.000
REMARK INTER + INTRA:         -12.973
REMARK INTER:                 -12.000
REMARK INTRA:                  -0.972
REMARK UNBOUND:                -0.972
REMARK  Name = 
REMARK  6 active torsions:
REMARK  status: ('A' for Active; 'I' for Inactive)
REMARK    1  A    between atoms: C_1  and  O_2
REMARK    2  A    between atoms: O_2  and  C_3
REMARK    3  A    between atoms: C_7  and  C_8
REMARK    4  A    between atoms: C_12  and  C_13
REMARK    5  A    between atoms: C_13  and  N_14
REMARK    6  A    between atoms: C_18  and  C_19
REMARK                            x       y       z     vdW  Elec       q    Type
REMARK                         _______ _______ _______ _____ _____    ______ ____
ROOT
ATOM      1  C   UNL     1      43.912   5.092  11.132  0.00  0.00    +0.000 C 
ATOM      2  C   UNL     1      42.633   5.757  11.625  0.00  0.00    +0.000 C 
ATOM      3  C   UNL     1      42.749   4.271  11.663  0.00  0.00    +0.000 C 
ENDROOT
BRANCH   1   4
ATOM      4  N   UNL     1      44.194   5.103   9.684  0.00  0.00    +0.000 N 
ATOM      5  C   UNL     1      45.015   4.161   9.046  0.00  0.00    +0.000 A 
ATOM      6  C   UNL     1      45.052   2.815   9.395  0.00  0.00    +0.000 A 
ATOM      7  C   UNL     1      45.821   1.922   8.640  0.00  0.00    +0.000 A 
ATOM      8  C   UNL     1      46.554   2.385   7.551  0.00  0.00    +0.000 A 
ATOM      9  C   UNL     1      46.472   3.742   7.280  0.00  0.00    +0.000 A 
ATOM     10  N   UNL     1      45.724   4.626   7.994  0.00  0.00    +0.000 NA
ATOM     11  H   UNL     1      44.451   6.004   9.283  0.00  0.00    +0.000 HD
BRANCH   8  12
ATOM     12  C   UNL     1      47.356   1.421   6.757  0.00  0.00    +0.000 C 
ATOM     13  N   UNL     1      48.435   1.871   6.049  0.00  0.00    +0.000 N 
ATOM     14  O   UNL     1      47.064   0.230   6.732  0.00  0.00    +0.000 OA
ATOM     15  H   UNL     1      48.750   2.825   5.986  0.00  0.00    +0.000 HD
ATOM     16  H   UNL     1      48.942   1.177   5.514  0.00  0.00    +0.000 HD
ENDBRANCH   8  12
ENDBRANCH   1   4
BRANCH   1  21
ATOM     17  C   UNL     1      47.171   6.667  12.487  0.00  0.00    +0.000 A 
ATOM     18  C   UNL     1      47.408   5.853  13.604  0.00  0.00    +0.000 A 
ATOM     19  C   UNL     1      46.548   4.799  13.923  0.00  0.00    +0.000 A 
ATOM     20  C   UNL     1      45.425   4.551  13.130  0.00  0.00    +0.000 A 
ATOM     21  C   UNL     1      45.144   5.332  11.998  0.00  0.00    +0.000 A 
ATOM     22  C   UNL     1      46.037   6.372  11.700  0.00  0.00    +0.000 A 
BRANCH  17  27
ATOM     23  C   UNL     1      50.254   8.652  11.523  0.00  0.00    +0.000 A 
ATOM     24  C   UNL     1      49.710   9.926  11.571  0.00  0.00    +0.000 A 
ATOM     25  N   UNL     1      48.411  10.189  11.843  0.00  0.00    +0.000 NA
ATOM     26  C   UNL     1      47.622   9.119  12.111  0.00  0.00    +0.000 A 
ATOM     27  C   UNL     1      48.052   7.792  12.122  0.00  0.00    +0.000 A 
ATOM     28  C   UNL     1      49.404   7.583  11.799  0.00  0.00    +0.000 A 
BRANCH  23  30
ATOM     29  C   UNL     1      51.957   7.507  10.356  0.00  0.00    +0.000 C 
ATOM     30  O   UNL     1      51.587   8.553  11.250  0.00  0.00    +0.000 OA
ENDBRANCH  23  30
ENDBRANCH  17  27
ENDBRANCH   1  21
TORSDOF 5
ENDMDL
MODEL 2
REMARK VINA RESULT:    -9.111      2.739      4.214
REMARK INTER + INTRA:         -12.746
REMARK INTER:                 -11.889
REMARK INTRA:                  -0.857
REMARK UNBOUND:                -0.972
REMARK  Name = 
REMARK  6 active torsions:
REMARK  status: ('A' for Active; 'I' for Inactive)
REMARK    1  A    between atoms: C_1  and  O_2
REMARK    2  A    between atoms: O_2  and  C_3
REMARK    3  A    between atoms: C_7  and  C_8
REMARK    4  A    between atoms: C_12  and  C_13
REMARK    5  A    between atoms: C_13  and  N_14
REMARK    6  A    between atoms: C_18  and  C_19
REMARK                            x       y       z     vdW  Elec       q    Type
REMARK                         _______ _______ _______ _____ _____    ______ ____
ROOT
ATOM      1  C   UNL     1      43.945   5.140  11.215  0.00  0.00    +0.000 C 
ATOM      2  C   UNL     1      42.563   5.526  11.728  0.00  0.00    +0.000 C 
ATOM      3  C   UNL     1      43.026   4.115  11.857  0.00  0.00    +0.000 C 
ENDROOT
BRANCH   1   4
ATOM      4  N   UNL     1      44.167   5.106   9.757  0.00  0.00    +0.000 N 
ATOM      5  C   UNL     1      44.993   4.169   9.120  0.00  0.00    +0.000 A 
ATOM      6  C   UNL     1      45.093   2.839   9.515  0.00  0.00    +0.000 A 
ATOM      7  C   UNL     1      45.860   1.944   8.761  0.00  0.00    +0.000 A 
ATOM      8  C   UNL     1      46.531   2.390   7.626  0.00  0.00    +0.000 A 
ATOM      9  C   UNL     1      46.391   3.732   7.310  0.00  0.00    +0.000 A 
ATOM     10  N   UNL     1      45.642   4.618   8.023  0.00  0.00    +0.000 NA
ATOM     11  H   UNL     1      44.375   5.999   9.313  0.00  0.00    +0.000 HD
BRANCH   8  12
ATOM     12  C   UNL     1      47.334   1.425   6.835  0.00  0.00    +0.000 C 
ATOM     13  N   UNL     1      48.314   1.891   6.004  0.00  0.00    +0.000 N 
ATOM     14  O   UNL     1      47.129   0.219   6.920  0.00  0.00    +0.000 OA
ATOM     15  H   UNL     1      48.552   2.856   5.846  0.00  0.00    +0.000 HD
ATOM     16  H   UNL     1      48.825   1.193   5.477  0.00  0.00    +0.000 HD
ENDBRANCH   8  12
ENDBRANCH   1   4
BRANCH   1  21
ATOM     17  C   UNL     1      46.787   5.491  13.810  0.00  0.00    +0.000 A 
ATOM     18  C   UNL     1      47.319   6.737  13.446  0.00  0.00    +0.000 A 
ATOM     19  C   UNL     1      46.773   7.472  12.391  0.00  0.00    +0.000 A 
ATOM     20  C   UNL     1      45.689   6.963  11.674  0.00  0.00    +0.000 A 
ATOM     21  C   UNL     1      45.115   5.724  12.000  0.00  0.00    +0.000 A 
ATOM     22  C   UNL     1      45.679   5.020  13.074  0.00  0.00    +0.000 A 
BRANCH  17  27
ATOM     23  C   UNL     1      48.376   4.529  17.115  0.00  0.00    +0.000 A 
ATOM     24  C   UNL     1      48.490   3.163  16.907  0.00  0.00    +0.000 A 
ATOM     25  N   UNL     1      48.047   2.522  15.800  0.00  0.00    +0.000 NA
ATOM     26  C   UNL     1      47.488   3.298  14.838  0.00  0.00    +0.000 A 
ATOM     27  C   UNL     1      47.341   4.682  14.913  0.00  0.00    +0.000 A 
ATOM     28  C   UNL     1      47.790   5.284  16.101  0.00  0.00    +0.000 A 
BRANCH  23  30
ATOM     29  C   UNL     1      47.948   5.663  19.140  0.00  0.00    +0.000 C 
ATOM     30  O   UNL     1      48.887   5.026  18.279  0.00  0.00    +0.000 OA
ENDBRANCH  23  30
ENDBRANCH  17  27
ENDBRANCH   1  21
TORSDOF 5
ENDMDL
MODEL 3
REMARK VINA RESULT:    -7.432      1.778      2.384
REMARK INTER + INTRA:         -10.577
REMARK INTER:                 -10.272
REMARK INTRA:                  -0.305
REMARK UNBOUND:                -0.972
REMARK  Name = 
REMARK  6 active torsions:
REMARK  status: ('A' for Active; 'I' for Inactive)
REMARK    1  A    between atoms: C_1  and  O_2
REMARK    2  A    between atoms: O_2  and  C_3
REMARK    3  A    between atoms: C_7  and  C_8
REMARK    4  A    between atoms: C_12  and  C_13
REMARK    5  A    between atoms: C_13  and  N_14
REMARK    6  A    between atoms: C_18  and  C_19
REMARK                            x       y       z     vdW  Elec       q    Type
REMARK                         _______ _______ _______ _____ _____    ______ ____
ROOT
ATOM      1  C   UNL     1      43.831   5.393  11.107  0.00  0.00    +0.000 C 
ATOM      2  C   UNL     1      42.495   5.126  11.788  0.00  0.00    +0.000 C 
ATOM      3  C   UNL     1      43.657   4.239  12.079  0.00  0.00    +0.000 C 
ENDROOT
BRANCH   1   4
ATOM      4  N   UNL     1      43.951   5.117   9.663  0.00  0.00    +0.000 N 
ATOM      5  C   UNL     1      44.787   4.125   9.130  0.00  0.00    +0.000 A 
ATOM      6  C   UNL     1      44.998   2.891   9.735  0.00  0.00    +0.000 A 
ATOM      7  C   UNL     1      45.765   1.918   9.085  0.00  0.00    +0.000 A 
ATOM      8  C   UNL     1      46.324   2.192   7.840  0.00  0.00    +0.000 A 
ATOM      9  C   UNL     1      46.076   3.450   7.312  0.00  0.00    +0.000 A 
ATOM     10  N   UNL     1      45.326   4.407   7.923  0.00  0.00    +0.000 NA
ATOM     11  H   UNL     1      44.070   5.928   9.059  0.00  0.00    +0.000 HD
BRANCH   8  12
ATOM     12  C   UNL     1      47.127   1.145   7.162  0.00  0.00    +0.000 C 
ATOM     13  N   UNL     1      48.162   1.515   6.349  0.00  0.00    +0.000 N 
ATOM     14  O   UNL     1      46.875  -0.045   7.324  0.00  0.00    +0.000 OA
ATOM     15  H   UNL     1      48.441   2.458   6.134  0.00  0.00    +0.000 HD
ATOM     16  H   UNL     1      48.671   0.764   5.900  0.00  0.00    +0.000 HD
ENDBRANCH   8  12
ENDBRANCH   1   4
BRANCH   1  21
ATOM     17  C   UNL     1      46.466   7.757  12.659  0.00  0.00    +0.000 A 
ATOM     18  C   UNL     1      45.918   9.007  12.333  0.00  0.00    +0.000 A 
ATOM     19  C   UNL     1      44.712   9.104  11.636  0.00  0.00    +0.000 A 
ATOM     20  C   UNL     1      44.038   7.946  11.242  0.00  0.00    +0.000 A 
ATOM     21  C   UNL     1      44.540   6.671  11.547  0.00  0.00    +0.000 A 
ATOM     22  C   UNL     1      45.746   6.611  12.261  0.00  0.00    +0.000 A 
BRANCH  17  27
ATOM     23  C   UNL     1      50.097   8.177  13.666  0.00  0.00    +0.000 A 
ATOM     24  C   UNL     1      50.147   7.235  14.681  0.00  0.00    +0.000 A 
ATOM     25  N   UNL     1      49.083   6.508  15.098  0.00  0.00    +0.000 NA
ATOM     26  C   UNL     1      47.916   6.717  14.441  0.00  0.00    +0.000 A 
ATOM     27  C   UNL     1      47.741   7.614  13.388  0.00  0.00    +0.000 A 
ATOM     28  C   UNL     1      48.874   8.362  13.024  0.00  0.00    +0.000 A 
BRANCH  23  30
ATOM     29  C   UNL     1      51.714   9.773  14.304  0.00  0.00    +0.000 C 
ATOM     30  O   UNL     1      51.261   8.816  13.351  0.00  0.00    +0.000 OA
ENDBRANCH  23  30
ENDBRANCH  17  27
ENDBRANCH   1  21
TORSDOF 5
ENDMDL
MODEL 4
REMARK VINA RESULT:    -6.963      5.166      8.341
REMARK INTER + INTRA:          -9.971
REMARK INTER:                  -8.994
REMARK INTRA:                  -0.977
REMARK UNBOUND:                -0.972
REMARK  Name = 
REMARK  6 active torsions:
REMARK  status: ('A' for Active; 'I' for Inactive)
REMARK    1  A    between atoms: C_1  and  O_2
REMARK    2  A    between atoms: O_2  and  C_3
REMARK    3  A    between atoms: C_7  and  C_8
REMARK    4  A    between atoms: C_12  and  C_13
REMARK    5  A    between atoms: C_13  and  N_14
REMARK    6  A    between atoms: C_18  and  C_19
REMARK                            x       y       z     vdW  Elec       q    Type
REMARK                         _______ _______ _______ _____ _____    ______ ____
ROOT
ATOM      1  C   UNL     1      48.975   7.295  16.828  0.00  0.00    +0.000 C 
ATOM      2  C   UNL     1      48.314   8.534  17.419  0.00  0.00    +0.000 C 
ATOM      3  C   UNL     1      49.782   8.335  17.587  0.00  0.00    +0.000 C 
ENDROOT
BRANCH   1   4
ATOM      4  N   UNL     1      48.701   5.988  17.454  0.00  0.00    +0.000 N 
ATOM      5  C   UNL     1      49.601   4.912  17.431  0.00  0.00    +0.000 A 
ATOM      6  C   UNL     1      50.979   5.062  17.537  0.00  0.00    +0.000 A 
ATOM      7  C   UNL     1      51.799   3.931  17.610  0.00  0.00    +0.000 A 
ATOM      8  C   UNL     1      51.234   2.660  17.565  0.00  0.00    +0.000 A 
ATOM      9  C   UNL     1      49.854   2.598  17.446  0.00  0.00    +0.000 A 
ATOM     10  N   UNL     1      49.037   3.685  17.383  0.00  0.00    +0.000 NA
ATOM     11  H   UNL     1      47.786   5.582  17.264  0.00  0.00    +0.000 HD
BRANCH   8  12
ATOM     12  C   UNL     1      52.119   1.472  17.653  0.00  0.00    +0.000 C 
ATOM     13  N   UNL     1      51.599   0.279  18.072  0.00  0.00    +0.000 N 
ATOM     14  O   UNL     1      53.305   1.548  17.353  0.00  0.00    +0.000 OA
ATOM     15  H   UNL     1      50.648   0.111  18.358  0.00  0.00    +0.000 HD
ATOM     16  H   UNL     1      52.246  -0.498  18.126  0.00  0.00    +0.000 HD
ENDBRANCH   8  12
ENDBRANCH   1   4
BRANCH   1  21
ATOM     17  C   UNL     1      47.948   6.609  13.166  0.00  0.00    +0.000 A 
ATOM     18  C   UNL     1      49.027   7.184  12.481  0.00  0.00    +0.000 A 
ATOM     19  C   UNL     1      50.086   7.777  13.173  0.00  0.00    +0.000 A 
ATOM     20  C   UNL     1      50.073   7.813  14.569  0.00  0.00    +0.000 A 
ATOM     21  C   UNL     1      49.019   7.247  15.304  0.00  0.00    +0.000 A 
ATOM     22  C   UNL     1      47.981   6.648  14.577  0.00  0.00    +0.000 A 
BRANCH  17  27
ATOM     23  C   UNL     1      45.062   4.281  12.372  0.00  0.00    +0.000 A 
ATOM     24  C   UNL     1      44.766   4.736  11.097  0.00  0.00    +0.000 A 
ATOM     25  N   UNL     1      45.396   5.771  10.492  0.00  0.00    +0.000 NA
ATOM     26  C   UNL     1      46.396   6.360  11.194  0.00  0.00    +0.000 A 
ATOM     27  C   UNL     1      46.808   5.980  12.471  0.00  0.00    +0.000 A 
ATOM     28  C   UNL     1      46.093   4.921  13.057  0.00  0.00    +0.000 A 
BRANCH  23  30
ATOM     29  C   UNL     1      43.404   2.663  11.919  0.00  0.00    +0.000 C 
ATOM     30  O   UNL     1      44.346   3.216  12.835  0.00  0.00    +0.000 OA
ENDBRANCH  23  30
ENDBRANCH  17  27
ENDBRANCH   1  21
TORSDOF 5
ENDMDL
MODEL 5
REMARK VINA RESULT:    -6.861      3.403      8.116
REMARK INTER + INTRA:          -9.838
REMARK INTER:                  -8.868
REMARK INTRA:                  -0.970
REMARK UNBOUND:                -0.972
REMARK  Name = 
REMARK  6 active torsions:
REMARK  status: ('A' for Active; 'I' for Inactive)
REMARK    1  A    between atoms: C_1  and  O_2
REMARK    2  A    between atoms: O_2  and  C_3
REMARK    3  A    between atoms: C_7  and  C_8
REMARK    4  A    between atoms: C_12  and  C_13
REMARK    5  A    between atoms: C_13  and  N_14
REMARK    6  A    between atoms: C_18  and  C_19
REMARK                            x       y       z     vdW  Elec       q    Type
REMARK                         _______ _______ _______ _____ _____    ______ ____
ROOT
ATOM      1  C   UNL     1      49.107   8.450  12.624  0.00  0.00    +0.000 C 
ATOM      2  C   UNL     1      49.853   9.198  11.527  0.00  0.00    +0.000 C 
ATOM      3  C   UNL     1      50.159   7.760  11.773  0.00  0.00    +0.000 C 
ENDROOT
BRANCH   1   4
ATOM      4  N   UNL     1      49.409   8.781  14.030  0.00  0.00    +0.000 N 
ATOM      5  C   UNL     1      48.999   7.997  15.117  0.00  0.00    +0.000 A 
ATOM      6  C   UNL     1      48.962   6.607  15.091  0.00  0.00    +0.000 A 
ATOM      7  C   UNL     1      48.639   5.897  16.253  0.00  0.00    +0.000 A 
ATOM      8  C   UNL     1      48.345   6.584  17.427  0.00  0.00    +0.000 A 
ATOM      9  C   UNL     1      48.391   7.968  17.365  0.00  0.00    +0.000 A 
ATOM     10  N   UNL     1      48.711   8.678  16.248  0.00  0.00    +0.000 NA
ATOM     11  H   UNL     1      49.241   9.746  14.310  0.00  0.00    +0.000 HD
BRANCH   8  12
ATOM     12  C   UNL     1      48.014   5.814  18.651  0.00  0.00    +0.000 C 
ATOM     13  N   UNL     1      46.705   5.542  18.939  0.00  0.00    +0.000 N 
ATOM     14  O   UNL     1      48.897   5.417  19.403  0.00  0.00    +0.000 OA
ATOM     15  H   UNL     1      45.904   5.835  18.403  0.00  0.00    +0.000 HD
ATOM     16  H   UNL     1      46.530   5.025  19.791  0.00  0.00    +0.000 HD
ENDBRANCH   8  12
ENDBRANCH   1   4
BRANCH   1  21
ATOM     17  C   UNL     1      45.826   6.749  11.491  0.00  0.00    +0.000 A 
ATOM     18  C   UNL     1      44.885   7.709  11.889  0.00  0.00    +0.000 A 
ATOM     19  C   UNL     1      45.285   8.898  12.503  0.00  0.00    +0.000 A 
ATOM     20  C   UNL     1      46.640   9.140  12.739  0.00  0.00    +0.000 A 
ATOM     21  C   UNL     1      47.623   8.215  12.356  0.00  0.00    +0.000 A 
ATOM     22  C   UNL     1      47.187   7.039  11.729  0.00  0.00    +0.000 A 
BRANCH  17  27
ATOM     23  C   UNL     1      45.233   4.093   8.852  0.00  0.00    +0.000 A 
ATOM     24  C   UNL     1      44.599   3.146   9.641  0.00  0.00    +0.000 A 
ATOM     25  N   UNL     1      44.392   3.280  10.972  0.00  0.00    +0.000 NA
ATOM     26  C   UNL     1      44.817   4.438  11.535  0.00  0.00    +0.000 A 
ATOM     27  C   UNL     1      45.443   5.478  10.847  0.00  0.00    +0.000 A 
ATOM     28  C   UNL     1      45.658   5.264   9.475  0.00  0.00    +0.000 A 
BRANCH  23  30
ATOM     29  C   UNL     1      46.680   3.607   7.051  0.00  0.00    +0.000 C 
ATOM     30  O   UNL     1      45.351   3.816   7.521  0.00  0.00    +0.000 OA
ENDBRANCH  23  30
ENDBRANCH  17  27
ENDBRANCH   1  21
TORSDOF 5
ENDMDL
MODEL 6
REMARK VINA RESULT:    -6.728      2.252      3.118
REMARK INTER + INTRA:          -9.667
REMARK INTER:                  -9.390
REMARK INTRA:                  -0.276
REMARK UNBOUND:                -0.972
REMARK  Name = 
REMARK  6 active torsions:
REMARK  status: ('A' for Active; 'I' for Inactive)
REMARK    1  A    between atoms: C_1  and  O_2
REMARK    2  A    between atoms: O_2  and  C_3
REMARK    3  A    between atoms: C_7  and  C_8
REMARK    4  A    between atoms: C_12  and  C_13
REMARK    5  A    between atoms: C_13  and  N_14
REMARK    6  A    between atoms: C_18  and  C_19
REMARK                            x       y       z     vdW  Elec       q    Type
REMARK                         _______ _______ _______ _____ _____    ______ ____
ROOT
ATOM      1  C   UNL     1      43.975   5.254  11.990  0.00  0.00    +0.000 C 
ATOM      2  C   UNL     1      42.579   5.425  11.405  0.00  0.00    +0.000 C 
ATOM      3  C   UNL     1      42.734   5.094  12.851  0.00  0.00    +0.000 C 
ENDROOT
BRANCH   1   4
ATOM      4  N   UNL     1      44.754   4.060  11.608  0.00  0.00    +0.000 N 
ATOM      5  C   UNL     1      45.171   3.794  10.295  0.00  0.00    +0.000 A 
ATOM      6  C   UNL     1      45.591   4.779   9.408  0.00  0.00    +0.000 A 
ATOM      7  C   UNL     1      46.090   4.418   8.152  0.00  0.00    +0.000 A 
ATOM      8  C   UNL     1      46.152   3.075   7.789  0.00  0.00    +0.000 A 
ATOM      9  C   UNL     1      45.701   2.158   8.726  0.00  0.00    +0.000 A 
ATOM     10  N   UNL     1      45.222   2.487   9.957  0.00  0.00    +0.000 NA
ATOM     11  H   UNL     1      44.422   3.170  11.974  0.00  0.00    +0.000 HD
BRANCH   8  12
ATOM     12  C   UNL     1      46.692   2.711   6.456  0.00  0.00    +0.000 C 
ATOM     13  N   UNL     1      46.847   3.683   5.508  0.00  0.00    +0.000 N 
ATOM     14  O   UNL     1      47.002   1.553   6.198  0.00  0.00    +0.000 OA
ATOM     15  H   UNL     1      46.609   4.656   5.607  0.00  0.00    +0.000 HD
ATOM     16  H   UNL     1      47.208   3.382   4.610  0.00  0.00    +0.000 HD
ENDBRANCH   8  12
ENDBRANCH   1   4
BRANCH   1  21
ATOM     17  C   UNL     1      46.851   7.690  12.845  0.00  0.00    +0.000 A 
ATOM     18  C   UNL     1      46.411   8.851  12.191  0.00  0.00    +0.000 A 
ATOM     19  C   UNL     1      45.202   8.869  11.493  0.00  0.00    +0.000 A 
ATOM     20  C   UNL     1      44.416   7.716  11.428  0.00  0.00    +0.000 A 
ATOM     21  C   UNL     1      44.808   6.530  12.068  0.00  0.00    +0.000 A 
ATOM     22  C   UNL     1      46.020   6.552  12.772  0.00  0.00    +0.000 A 
BRANCH  17  27
ATOM     23  C   UNL     1      49.519   6.643  15.327  0.00  0.00    +0.000 A 
ATOM     24  C   UNL     1      50.464   7.617  15.047  0.00  0.00    +0.000 A 
ATOM     25  N   UNL     1      50.326   8.557  14.082  0.00  0.00    +0.000 NA
ATOM     26  C   UNL     1      49.164   8.537  13.383  0.00  0.00    +0.000 A 
ATOM     27  C   UNL     1      48.125   7.630  13.586  0.00  0.00    +0.000 A 
ATOM     28  C   UNL     1      48.344   6.658  14.578  0.00  0.00    +0.000 A 
BRANCH  23  30
ATOM     29  C   UNL     1      48.695   5.413  17.166  0.00  0.00    +0.000 C 
ATOM     30  O   UNL     1      49.800   5.776  16.342  0.00  0.00    +0.000 OA
ENDBRANCH  23  30
ENDBRANCH  17  27
ENDBRANCH   1  21
TORSDOF 5
ENDMDL
