MODEL 1
REMARK VINA RESULT:    -8.166      0.000      0.000
REMARK INTER + INTRA:          -9.204
REMARK INTER:                  -9.598
REMARK INTRA:                   0.394
REMARK UNBOUND:                 0.394
REMARK  Name = 
REMARK  3 active torsions:
REMARK  status: ('A' for Active; 'I' for Inactive)
REMARK    1  A    between atoms: C_2  and  C_4
REMARK    2  A    between atoms: N_8  and  C_9
REMARK    3  A    between atoms: C_9  and  C_10
REMARK                            x       y       z     vdW  Elec       q    Type
REMARK                         _______ _______ _______ _____ _____    ______ ____
ROOT
ATOM      1  C   UNL     1      46.406   2.667   7.549  0.00  0.00    +0.000 A 
ATOM      2  C   UNL     1      45.761   1.692   8.283  0.00  0.00    +0.000 A 
ATOM      3  N   UNL     1      44.960   1.950   9.338  0.00  0.00    +0.000 NA
ATOM      4  C   UNL     1      44.819   3.239   9.685  0.00  0.00    +0.000 A 
ATOM      5  N   UNL     1      44.032   3.456  10.804  0.00  0.00    +0.000 N 
ATOM      6  N   UNL     1      45.417   4.260   9.039  0.00  0.00    +0.000 NA
ATOM      7  C   UNL     1      46.201   3.953   7.988  0.00  0.00    +0.000 A 
ATOM      8  H   UNL     1      43.649   2.597  11.165  0.00  0.00    +0.000 HD
ENDROOT
BRANCH   1  10
ATOM      9  N   UNL     1      47.181   3.233   5.325  0.00  0.00    +0.000 N 
ATOM     10  C   UNL     1      47.240   2.369   6.381  0.00  0.00    +0.000 C 
ATOM     11  O   UNL     1      47.986   1.399   6.382  0.00  0.00    +0.000 OA
ATOM     12  H   UNL     1      47.844   3.069   4.580  0.00  0.00    +0.000 HD
ATOM     13  H   UNL     1      46.791   4.164   5.395  0.00  0.00    +0.000 HD
ENDBRANCH   1  10
BRANCH   5  14
ATOM     14  C   UNL     1      43.948   4.724  11.517  0.00  0.00    +0.000 C 
ATOM     15  C   UNL     1      42.634   5.147  12.147  0.00  0.00    +0.000 C 
ATOM     16  C   UNL     1      43.096   5.821  10.898  0.00  0.00    +0.000 C 
BRANCH  14  17
ATOM     17  C   UNL     1      45.278   5.112  12.148  0.00  0.00    +0.000 A 
ATOM     18  C   UNL     1      46.056   6.162  11.628  0.00  0.00    +0.000 A 
ATOM     19  C   UNL     1      47.170   6.658  12.312  0.00  0.00    +0.000 A 
ATOM     20  C   UNL     1      47.534   6.108  13.538  0.00  0.00    +0.000 A 
ATOM     21  C   UNL     1      46.810   5.036  14.049  0.00  0.00    +0.000 A 
ATOM     22 CL   UNL     1      47.244   4.365  15.573  0.00  0.00    +0.000 Cl
ATOM     23  C   UNL     1      45.705   4.532  13.358  0.00  0.00    +0.000 A 
ENDBRANCH  14  17
ENDBRANCH   5  14
TORSDOF 3
ENDMDL
MODEL 2
REMARK VINA RESULT:    -7.831      3.799      6.208
REMARK INTER + INTRA:          -8.811
REMARK INTER:                  -8.637
REMARK INTRA:                  -0.174
REMARK UNBOUND:                 0.394
REMARK  Name = 
REMARK  3 active torsions:
REMARK  status: ('A' for Active; 'I' for Inactive)
REMARK    1  A    between atoms: C_2  and  C_4
REMARK    2  A    between atoms: N_8  and  C_9
REMARK    3  A    between atoms: C_9  and  C_10
REMARK                            x       y       z     vdW  Elec       q    Type
REMARK                         _______ _______ _______ _____ _____    ______ ____
ROOT
ATOM      1  C   UNL     1      47.488   6.589  13.705  0.00  0.00    +0.000 A 
ATOM      2  C   UNL     1      47.483   5.327  14.264  0.00  0.00    +0.000 A 
ATOM      3  N   UNL     1      46.836   4.270  13.731  0.00  0.00    +0.000 NA
ATOM      4  C   UNL     1      46.146   4.494  12.601  0.00  0.00    +0.000 A 
ATOM      5  N   UNL     1      45.455   3.396  12.116  0.00  0.00    +0.000 N 
ATOM      6  N   UNL     1      46.081   5.692  11.988  0.00  0.00    +0.000 NA
ATOM      7  C   UNL     1      46.749   6.716  12.553  0.00  0.00    +0.000 A 
ATOM      8  H   UNL     1      45.614   2.575  12.678  0.00  0.00    +0.000 HD
ENDROOT
BRANCH   1  10
ATOM      9  N   UNL     1      47.507   8.767  14.764  0.00  0.00    +0.000 N 
ATOM     10  C   UNL     1      48.230   7.715  14.278  0.00  0.00    +0.000 C 
ATOM     11  O   UNL     1      49.452   7.684  14.347  0.00  0.00    +0.000 OA
ATOM     12  H   UNL     1      48.033   9.479  15.252  0.00  0.00    +0.000 HD
ATOM     13  H   UNL     1      46.517   8.711  14.963  0.00  0.00    +0.000 HD
ENDBRANCH   1  10
BRANCH   5  14
ATOM     14  C   UNL     1      44.442   3.459  11.070  0.00  0.00    +0.000 C 
ATOM     15  C   UNL     1      43.214   4.330  11.263  0.00  0.00    +0.000 C 
ATOM     16  C   UNL     1      43.084   2.847  11.371  0.00  0.00    +0.000 C 
BRANCH  14  17
ATOM     17  C   UNL     1      45.040   3.246   9.685  0.00  0.00    +0.000 A 
ATOM     18  C   UNL     1      45.349   4.331   8.846  0.00  0.00    +0.000 A 
ATOM     19  C   UNL     1      46.078   4.161   7.666  0.00  0.00    +0.000 A 
ATOM     20  C   UNL     1      46.516   2.892   7.296  0.00  0.00    +0.000 A 
ATOM     21  C   UNL     1      46.181   1.796   8.084  0.00  0.00    +0.000 A 
ATOM     22 CL   UNL     1      46.735   0.228   7.641  0.00  0.00    +0.000 Cl
ATOM     23  C   UNL     1      45.440   1.965   9.256  0.00  0.00    +0.000 A 
ENDBRANCH  14  17
ENDBRANCH   5  14
TORSDOF 3
ENDMDL
MODEL 3
REMARK VINA RESULT:    -6.431      4.803      7.081
REMARK INTER + INTRA:          -7.165
REMARK INTER:                  -6.915
REMARK INTRA:                  -0.250
REMARK UNBOUND:                 0.394
REMARK  Name = 
REMARK  3 active torsions:
REMARK  status: ('A' for Active; 'I' for Inactive)
REMARK    1  A    between atoms: C_2  and  C_4
REMARK    2  A    between atoms: N_8  and  C_9
REMARK    3  A    between atoms: C_9  and  C_10
REMARK                            x       y       z     vdW  Elec       q    Type
REMARK                         _______ _______ _______ _____ _____    ______ ____
ROOT
ATOM      1  C   UNL     1      48.095   3.865  17.312  0.00  0.00    +0.000 A 
ATOM      2  C   UNL     1      48.369   2.832  16.438  0.00  0.00    +0.000 A 
ATOM      3  N   UNL     1      47.928   2.788  15.163  0.00  0.00    +0.000 NA
ATOM      4  C   UNL     1      47.160   3.811  14.756  0.00  0.00    +0.000 A 
ATOM      5  N   UNL     1      46.686   3.701  13.460  0.00  0.00    +0.000 N 
ATOM      6  N   UNL     1      46.827   4.857  15.539  0.00  0.00    +0.000 NA
ATOM      7  C   UNL     1      47.297   4.860  16.801  0.00  0.00    +0.000 A 
ATOM      8  H   UNL     1      47.030   2.871  13.004  0.00  0.00    +0.000 HD
ENDROOT
BRANCH   1  10
ATOM      9  N   UNL     1      48.254   2.910  19.532  0.00  0.00    +0.000 N 
ATOM     10  C   UNL     1      48.617   3.914  18.680  0.00  0.00    +0.000 C 
ATOM     11  O   UNL     1      49.380   4.808  19.022  0.00  0.00    +0.000 OA
ATOM     12  H   UNL     1      48.712   2.906  20.433  0.00  0.00    +0.000 HD
ATOM     13  H   UNL     1      47.854   2.036  19.217  0.00  0.00    +0.000 HD
ENDBRANCH   1  10
BRANCH   5  14
ATOM     14  C   UNL     1      45.638   4.541  12.894  0.00  0.00    +0.000 C 
ATOM     15  C   UNL     1      44.186   4.274  13.246  0.00  0.00    +0.000 C 
ATOM     16  C   UNL     1      44.690   3.900  11.892  0.00  0.00    +0.000 C 
BRANCH  14  17
ATOM     17  C   UNL     1      46.128   5.957  12.620  0.00  0.00    +0.000 A 
ATOM     18  C   UNL     1      45.326   7.076  12.902  0.00  0.00    +0.000 A 
ATOM     19  C   UNL     1      45.836   8.376  12.847  0.00  0.00    +0.000 A 
ATOM     20  C   UNL     1      47.169   8.587  12.504  0.00  0.00    +0.000 A 
ATOM     21  C   UNL     1      47.969   7.498  12.173  0.00  0.00    +0.000 A 
ATOM     22 CL   UNL     1      49.623   7.751  11.766  0.00  0.00    +0.000 Cl
ATOM     23  C   UNL     1      47.455   6.200  12.215  0.00  0.00    +0.000 A 
ENDBRANCH  14  17
ENDBRANCH   5  14
TORSDOF 3
ENDMDL
MODEL 4
REMARK VINA RESULT:    -6.409      4.054      6.283
REMARK INTER + INTRA:          -7.139
REMARK INTER:                  -7.041
REMARK INTRA:                  -0.099
REMARK UNBOUND:                 0.394
REMARK  Name = 
REMARK  3 active torsions:
REMARK  status: ('A' for Active; 'I' for Inactive)
REMARK    1  A    between atoms: C_2  and  C_4
REMARK    2  A    between atoms: N_8  and  C_9
REMARK    3  A    between atoms: C_9  and  C_10
REMARK                            x       y       z     vdW  Elec       q    Type
REMARK                         _______ _______ _______ _____ _____    ______ ____
ROOT
ATOM      1  C   UNL     1      48.781   7.311  13.275  0.00  0.00    +0.000 A 
ATOM      2  C   UNL     1      48.162   6.589  14.276  0.00  0.00    +0.000 A 
ATOM      3  N   UNL     1      47.037   5.867  14.097  0.00  0.00    +0.000 NA
ATOM      4  C   UNL     1      46.497   5.888  12.868  0.00  0.00    +0.000 A 
ATOM      5  N   UNL     1      45.315   5.177  12.741  0.00  0.00    +0.000 N 
ATOM      6  N   UNL     1      47.019   6.573  11.831  0.00  0.00    +0.000 NA
ATOM      7  C   UNL     1      48.148   7.273  12.056  0.00  0.00    +0.000 A 
ATOM      8  H   UNL     1      45.062   4.714  13.599  0.00  0.00    +0.000 HD
ENDROOT
BRANCH   1  10
ATOM      9  N   UNL     1      50.942   7.533  14.347  0.00  0.00    +0.000 N 
ATOM     10  C   UNL     1      50.026   8.057  13.480  0.00  0.00    +0.000 C 
ATOM     11  O   UNL     1      50.239   9.090  12.859  0.00  0.00    +0.000 OA
ATOM     12  H   UNL     1      51.834   8.006  14.388  0.00  0.00    +0.000 HD
ATOM     13  H   UNL     1      50.917   6.573  14.663  0.00  0.00    +0.000 HD
ENDBRANCH   1  10
BRANCH   5  14
ATOM     14  C   UNL     1      44.420   5.268  11.594  0.00  0.00    +0.000 C 
ATOM     15  C   UNL     1      43.807   6.605  11.221  0.00  0.00    +0.000 C 
ATOM     16  C   UNL     1      42.955   5.566  11.869  0.00  0.00    +0.000 C 
BRANCH  14  17
ATOM     17  C   UNL     1      44.759   4.238  10.525  0.00  0.00    +0.000 A 
ATOM     18  C   UNL     1      44.205   2.946  10.551  0.00  0.00    +0.000 A 
ATOM     19  C   UNL     1      44.346   2.065   9.475  0.00  0.00    +0.000 A 
ATOM     20  C   UNL     1      45.051   2.459   8.342  0.00  0.00    +0.000 A 
ATOM     21  C   UNL     1      45.650   3.715   8.312  0.00  0.00    +0.000 A 
ATOM     22 CL   UNL     1      46.509   4.215   6.905  0.00  0.00    +0.000 Cl
ATOM     23  C   UNL     1      45.521   4.589   9.393  0.00  0.00    +0.000 A 
ENDBRANCH  14  17
ENDBRANCH   5  14
TORSDOF 3
ENDMDL
MODEL 5
REMARK VINA RESULT:    -6.355      4.496      6.433
REMARK INTER + INTRA:          -7.075
REMARK INTER:                  -7.167
REMARK INTRA:                   0.092
REMARK UNBOUND:                 0.394
REMARK  Name = 
REMARK  3 active torsions:
REMARK  status: ('A' for Active; 'I' for Inactive)
REMARK    1  A    between atoms: C_2  and  C_4
REMARK    2  A    between atoms: N_8  and  C_9
REMARK    3  A    between atoms: C_9  and  C_10
REMARK                            x       y       z     vdW  Elec       q    Type
REMARK                         _______ _______ _______ _____ _____    ______ ____
ROOT
ATOM      1  C   UNL     1      45.824   4.436  12.393  0.00  0.00    +0.000 A 
ATOM      2  C   UNL     1      46.211   5.723  12.706  0.00  0.00    +0.000 A 
ATOM      3  N   UNL     1      46.917   6.051  13.809  0.00  0.00    +0.000 NA
ATOM      4  C   UNL     1      47.227   5.046  14.645  0.00  0.00    +0.000 A 
ATOM      5  N   UNL     1      47.905   5.432  15.789  0.00  0.00    +0.000 N 
ATOM      6  N   UNL     1      46.882   3.761  14.433  0.00  0.00    +0.000 NA
ATOM      7  C   UNL     1      46.184   3.482  13.315  0.00  0.00    +0.000 A 
ATOM      8  H   UNL     1      48.097   6.421  15.795  0.00  0.00    +0.000 HD
ENDROOT
BRANCH   1  10
ATOM      9  N   UNL     1      44.884   2.772  10.906  0.00  0.00    +0.000 N 
ATOM     10  C   UNL     1      45.092   4.096  11.170  0.00  0.00    +0.000 C 
ATOM     11  O   UNL     1      44.656   4.978  10.442  0.00  0.00    +0.000 OA
ATOM     12  H   UNL     1      44.285   2.566  10.118  0.00  0.00    +0.000 HD
ATOM     13  H   UNL     1      44.991   2.047  11.602  0.00  0.00    +0.000 HD
ENDBRANCH   1  10
BRANCH   5  14
ATOM     14  C   UNL     1      48.113   4.576  16.950  0.00  0.00    +0.000 C 
ATOM     15  C   UNL     1      47.003   3.649  17.410  0.00  0.00    +0.000 C 
ATOM     16  C   UNL     1      47.303   4.879  18.200  0.00  0.00    +0.000 C 
BRANCH  14  17
ATOM     17  C   UNL     1      49.576   4.185  17.114  0.00  0.00    +0.000 A 
ATOM     18  C   UNL     1      50.572   5.154  17.330  0.00  0.00    +0.000 A 
ATOM     19  C   UNL     1      51.877   4.798  17.682  0.00  0.00    +0.000 A 
ATOM     20  C   UNL     1      52.217   3.455  17.825  0.00  0.00    +0.000 A 
ATOM     21  C   UNL     1      51.261   2.477  17.569  0.00  0.00    +0.000 A 
ATOM     22 CL   UNL     1      51.671   0.816  17.763  0.00  0.00    +0.000 Cl
ATOM     23  C   UNL     1      49.961   2.833  17.204  0.00  0.00    +0.000 A 
ENDBRANCH  14  17
ENDBRANCH   5  14
TORSDOF 3
ENDMDL
MODEL 6
REMARK VINA RESULT:    -6.272      3.934      5.698
REMARK INTER + INTRA:          -6.979
REMARK INTER:                  -6.806
REMARK INTRA:                  -0.172
REMARK UNBOUND:                 0.394
REMARK  Name = 
REMARK  3 active torsions:
REMARK  status: ('A' for Active; 'I' for Inactive)
REMARK    1  A    between atoms: C_2  and  C_4
REMARK    2  A    between atoms: N_8  and  C_9
REMARK    3  A    between atoms: C_9  and  C_10
REMARK                            x       y       z     vdW  Elec       q    Type
REMARK                         _______ _______ _______ _____ _____    ______ ____
ROOT
ATOM      1  C   UNL     1      44.668   5.072  10.922  0.00  0.00    +0.000 A 
ATOM      2  C   UNL     1      44.030   5.557  12.045  0.00  0.00    +0.000 A 
ATOM      3  N   UNL     1      44.549   6.500  12.858  0.00  0.00    +0.000 NA
ATOM      4  C   UNL     1      45.771   6.960  12.543  0.00  0.00    +0.000 A 
ATOM      5  N   UNL     1      46.289   7.887  13.432  0.00  0.00    +0.000 N 
ATOM      6  N   UNL     1      46.478   6.539  11.475  0.00  0.00    +0.000 NA
ATOM      7  C   UNL     1      45.915   5.602  10.689  0.00  0.00    +0.000 A 
ATOM      8  H   UNL     1      45.638   8.104  14.169  0.00  0.00    +0.000 HD
ENDROOT
BRANCH   1  10
ATOM      9  N   UNL     1      44.072   4.345   8.690  0.00  0.00    +0.000 N 
ATOM     10  C   UNL     1      44.070   4.076  10.029  0.00  0.00    +0.000 C 
ATOM     11  O   UNL     1      43.624   3.028  10.478  0.00  0.00    +0.000 OA
ATOM     12  H   UNL     1      43.755   3.598   8.087  0.00  0.00    +0.000 HD
ATOM     13  H   UNL     1      44.656   5.056   8.270  0.00  0.00    +0.000 HD
ENDBRANCH   1  10
BRANCH   5  14
ATOM     14  C   UNL     1      47.679   8.325  13.446  0.00  0.00    +0.000 C 
ATOM     15  C   UNL     1      48.759   7.387  13.954  0.00  0.00    +0.000 C 
ATOM     16  C   UNL     1      48.333   8.539  14.801  0.00  0.00    +0.000 C 
BRANCH  14  17
ATOM     17  C   UNL     1      47.973   9.326  12.336  0.00  0.00    +0.000 A 
ATOM     18  C   UNL     1      47.022  10.287  11.947  0.00  0.00    +0.000 A 
ATOM     19  C   UNL     1      47.349  11.332  11.079  0.00  0.00    +0.000 A 
ATOM     20  C   UNL     1      48.643  11.438  10.575  0.00  0.00    +0.000 A 
ATOM     21  C   UNL     1      49.587  10.472  10.906  0.00  0.00    +0.000 A 
ATOM     22 CL   UNL     1      51.193  10.609  10.301  0.00  0.00    +0.000 Cl
ATOM     23  C   UNL     1      49.256   9.420  11.763  0.00  0.00    +0.000 A 
ENDBRANCH  14  17
ENDBRANCH   5  14
TORSDOF 3
ENDMDL
MODEL 7
REMARK VINA RESULT:    -6.249      3.655      5.192
REMARK INTER + INTRA:          -6.951
REMARK INTER:                  -6.829
REMARK INTRA:                  -0.122
REMARK UNBOUND:                 0.394
REMARK  Name = 
REMARK  3 active torsions:
REMARK  status: ('A' for Active; 'I' for Inactive)
REMARK    1  A    between atoms: C_2  and  C_4
REMARK    2  A    between atoms: N_8  and  C_9
REMARK    3  A    between atoms: C_9  and  C_10
REMARK                            x       y       z     vdW  Elec       q    Type
REMARK                         _______ _______ _______ _____ _____    ______ ____
ROOT
ATOM      1  C   UNL     1      44.738   4.332  10.581  0.00  0.00    +0.000 A 
ATOM      2  C   UNL     1      44.364   4.363  11.909  0.00  0.00    +0.000 A 
ATOM      3  N   UNL     1      44.815   5.273  12.798  0.00  0.00    +0.000 NA
ATOM      4  C   UNL     1      45.696   6.176  12.339  0.00  0.00    +0.000 A 
ATOM      5  N   UNL     1      46.174   7.058  13.294  0.00  0.00    +0.000 N 
ATOM      6  N   UNL     1      46.132   6.219  11.064  0.00  0.00    +0.000 NA
ATOM      7  C   UNL     1      45.647   5.294  10.212  0.00  0.00    +0.000 A 
ATOM      8  H   UNL     1      45.746   6.904  14.193  0.00  0.00    +0.000 HD
ENDROOT
BRANCH   1  10
ATOM      9  N   UNL     1      44.176   3.722   8.306  0.00  0.00    +0.000 N 
ATOM     10  C   UNL     1      44.206   3.360   9.622  0.00  0.00    +0.000 C 
ATOM     11  O   UNL     1      43.841   2.253   9.998  0.00  0.00    +0.000 OA
ATOM     12  H   UNL     1      43.909   2.998   7.653  0.00  0.00    +0.000 HD
ATOM     13  H   UNL     1      44.703   4.501   7.935  0.00  0.00    +0.000 HD
ENDBRANCH   1  10
BRANCH   5  14
ATOM     14  C   UNL     1      47.315   7.942  13.099  0.00  0.00    +0.000 C 
ATOM     15  C   UNL     1      48.691   7.352  12.851  0.00  0.00    +0.000 C 
ATOM     16  C   UNL     1      48.384   7.958  14.180  0.00  0.00    +0.000 C 
BRANCH  14  17
ATOM     17  C   UNL     1      46.908   9.267  12.468  0.00  0.00    +0.000 A 
ATOM     18  C   UNL     1      47.849  10.095  11.831  0.00  0.00    +0.000 A 
ATOM     19  C   UNL     1      47.458  11.205  11.077  0.00  0.00    +0.000 A 
ATOM     20  C   UNL     1      46.108  11.516  10.946  0.00  0.00    +0.000 A 
ATOM     21  C   UNL     1      45.160  10.741  11.607  0.00  0.00    +0.000 A 
ATOM     22 CL   UNL     1      43.488  11.110  11.433  0.00  0.00    +0.000 Cl
ATOM     23  C   UNL     1      45.552   9.640  12.372  0.00  0.00    +0.000 A 
ENDBRANCH  14  17
ENDBRANCH   5  14
TORSDOF 3
ENDMDL
MODEL 8
REMARK VINA RESULT:    -6.085      5.259      7.659
REMARK INTER + INTRA:          -6.758
REMARK INTER:                  -6.932
REMARK INTRA:                   0.174
REMARK UNBOUND:                 0.394
REMARK  Name = 
REMARK  3 active torsions:
REMARK  status: ('A' for Active; 'I' for Inactive)
REMARK    1  A    between atoms: C_2  and  C_4
REMARK    2  A    between atoms: N_8  and  C_9
REMARK    3  A    between atoms: C_9  and  C_10
REMARK                            x       y       z     vdW  Elec       q    Type
REMARK                         _______ _______ _______ _____ _____    ______ ____
ROOT
ATOM      1  C   UNL     1      47.978   4.559  16.811  0.00  0.00    +0.000 A 
ATOM      2  C   UNL     1      48.797   5.602  17.194  0.00  0.00    +0.000 A 
ATOM      3  N   UNL     1      49.117   6.641  16.395  0.00  0.00    +0.000 NA
ATOM      4  C   UNL     1      48.612   6.621  15.151  0.00  0.00    +0.000 A 
ATOM      5  N   UNL     1      49.006   7.678  14.347  0.00  0.00    +0.000 N 
ATOM      6  N   UNL     1      47.814   5.641  14.681  0.00  0.00    +0.000 NA
ATOM      7  C   UNL     1      47.517   4.629  15.518  0.00  0.00    +0.000 A 
ATOM      8  H   UNL     1      49.591   8.329  14.845  0.00  0.00    +0.000 HD
ENDROOT
BRANCH   1  10
ATOM      9  N   UNL     1      48.424   3.217  18.777  0.00  0.00    +0.000 N 
ATOM     10  C   UNL     1      47.610   3.460  17.707  0.00  0.00    +0.000 C 
ATOM     11  O   UNL     1      46.587   2.816  17.513  0.00  0.00    +0.000 OA
ATOM     12  H   UNL     1      48.092   2.529  19.439  0.00  0.00    +0.000 HD
ATOM     13  H   UNL     1      49.110   3.881  19.110  0.00  0.00    +0.000 HD
ENDBRANCH   1  10
BRANCH   5  14
ATOM     14  C   UNL     1      48.805   7.733  12.905  0.00  0.00    +0.000 C 
ATOM     15  C   UNL     1      49.904   7.258  11.972  0.00  0.00    +0.000 C 
ATOM     16  C   UNL     1      49.650   8.721  12.116  0.00  0.00    +0.000 C 
BRANCH  14  17
ATOM     17  C   UNL     1      47.338   7.576  12.528  0.00  0.00    +0.000 A 
ATOM     18  C   UNL     1      46.389   8.562  12.854  0.00  0.00    +0.000 A 
ATOM     19  C   UNL     1      45.089   8.526  12.341  0.00  0.00    +0.000 A 
ATOM     20  C   UNL     1      44.707   7.496  11.486  0.00  0.00    +0.000 A 
ATOM     21  C   UNL     1      45.613   6.483  11.188  0.00  0.00    +0.000 A 
ATOM     22 CL   UNL     1      45.151   5.217  10.117  0.00  0.00    +0.000 Cl
ATOM     23  C   UNL     1      46.907   6.512  11.712  0.00  0.00    +0.000 A 
ENDBRANCH  14  17
ENDBRANCH   5  14
TORSDOF 3
ENDMDL
MODEL 9
REMARK VINA RESULT:    -5.935      4.026      5.886
REMARK INTER + INTRA:          -6.582
REMARK INTER:                  -6.378
REMARK INTRA:                  -0.204
REMARK UNBOUND:                 0.394
REMARK  Name = 
REMARK  3 active torsions:
REMARK  status: ('A' for Active; 'I' for Inactive)
REMARK    1  A    between atoms: C_2  and  C_4
REMARK    2  A    between atoms: N_8  and  C_9
REMARK    3  A    between atoms: C_9  and  C_10
REMARK                            x       y       z     vdW  Elec       q    Type
REMARK                         _______ _______ _______ _____ _____    ______ ____
ROOT
ATOM      1  C   UNL     1      44.329   5.271  12.261  0.00  0.00    +0.000 A 
ATOM      2  C   UNL     1      45.293   4.301  12.451  0.00  0.00    +0.000 A 
ATOM      3  N   UNL     1      46.524   4.549  12.944  0.00  0.00    +0.000 NA
ATOM      4  C   UNL     1      46.808   5.828  13.237  0.00  0.00    +0.000 A 
ATOM      5  N   UNL     1      48.098   6.046  13.691  0.00  0.00    +0.000 N 
ATOM      6  N   UNL     1      45.939   6.846  13.075  0.00  0.00    +0.000 NA
ATOM      7  C   UNL     1      44.720   6.548  12.587  0.00  0.00    +0.000 A 
ATOM      8  H   UNL     1      48.619   5.187  13.767  0.00  0.00    +0.000 HD
ENDROOT
BRANCH   1  10
ATOM      9  N   UNL     1      42.067   5.988  11.776  0.00  0.00    +0.000 N 
ATOM     10  C   UNL     1      42.984   4.976  11.762  0.00  0.00    +0.000 C 
ATOM     11  O   UNL     1      42.716   3.868  11.316  0.00  0.00    +0.000 OA
ATOM     12  H   UNL     1      41.183   5.793  11.327  0.00  0.00    +0.000 HD
ATOM     13  H   UNL     1      42.321   6.961  11.883  0.00  0.00    +0.000 HD
ENDBRANCH   1  10
BRANCH   5  14
ATOM     14  C   UNL     1      48.713   7.362  13.820  0.00  0.00    +0.000 C 
ATOM     15  C   UNL     1      48.649   8.340  12.661  0.00  0.00    +0.000 C 
ATOM     16  C   UNL     1      49.937   7.651  12.966  0.00  0.00    +0.000 C 
BRANCH  14  17
ATOM     17  C   UNL     1      48.705   7.855  15.261  0.00  0.00    +0.000 A 
ATOM     18  C   UNL     1      48.263   9.149  15.589  0.00  0.00    +0.000 A 
ATOM     19  C   UNL     1      48.060   9.541  16.915  0.00  0.00    +0.000 A 
ATOM     20  C   UNL     1      48.299   8.640  17.950  0.00  0.00    +0.000 A 
ATOM     21  C   UNL     1      48.783   7.370  17.653  0.00  0.00    +0.000 A 
ATOM     22 CL   UNL     1      49.062   6.247  18.928  0.00  0.00    +0.000 Cl
ATOM     23  C   UNL     1      48.998   6.984  16.329  0.00  0.00    +0.000 A 
ENDBRANCH  14  17
ENDBRANCH   5  14
TORSDOF 3
ENDMDL
