MODEL 1
REMARK VINA RESULT:    -7.920      0.000      0.000
REMARK INTER + INTRA:         -11.816
REMARK INTER:                 -10.698
REMARK INTRA:                  -1.118
REMARK UNBOUND:                -1.118
REMARK  Name = 
REMARK  6 active torsions:
REMARK  status: ('A' for Active; 'I' for Inactive)
REMARK    1  A    between atoms: C_2  and  C_25
REMARK    2  A    between atoms: N_3  and  C_4
REMARK    3  A    between atoms: C_4  and  C_5
REMARK    4  A    between atoms: C_8  and  C_9
REMARK    5  A    between atoms: C_9  and  N_10
REMARK    6  A    between atoms: C_11  and  C_13
REMARK                            x       y       z     vdW  Elec       q    Type
REMARK                         _______ _______ _______ _____ _____    ______ ____
ROOT
ATOM      1  C   UNL     1      44.778   5.672  10.915  0.00  0.00    +0.000 A 
ATOM      2  C   UNL     1      44.262   6.119  12.139  0.00  0.00    +0.000 A 
ATOM      3  C   UNL     1      45.027   6.934  12.981  0.00  0.00    +0.000 A 
ATOM      4  C   UNL     1      46.316   7.334  12.606  0.00  0.00    +0.000 A 
ATOM      5  C   UNL     1      46.837   6.878  11.388  0.00  0.00    +0.000 A 
ATOM      6  C   UNL     1      46.071   6.066  10.545  0.00  0.00    +0.000 A 
ENDROOT
BRANCH   1   7
ATOM      7  C   UNL     1      43.959   4.794  10.011  0.00  0.00    +0.000 C 
BRANCH   7  10
ATOM      8  O   UNL     1      45.235   2.356   9.976  0.00  0.00    +0.000 OA
ATOM      9  C   UNL     1      45.337   3.054   8.969  0.00  0.00    +0.000 C 
ATOM     10  N   UNL     1      44.731   4.290   8.902  0.00  0.00    +0.000 N 
ATOM     11  H   UNL     1      44.803   4.833   8.050  0.00  0.00    +0.000 HD
BRANCH   9  12
ATOM     12  C   UNL     1      46.084   2.629   7.792  0.00  0.00    +0.000 A 
ATOM     13  C   UNL     1      46.289   3.370   6.640  0.00  0.00    +0.000 A 
ATOM     14  C   UNL     1      47.053   2.672   5.663  0.00  0.00    +0.000 A 
ATOM     15  C   UNL     1      47.406   1.414   6.095  0.00  0.00    +0.000 A 
ATOM     16  S   UNL     1      46.827   1.089   7.671  0.00  0.00    +0.000 S 
ENDBRANCH   9  12
ENDBRANCH   7  10
ENDBRANCH   1   7
BRANCH   4  17
ATOM     17  C   UNL     1      47.153   8.201  13.513  0.00  0.00    +0.000 C 
BRANCH  17  18
ATOM     18  N   UNL     1      47.592   7.468  14.671  0.00  0.00    +0.000 N 
ATOM     19  C   UNL     1      48.823   6.864  14.710  0.00  0.00    +0.000 C 
ATOM     20  O   UNL     1      49.625   6.961  13.784  0.00  0.00    +0.000 OA
ATOM     21  H   UNL     1      46.876   7.181  15.332  0.00  0.00    +0.000 HD
BRANCH  19  22
ATOM     22  C   UNL     1      49.164   6.149  15.948  0.00  0.00    +0.000 A 
ATOM     23  C   UNL     1      50.258   6.555  16.699  0.00  0.00    +0.000 A 
ATOM     24  S   UNL     1      50.469   5.663  18.137  0.00  0.00    +0.000 S 
ATOM     25  C   UNL     1      49.136   4.668  17.780  0.00  0.00    +0.000 A 
ATOM     26  N   UNL     1      48.772   3.660  18.618  0.00  0.00    +0.000 NA
ATOM     27  C   UNL     1      47.765   2.962  18.207  0.00  0.00    +0.000 A 
ATOM     28  N   UNL     1      47.088   3.184  17.035  0.00  0.00    +0.000 N 
ATOM     29  C   UNL     1      47.404   4.205  16.172  0.00  0.00    +0.000 A 
ATOM     30  O   UNL     1      46.757   4.396  15.146  0.00  0.00    +0.000 OA
ATOM     31  C   UNL     1      48.532   5.017  16.586  0.00  0.00    +0.000 A 
ATOM     32  H   UNL     1      46.306   2.603  16.771  0.00  0.00    +0.000 HD
ENDBRANCH  19  22
ENDBRANCH  17  18
ENDBRANCH   4  17
TORSDOF 6
ENDMDL
MODEL 2
REMARK VINA RESULT:    -7.102      4.815      9.275
REMARK INTER + INTRA:         -10.711
REMARK INTER:                  -9.930
REMARK INTRA:                  -0.781
REMARK UNBOUND:                -1.118
REMARK  Name = 
REMARK  6 active torsions:
REMARK  status: ('A' for Active; 'I' for Inactive)
REMARK    1  A    between atoms: C_2  and  C_25
REMARK    2  A    between atoms: N_3  and  C_4
REMARK    3  A    between atoms: C_4  and  C_5
REMARK    4  A    between atoms: C_8  and  C_9
REMARK    5  A    between atoms: C_9  and  N_10
REMARK    6  A    between atoms: C_11  and  C_13
REMARK                            x       y       z     vdW  Elec       q    Type
REMARK                         _______ _______ _______ _____ _____    ______ ____
ROOT
ATOM      1  C   UNL     1      51.444   3.157  17.730  0.00  0.00    +0.000 A 
ATOM      2  C   UNL     1      50.746   2.080  17.168  0.00  0.00    +0.000 A 
ATOM      3  C   UNL     1      49.370   2.167  16.930  0.00  0.00    +0.000 A 
ATOM      4  C   UNL     1      48.669   3.342  17.229  0.00  0.00    +0.000 A 
ATOM      5  C   UNL     1      49.364   4.416  17.801  0.00  0.00    +0.000 A 
ATOM      6  C   UNL     1      50.739   4.329  18.037  0.00  0.00    +0.000 A 
ENDROOT
BRANCH   1   7
ATOM      7  C   UNL     1      52.921   3.064  17.989  0.00  0.00    +0.000 C 
BRANCH   7  10
ATOM      8  O   UNL     1      54.259   1.230  19.547  0.00  0.00    +0.000 OA
ATOM      9  C   UNL     1      54.132   0.963  18.353  0.00  0.00    +0.000 C 
ATOM     10  N   UNL     1      53.478   1.826  17.501  0.00  0.00    +0.000 N 
ATOM     11  H   UNL     1      53.359   1.568  16.529  0.00  0.00    +0.000 HD
BRANCH   9  12
ATOM     12  C   UNL     1      54.647  -0.268  17.767  0.00  0.00    +0.000 A 
ATOM     13  C   UNL     1      54.923  -0.484  16.426  0.00  0.00    +0.000 A 
ATOM     14  C   UNL     1      55.407  -1.798  16.166  0.00  0.00    +0.000 A 
ATOM     15  C   UNL     1      55.483  -2.550  17.316  0.00  0.00    +0.000 A 
ATOM     16  S   UNL     1      54.984  -1.669  18.695  0.00  0.00    +0.000 S 
ENDBRANCH   9  12
ENDBRANCH   7  10
ENDBRANCH   1   7
BRANCH   4  17
ATOM     17  C   UNL     1      47.184   3.440  16.989  0.00  0.00    +0.000 C 
BRANCH  17  18
ATOM     18  N   UNL     1      46.883   4.441  15.998  0.00  0.00    +0.000 N 
ATOM     19  C   UNL     1      46.987   4.173  14.657  0.00  0.00    +0.000 C 
ATOM     20  O   UNL     1      47.290   3.059  14.238  0.00  0.00    +0.000 OA
ATOM     21  H   UNL     1      46.864   5.407  16.313  0.00  0.00    +0.000 HD
BRANCH  19  22
ATOM     22  C   UNL     1      46.649   5.270  13.741  0.00  0.00    +0.000 A 
ATOM     23  C   UNL     1      47.568   6.285  13.514  0.00  0.00    +0.000 A 
ATOM     24  S   UNL     1      47.044   7.440  12.374  0.00  0.00    +0.000 S 
ATOM     25  C   UNL     1      45.547   6.654  12.184  0.00  0.00    +0.000 A 
ATOM     26  N   UNL     1      44.599   7.148  11.342  0.00  0.00    +0.000 NA
ATOM     27  C   UNL     1      43.499   6.472  11.323  0.00  0.00    +0.000 A 
ATOM     28  N   UNL     1      43.262   5.344  12.066  0.00  0.00    +0.000 N 
ATOM     29  C   UNL     1      44.198   4.795  12.909  0.00  0.00    +0.000 A 
ATOM     30  O   UNL     1      43.965   3.767  13.537  0.00  0.00    +0.000 OA
ATOM     31  C   UNL     1      45.452   5.521  12.972  0.00  0.00    +0.000 A 
ATOM     32  H   UNL     1      42.379   4.859  12.004  0.00  0.00    +0.000 HD
ENDBRANCH  19  22
ENDBRANCH  17  18
ENDBRANCH   4  17
TORSDOF 6
ENDMDL
MODEL 3
REMARK VINA RESULT:    -7.056      1.755      1.908
REMARK INTER + INTRA:         -10.649
REMARK INTER:                  -9.810
REMARK INTRA:                  -0.840
REMARK UNBOUND:                -1.118
REMARK  Name = 
REMARK  6 active torsions:
REMARK  status: ('A' for Active; 'I' for Inactive)
REMARK    1  A    between atoms: C_2  and  C_25
REMARK    2  A    between atoms: N_3  and  C_4
REMARK    3  A    between atoms: C_4  and  C_5
REMARK    4  A    between atoms: C_8  and  C_9
REMARK    5  A    between atoms: C_9  and  N_10
REMARK    6  A    between atoms: C_11  and  C_13
REMARK                            x       y       z     vdW  Elec       q    Type
REMARK                         _______ _______ _______ _____ _____    ______ ____
ROOT
ATOM      1  C   UNL     1      45.121   6.259  11.416  0.00  0.00    +0.000 A 
ATOM      2  C   UNL     1      44.770   7.615  11.460  0.00  0.00    +0.000 A 
ATOM      3  C   UNL     1      45.540   8.528  12.188  0.00  0.00    +0.000 A 
ATOM      4  C   UNL     1      46.689   8.106  12.870  0.00  0.00    +0.000 A 
ATOM      5  C   UNL     1      47.034   6.748  12.835  0.00  0.00    +0.000 A 
ATOM      6  C   UNL     1      46.265   5.836  12.105  0.00  0.00    +0.000 A 
ENDROOT
BRANCH   1   7
ATOM      7  C   UNL     1      44.292   5.276  10.637  0.00  0.00    +0.000 C 
BRANCH   7  10
ATOM      8  O   UNL     1      44.654   2.594  10.135  0.00  0.00    +0.000 OA
ATOM      9  C   UNL     1      45.141   3.384   9.328  0.00  0.00    +0.000 C 
ATOM     10  N   UNL     1      45.008   4.745   9.504  0.00  0.00    +0.000 N 
ATOM     11  H   UNL     1      45.390   5.374   8.808  0.00  0.00    +0.000 HD
BRANCH   9  12
ATOM     12  C   UNL     1      45.871   2.946   8.145  0.00  0.00    +0.000 A 
ATOM     13  C   UNL     1      46.222   3.734   7.062  0.00  0.00    +0.000 A 
ATOM     14  C   UNL     1      46.924   3.010   6.057  0.00  0.00    +0.000 A 
ATOM     15  C   UNL     1      47.085   1.687   6.400  0.00  0.00    +0.000 A 
ATOM     16  S   UNL     1      46.402   1.331   7.927  0.00  0.00    +0.000 S 
ENDBRANCH   9  12
ENDBRANCH   7  10
ENDBRANCH   1   7
BRANCH   4  17
ATOM     17  C   UNL     1      47.518   9.080  13.668  0.00  0.00    +0.000 C 
BRANCH  17  18
ATOM     18  N   UNL     1      47.504   8.748  15.069  0.00  0.00    +0.000 N 
ATOM     19  C   UNL     1      48.654   8.396  15.730  0.00  0.00    +0.000 C 
ATOM     20  O   UNL     1      49.749   8.395  15.176  0.00  0.00    +0.000 OA
ATOM     21  H   UNL     1      46.604   8.516  15.477  0.00  0.00    +0.000 HD
BRANCH  19  22
ATOM     22  C   UNL     1      48.517   8.084  17.159  0.00  0.00    +0.000 A 
ATOM     23  C   UNL     1      48.297   9.108  18.070  0.00  0.00    +0.000 A 
ATOM     24  S   UNL     1      48.093   8.565  19.674  0.00  0.00    +0.000 S 
ATOM     25  C   UNL     1      48.345   6.946  19.216  0.00  0.00    +0.000 A 
ATOM     26  N   UNL     1      48.319   5.946  20.138  0.00  0.00    +0.000 NA
ATOM     27  C   UNL     1      48.561   4.771  19.658  0.00  0.00    +0.000 A 
ATOM     28  N   UNL     1      48.822   4.506  18.338  0.00  0.00    +0.000 N 
ATOM     29  C   UNL     1      48.832   5.479  17.368  0.00  0.00    +0.000 A 
ATOM     30  O   UNL     1      49.039   5.204  16.191  0.00  0.00    +0.000 OA
ATOM     31  C   UNL     1      48.571   6.820  17.857  0.00  0.00    +0.000 A 
ATOM     32  H   UNL     1      49.001   3.564  18.025  0.00  0.00    +0.000 HD
ENDBRANCH  19  22
ENDBRANCH  17  18
ENDBRANCH   4  17
TORSDOF 6
ENDMDL
MODEL 4
REMARK VINA RESULT:    -6.665      3.553      8.479
REMARK INTER + INTRA:         -10.120
REMARK INTER:                  -9.155
REMARK INTRA:                  -0.965
REMARK UNBOUND:                -1.118
REMARK  Name = 
REMARK  6 active torsions:
REMARK  status: ('A' for Active; 'I' for Inactive)
REMARK    1  A    between atoms: C_2  and  C_25
REMARK    2  A    between atoms: N_3  and  C_4
REMARK    3  A    between atoms: C_4  and  C_5
REMARK    4  A    between atoms: C_8  and  C_9
REMARK    5  A    between atoms: C_9  and  N_10
REMARK    6  A    between atoms: C_11  and  C_13
REMARK                            x       y       z     vdW  Elec       q    Type
REMARK                         _______ _______ _______ _____ _____    ______ ____
ROOT
ATOM      1  C   UNL     1      49.623   4.551  17.570  0.00  0.00    +0.000 A 
ATOM      2  C   UNL     1      50.388   5.687  17.274  0.00  0.00    +0.000 A 
ATOM      3  C   UNL     1      49.956   6.607  16.313  0.00  0.00    +0.000 A 
ATOM      4  C   UNL     1      48.740   6.419  15.643  0.00  0.00    +0.000 A 
ATOM      5  C   UNL     1      47.980   5.278  15.931  0.00  0.00    +0.000 A 
ATOM      6  C   UNL     1      48.411   4.359  16.894  0.00  0.00    +0.000 A 
ENDROOT
BRANCH   1   7
ATOM      7  C   UNL     1      50.088   3.560  18.601  0.00  0.00    +0.000 C 
BRANCH   7  10
ATOM      8  O   UNL     1      50.855   1.283  17.257  0.00  0.00    +0.000 OA
ATOM      9  C   UNL     1      51.751   2.001  17.699  0.00  0.00    +0.000 C 
ATOM     10  N   UNL     1      51.456   3.158  18.385  0.00  0.00    +0.000 N 
ATOM     11  H   UNL     1      52.212   3.748  18.711  0.00  0.00    +0.000 HD
BRANCH   9  12
ATOM     12  C   UNL     1      53.164   1.688  17.522  0.00  0.00    +0.000 A 
ATOM     13  C   UNL     1      53.694   0.449  17.202  0.00  0.00    +0.000 A 
ATOM     14  C   UNL     1      55.115   0.463  17.110  0.00  0.00    +0.000 A 
ATOM     15  C   UNL     1      55.630   1.713  17.368  0.00  0.00    +0.000 A 
ATOM     16  S   UNL     1      54.404   2.857  17.706  0.00  0.00    +0.000 S 
ENDBRANCH   9  12
ENDBRANCH   7  10
ENDBRANCH   1   7
BRANCH   4  17
ATOM     17  C   UNL     1      48.273   7.398  14.596  0.00  0.00    +0.000 C 
BRANCH  17  18
ATOM     18  N   UNL     1      47.030   6.974  14.006  0.00  0.00    +0.000 N 
ATOM     19  C   UNL     1      46.954   6.611  12.685  0.00  0.00    +0.000 C 
ATOM     20  O   UNL     1      47.945   6.582  11.960  0.00  0.00    +0.000 OA
ATOM     21  H   UNL     1      46.179   7.212  14.506  0.00  0.00    +0.000 HD
BRANCH  19  22
ATOM     22  C   UNL     1      45.634   6.191  12.197  0.00  0.00    +0.000 A 
ATOM     23  C   UNL     1      44.770   7.130  11.650  0.00  0.00    +0.000 A 
ATOM     24  S   UNL     1      43.311   6.464  11.071  0.00  0.00    +0.000 S 
ATOM     25  C   UNL     1      43.759   4.903  11.579  0.00  0.00    +0.000 A 
ATOM     26  N   UNL     1      42.928   3.842  11.395  0.00  0.00    +0.000 NA
ATOM     27  C   UNL     1      43.378   2.724  11.859  0.00  0.00    +0.000 A 
ATOM     28  N   UNL     1      44.587   2.570  12.488  0.00  0.00    +0.000 N 
ATOM     29  C   UNL     1      45.470   3.607  12.673  0.00  0.00    +0.000 A 
ATOM     30  O   UNL     1      46.557   3.430  13.213  0.00  0.00    +0.000 OA
ATOM     31  C   UNL     1      45.008   4.888  12.173  0.00  0.00    +0.000 A 
ATOM     32  H   UNL     1      44.883   1.668  12.828  0.00  0.00    +0.000 HD
ENDBRANCH  19  22
ENDBRANCH  17  18
ENDBRANCH   4  17
TORSDOF 6
ENDMDL
MODEL 5
REMARK VINA RESULT:    -6.581      2.978      8.254
REMARK INTER + INTRA:         -10.008
REMARK INTER:                  -9.186
REMARK INTRA:                  -0.821
REMARK UNBOUND:                -1.118
REMARK  Name = 
REMARK  6 active torsions:
REMARK  status: ('A' for Active; 'I' for Inactive)
REMARK    1  A    between atoms: C_2  and  C_25
REMARK    2  A    between atoms: N_3  and  C_4
REMARK    3  A    between atoms: C_4  and  C_5
REMARK    4  A    between atoms: C_8  and  C_9
REMARK    5  A    between atoms: C_9  and  N_10
REMARK    6  A    between atoms: C_11  and  C_13
REMARK                            x       y       z     vdW  Elec       q    Type
REMARK                         _______ _______ _______ _____ _____    ______ ____
ROOT
ATOM      1  C   UNL     1      50.142   7.139  15.734  0.00  0.00    +0.000 A 
ATOM      2  C   UNL     1      48.803   6.811  15.484  0.00  0.00    +0.000 A 
ATOM      3  C   UNL     1      48.214   7.112  14.251  0.00  0.00    +0.000 A 
ATOM      4  C   UNL     1      48.958   7.728  13.237  0.00  0.00    +0.000 A 
ATOM      5  C   UNL     1      50.294   8.066  13.491  0.00  0.00    +0.000 A 
ATOM      6  C   UNL     1      50.884   7.763  14.722  0.00  0.00    +0.000 A 
ENDROOT
BRANCH   1   7
ATOM      7  C   UNL     1      50.776   6.819  17.059  0.00  0.00    +0.000 C 
BRANCH   7  10
ATOM      8  O   UNL     1      49.943   4.770  18.699  0.00  0.00    +0.000 OA
ATOM      9  C   UNL     1      50.872   4.529  17.930  0.00  0.00    +0.000 C 
ATOM     10  N   UNL     1      51.353   5.497  17.076  0.00  0.00    +0.000 N 
ATOM     11  H   UNL     1      52.098   5.264  16.431  0.00  0.00    +0.000 HD
BRANCH   9  12
ATOM     12  C   UNL     1      51.513   3.222  17.863  0.00  0.00    +0.000 A 
ATOM     13  C   UNL     1      50.943   2.054  17.383  0.00  0.00    +0.000 A 
ATOM     14  C   UNL     1      51.824   0.937  17.461  0.00  0.00    +0.000 A 
ATOM     15  C   UNL     1      53.040   1.284  18.002  0.00  0.00    +0.000 A 
ATOM     16  S   UNL     1      53.117   2.945  18.401  0.00  0.00    +0.000 S 
ENDBRANCH   9  12
ENDBRANCH   7  10
ENDBRANCH   1   7
BRANCH   4  17
ATOM     17  C   UNL     1      48.328   8.069  11.911  0.00  0.00    +0.000 C 
BRANCH  17  18
ATOM     18  N   UNL     1      47.622   6.939  11.365  0.00  0.00    +0.000 N 
ATOM     19  C   UNL     1      46.251   6.911  11.313  0.00  0.00    +0.000 C 
ATOM     20  O   UNL     1      45.567   7.863  11.680  0.00  0.00    +0.000 OA
ATOM     21  H   UNL     1      48.141   6.071  11.281  0.00  0.00    +0.000 HD
BRANCH  19  22
ATOM     22  C   UNL     1      45.642   5.708  10.731  0.00  0.00    +0.000 A 
ATOM     23  C   UNL     1      45.822   5.428   9.383  0.00  0.00    +0.000 A 
ATOM     24  S   UNL     1      45.108   3.961   8.888  0.00  0.00    +0.000 S 
ATOM     25  C   UNL     1      44.487   3.673  10.446  0.00  0.00    +0.000 A 
ATOM     26  N   UNL     1      43.743   2.565  10.709  0.00  0.00    +0.000 NA
ATOM     27  C   UNL     1      43.307   2.491  11.923  0.00  0.00    +0.000 A 
ATOM     28  N   UNL     1      43.551   3.424  12.898  0.00  0.00    +0.000 N 
ATOM     29  C   UNL     1      44.318   4.545  12.685  0.00  0.00    +0.000 A 
ATOM     30  O   UNL     1      44.542   5.344  13.588  0.00  0.00    +0.000 OA
ATOM     31  C   UNL     1      44.829   4.678  11.334  0.00  0.00    +0.000 A 
ATOM     32  H   UNL     1      43.182   3.307  13.830  0.00  0.00    +0.000 HD
ENDBRANCH  19  22
ENDBRANCH  17  18
ENDBRANCH   4  17
TORSDOF 6
ENDMDL
MODEL 6
REMARK VINA RESULT:    -6.458      4.707      7.494
REMARK INTER + INTRA:          -9.841
REMARK INTER:                  -8.942
REMARK INTRA:                  -0.899
REMARK UNBOUND:                -1.118
REMARK  Name = 
REMARK  6 active torsions:
REMARK  status: ('A' for Active; 'I' for Inactive)
REMARK    1  A    between atoms: C_2  and  C_25
REMARK    2  A    between atoms: N_3  and  C_4
REMARK    3  A    between atoms: C_4  and  C_5
REMARK    4  A    between atoms: C_8  and  C_9
REMARK    5  A    between atoms: C_9  and  N_10
REMARK    6  A    between atoms: C_11  and  C_13
REMARK                            x       y       z     vdW  Elec       q    Type
REMARK                         _______ _______ _______ _____ _____    ______ ____
ROOT
ATOM      1  C   UNL     1      50.743   8.735  11.304  0.00  0.00    +0.000 A 
ATOM      2  C   UNL     1      49.904   9.851  11.418  0.00  0.00    +0.000 A 
ATOM      3  C   UNL     1      48.548   9.696  11.728  0.00  0.00    +0.000 A 
ATOM      4  C   UNL     1      48.010   8.422  11.951  0.00  0.00    +0.000 A 
ATOM      5  C   UNL     1      48.847   7.305  11.826  0.00  0.00    +0.000 A 
ATOM      6  C   UNL     1      50.202   7.460  11.519  0.00  0.00    +0.000 A 
ENDROOT
BRANCH   1   7
ATOM      7  C   UNL     1      52.199   8.901  10.968  0.00  0.00    +0.000 C 
BRANCH   7  10
ATOM      8  O   UNL     1      52.812   8.857   8.285  0.00  0.00    +0.000 OA
ATOM      9  C   UNL     1      53.007   7.821   8.920  0.00  0.00    +0.000 C 
ATOM     10  N   UNL     1      52.725   7.756  10.268  0.00  0.00    +0.000 N 
ATOM     11  H   UNL     1      52.924   6.902  10.774  0.00  0.00    +0.000 HD
BRANCH   9  12
ATOM     12  C   UNL     1      53.547   6.615   8.306  0.00  0.00    +0.000 A 
ATOM     13  C   UNL     1      52.942   5.858   7.317  0.00  0.00    +0.000 A 
ATOM     14  C   UNL     1      53.719   4.729   6.931  0.00  0.00    +0.000 A 
ATOM     15  C   UNL     1      54.895   4.654   7.641  0.00  0.00    +0.000 A 
ATOM     16  S   UNL     1      55.059   5.943   8.753  0.00  0.00    +0.000 S 
ENDBRANCH   9  12
ENDBRANCH   7  10
ENDBRANCH   1   7
BRANCH   4  17
ATOM     17  C   UNL     1      46.548   8.243  12.272  0.00  0.00    +0.000 C 
BRANCH  17  18
ATOM     18  N   UNL     1      46.116   6.898  11.995  0.00  0.00    +0.000 N 
ATOM     19  C   UNL     1      44.840   6.632  11.565  0.00  0.00    +0.000 C 
ATOM     20  O   UNL     1      44.027   7.527  11.348  0.00  0.00    +0.000 OA
ATOM     21  H   UNL     1      46.677   6.147  12.384  0.00  0.00    +0.000 HD
BRANCH  19  22
ATOM     22  C   UNL     1      44.516   5.222  11.310  0.00  0.00    +0.000 A 
ATOM     23  C   UNL     1      43.753   4.514  12.228  0.00  0.00    +0.000 A 
ATOM     24  S   UNL     1      43.413   2.914  11.745  0.00  0.00    +0.000 S 
ATOM     25  C   UNL     1      44.318   3.095  10.316  0.00  0.00    +0.000 A 
ATOM     26  N   UNL     1      44.451   2.065   9.437  0.00  0.00    +0.000 NA
ATOM     27  C   UNL     1      45.193   2.329   8.414  0.00  0.00    +0.000 A 
ATOM     28  N   UNL     1      45.812   3.532   8.188  0.00  0.00    +0.000 N 
ATOM     29  C   UNL     1      45.686   4.607   9.034  0.00  0.00    +0.000 A 
ATOM     30  O   UNL     1      46.228   5.680   8.787  0.00  0.00    +0.000 OA
ATOM     31  C   UNL     1      44.864   4.361  10.204  0.00  0.00    +0.000 A 
ATOM     32  H   UNL     1      46.379   3.676   7.366  0.00  0.00    +0.000 HD
ENDBRANCH  19  22
ENDBRANCH  17  18
ENDBRANCH   4  17
TORSDOF 6
ENDMDL
MODEL 7
REMARK VINA RESULT:    -5.127      5.435      7.435
REMARK INTER + INTRA:          -8.043
REMARK INTER:                  -7.499
REMARK INTRA:                  -0.544
REMARK UNBOUND:                -1.118
REMARK  Name = 
REMARK  6 active torsions:
REMARK  status: ('A' for Active; 'I' for Inactive)
REMARK    1  A    between atoms: C_2  and  C_25
REMARK    2  A    between atoms: N_3  and  C_4
REMARK    3  A    between atoms: C_4  and  C_5
REMARK    4  A    between atoms: C_8  and  C_9
REMARK    5  A    between atoms: C_9  and  N_10
REMARK    6  A    between atoms: C_11  and  C_13
REMARK                            x       y       z     vdW  Elec       q    Type
REMARK                         _______ _______ _______ _____ _____    ______ ____
ROOT
ATOM      1  C   UNL     1      51.955   9.472  11.204  0.00  0.00    +0.000 A 
ATOM      2  C   UNL     1      51.757   9.862  12.535  0.00  0.00    +0.000 A 
ATOM      3  C   UNL     1      50.890   9.144  13.367  0.00  0.00    +0.000 A 
ATOM      4  C   UNL     1      50.222   8.009  12.890  0.00  0.00    +0.000 A 
ATOM      5  C   UNL     1      50.412   7.625  11.556  0.00  0.00    +0.000 A 
ATOM      6  C   UNL     1      51.280   8.341  10.725  0.00  0.00    +0.000 A 
ENDROOT
BRANCH   1   7
ATOM      7  C   UNL     1      52.884  10.244  10.308  0.00  0.00    +0.000 C 
BRANCH   7  10
ATOM      8  O   UNL     1      52.155  10.802   7.713  0.00  0.00    +0.000 OA
ATOM      9  C   UNL     1      52.880   9.825   7.892  0.00  0.00    +0.000 C 
ATOM     10  N   UNL     1      53.291   9.473   9.160  0.00  0.00    +0.000 N 
ATOM     11  H   UNL     1      53.913   8.683   9.277  0.00  0.00    +0.000 HD
BRANCH   9  12
ATOM     12  C   UNL     1      53.356   8.991   6.796  0.00  0.00    +0.000 A 
ATOM     13  C   UNL     1      53.673   7.645   6.869  0.00  0.00    +0.000 A 
ATOM     14  C   UNL     1      54.120   7.114   5.626  0.00  0.00    +0.000 A 
ATOM     15  C   UNL     1      54.136   8.072   4.639  0.00  0.00    +0.000 A 
ATOM     16  S   UNL     1      53.604   9.594   5.210  0.00  0.00    +0.000 S 
ENDBRANCH   9  12
ENDBRANCH   7  10
ENDBRANCH   1   7
BRANCH   4  17
ATOM     17  C   UNL     1      49.276   7.238  13.774  0.00  0.00    +0.000 C 
BRANCH  17  18
ATOM     18  N   UNL     1      48.016   7.012  13.116  0.00  0.00    +0.000 N 
ATOM     19  C   UNL     1      47.106   6.109  13.606  0.00  0.00    +0.000 C 
ATOM     20  O   UNL     1      47.300   5.491  14.648  0.00  0.00    +0.000 OA
ATOM     21  H   UNL     1      47.938   7.325  12.153  0.00  0.00    +0.000 HD
BRANCH  19  22
ATOM     22  C   UNL     1      45.853   5.969  12.852  0.00  0.00    +0.000 A 
ATOM     23  C   UNL     1      45.181   7.102  12.415  0.00  0.00    +0.000 A 
ATOM     24  S   UNL     1      43.785   6.759  11.498  0.00  0.00    +0.000 S 
ATOM     25  C   UNL     1      43.998   5.083  11.699  0.00  0.00    +0.000 A 
ATOM     26  N   UNL     1      43.116   4.196  11.164  0.00  0.00    +0.000 NA
ATOM     27  C   UNL     1      43.380   2.959  11.424  0.00  0.00    +0.000 A 
ATOM     28  N   UNL     1      44.449   2.527  12.167  0.00  0.00    +0.000 N 
ATOM     29  C   UNL     1      45.378   3.384  12.705  0.00  0.00    +0.000 A 
ATOM     30  O   UNL     1      46.340   2.964  13.340  0.00  0.00    +0.000 OA
ATOM     31  C   UNL     1      45.125   4.789  12.446  0.00  0.00    +0.000 A 
ATOM     32  H   UNL     1      44.601   1.544  12.333  0.00  0.00    +0.000 HD
ENDBRANCH  19  22
ENDBRANCH  17  18
ENDBRANCH   4  17
TORSDOF 6
ENDMDL
MODEL 8
REMARK VINA RESULT:    -4.971      3.755      8.431
REMARK INTER + INTRA:          -7.833
REMARK INTER:                  -7.490
REMARK INTRA:                  -0.343
REMARK UNBOUND:                -1.118
REMARK  Name = 
REMARK  6 active torsions:
REMARK  status: ('A' for Active; 'I' for Inactive)
REMARK    1  A    between atoms: C_2  and  C_25
REMARK    2  A    between atoms: N_3  and  C_4
REMARK    3  A    between atoms: C_4  and  C_5
REMARK    4  A    between atoms: C_8  and  C_9
REMARK    5  A    between atoms: C_9  and  N_10
REMARK    6  A    between atoms: C_11  and  C_13
REMARK                            x       y       z     vdW  Elec       q    Type
REMARK                         _______ _______ _______ _____ _____    ______ ____
ROOT
ATOM      1  C   UNL     1      49.611   5.178  17.232  0.00  0.00    +0.000 A 
ATOM      2  C   UNL     1      48.520   5.205  16.352  0.00  0.00    +0.000 A 
ATOM      3  C   UNL     1      48.497   6.094  15.272  0.00  0.00    +0.000 A 
ATOM      4  C   UNL     1      49.574   6.959  15.039  0.00  0.00    +0.000 A 
ATOM      5  C   UNL     1      50.660   6.940  15.925  0.00  0.00    +0.000 A 
ATOM      6  C   UNL     1      50.684   6.050  17.003  0.00  0.00    +0.000 A 
ENDROOT
BRANCH   1   7
ATOM      7  C   UNL     1      49.635   4.225  18.395  0.00  0.00    +0.000 C 
BRANCH   7  10
ATOM      8  O   UNL     1      50.387   2.152  16.747  0.00  0.00    +0.000 OA
ATOM      9  C   UNL     1      51.186   2.492  17.619  0.00  0.00    +0.000 C 
ATOM     10  N   UNL     1      50.889   3.519  18.488  0.00  0.00    +0.000 N 
ATOM     11  H   UNL     1      51.576   3.801  19.176  0.00  0.00    +0.000 HD
BRANCH   9  12
ATOM     12  C   UNL     1      52.483   1.849  17.786  0.00  0.00    +0.000 A 
ATOM     13  C   UNL     1      52.732   0.487  17.756  0.00  0.00    +0.000 A 
ATOM     14  C   UNL     1      54.105   0.172  17.962  0.00  0.00    +0.000 A 
ATOM     15  C   UNL     1      54.866   1.303  18.149  0.00  0.00    +0.000 A 
ATOM     16  S   UNL     1      53.927   2.730  18.063  0.00  0.00    +0.000 S 
ENDBRANCH   9  12
ENDBRANCH   7  10
ENDBRANCH   1   7
BRANCH   4  17
ATOM     17  C   UNL     1      49.552   7.930  13.885  0.00  0.00    +0.000 C 
BRANCH  17  18
ATOM     18  N   UNL     1      48.316   7.839  13.153  0.00  0.00    +0.000 N 
ATOM     19  C   UNL     1      47.204   8.543  13.541  0.00  0.00    +0.000 C 
ATOM     20  O   UNL     1      47.223   9.317  14.494  0.00  0.00    +0.000 OA
ATOM     21  H   UNL     1      48.211   7.048  12.526  0.00  0.00    +0.000 HD
BRANCH  19  22
ATOM     22  C   UNL     1      46.002   8.376  12.713  0.00  0.00    +0.000 A 
ATOM     23  C   UNL     1      45.472   9.467  12.039  0.00  0.00    +0.000 A 
ATOM     24  S   UNL     1      44.121   9.083  11.072  0.00  0.00    +0.000 S 
ATOM     25  C   UNL     1      44.163   7.455  11.562  0.00  0.00    +0.000 A 
ATOM     26  N   UNL     1      43.245   6.562  11.104  0.00  0.00    +0.000 NA
ATOM     27  C   UNL     1      43.373   5.370  11.585  0.00  0.00    +0.000 A 
ATOM     28  N   UNL     1      44.340   4.989  12.480  0.00  0.00    +0.000 N 
ATOM     29  C   UNL     1      45.303   5.849  12.950  0.00  0.00    +0.000 A 
ATOM     30  O   UNL     1      46.173   5.469  13.727  0.00  0.00    +0.000 OA
ATOM     31  C   UNL     1      45.200   7.205  12.443  0.00  0.00    +0.000 A 
ATOM     32  H   UNL     1      44.388   4.039  12.817  0.00  0.00    +0.000 HD
ENDBRANCH  19  22
ENDBRANCH  17  18
ENDBRANCH   4  17
TORSDOF 6
ENDMDL
