MODEL 1
REMARK VINA RESULT:    -8.285      0.000      0.000
REMARK INTER + INTRA:         -12.226
REMARK INTER:                 -11.191
REMARK INTRA:                  -1.036
REMARK UNBOUND:                -1.036
REMARK  Name = 
REMARK  6 active torsions:
REMARK  status: ('A' for Active; 'I' for Inactive)
REMARK    1  A    between atoms: C_2  and  C_25
REMARK    2  A    between atoms: N_3  and  C_4
REMARK    3  A    between atoms: C_4  and  C_5
REMARK    4  A    between atoms: C_8  and  C_9
REMARK    5  A    between atoms: C_9  and  N_10
REMARK    6  A    between atoms: C_11  and  C_13
REMARK                            x       y       z     vdW  Elec       q    Type
REMARK                         _______ _______ _______ _____ _____    ______ ____
ROOT
ATOM      1  C   UNL     1      44.948   6.233  11.307  0.00  0.00    +0.000 A 
ATOM      2  C   UNL     1      44.608   7.553  11.610  0.00  0.00    +0.000 A 
ATOM      3  C   UNL     1      45.420   8.301  12.459  0.00  0.00    +0.000 A 
ATOM      4  C   UNL     1      46.545   7.699  13.015  0.00  0.00    +0.000 A 
ATOM      5  N   UNL     1      46.895   6.417  12.738  0.00  0.00    +0.000 NA
ATOM      6  C   UNL     1      46.097   5.721  11.896  0.00  0.00    +0.000 A 
ENDROOT
BRANCH   1   7
ATOM      7  C   UNL     1      44.127   5.407  10.367  0.00  0.00    +0.000 C 
BRANCH   7  10
ATOM      8  O   UNL     1      44.241   2.650  10.113  0.00  0.00    +0.000 OA
ATOM      9  C   UNL     1      44.894   3.336   9.328  0.00  0.00    +0.000 C 
ATOM     10  N   UNL     1      44.914   4.715   9.378  0.00  0.00    +0.000 N 
ATOM     11  H   UNL     1      45.465   5.207   8.682  0.00  0.00    +0.000 HD
BRANCH   9  12
ATOM     12  C   UNL     1      45.710   2.699   8.247  0.00  0.00    +0.000 A 
ATOM     13  C   UNL     1      46.013   3.439   7.107  0.00  0.00    +0.000 A 
ATOM     14  C   UNL     1      46.780   2.841   6.115  0.00  0.00    +0.000 A 
ATOM     15  C   UNL     1      47.212   1.531   6.290  0.00  0.00    +0.000 A 
ATOM     16  C   UNL     1      46.859   0.868   7.460  0.00  0.00    +0.000 A 
ATOM     17  N   UNL     1      46.120   1.417   8.451  0.00  0.00    +0.000 NA
ENDBRANCH   9  12
ENDBRANCH   7  10
ENDBRANCH   1   7
BRANCH   4  18
ATOM     18  C   UNL     1      47.443   8.476  13.946  0.00  0.00    +0.000 C 
BRANCH  18  19
ATOM     19  N   UNL     1      47.861   7.694  15.085  0.00  0.00    +0.000 N 
ATOM     20  C   UNL     1      49.127   7.194  15.222  0.00  0.00    +0.000 C 
ATOM     21  O   UNL     1      49.999   7.379  14.377  0.00  0.00    +0.000 OA
ATOM     22  H   UNL     1      47.109   7.335  15.664  0.00  0.00    +0.000 HD
BRANCH  20  23
ATOM     23  C   UNL     1      49.415   6.491  16.480  0.00  0.00    +0.000 A 
ATOM     24  C   UNL     1      50.365   7.003  17.355  0.00  0.00    +0.000 A 
ATOM     25  S   UNL     1      50.530   6.100  18.792  0.00  0.00    +0.000 S 
ATOM     26  C   UNL     1      49.373   4.964  18.276  0.00  0.00    +0.000 A 
ATOM     27  N   UNL     1      49.050   3.894  19.051  0.00  0.00    +0.000 NA
ATOM     28  C   UNL     1      48.181   3.097  18.523  0.00  0.00    +0.000 A 
ATOM     29  N   UNL     1      47.603   3.274  17.295  0.00  0.00    +0.000 N 
ATOM     30  C   UNL     1      47.862   4.364  16.501  0.00  0.00    +0.000 A 
ATOM     31  O   UNL     1      47.265   4.534  15.442  0.00  0.00    +0.000 OA
ATOM     32  C   UNL     1      48.853   5.280  17.034  0.00  0.00    +0.000 A 
ATOM     33  H   UNL     1      46.916   2.624  16.942  0.00  0.00    +0.000 HD
ENDBRANCH  20  23
ENDBRANCH  18  19
ENDBRANCH   4  18
TORSDOF 6
ENDMDL
MODEL 2
REMARK VINA RESULT:    -7.214      1.619      2.054
REMARK INTER + INTRA:         -10.780
REMARK INTER:                  -9.736
REMARK INTRA:                  -1.043
REMARK UNBOUND:                -1.036
REMARK  Name = 
REMARK  6 active torsions:
REMARK  status: ('A' for Active; 'I' for Inactive)
REMARK    1  A    between atoms: C_2  and  C_25
REMARK    2  A    between atoms: N_3  and  C_4
REMARK    3  A    between atoms: C_4  and  C_5
REMARK    4  A    between atoms: C_8  and  C_9
REMARK    5  A    between atoms: C_9  and  N_10
REMARK    6  A    between atoms: C_11  and  C_13
REMARK                            x       y       z     vdW  Elec       q    Type
REMARK                         _______ _______ _______ _____ _____    ______ ____
ROOT
ATOM      1  C   UNL     1      46.166   7.307  11.839  0.00  0.00    +0.000 A 
ATOM      2  C   UNL     1      47.522   7.008  11.690  0.00  0.00    +0.000 A 
ATOM      3  C   UNL     1      48.453   7.557  12.568  0.00  0.00    +0.000 A 
ATOM      4  C   UNL     1      48.009   8.423  13.563  0.00  0.00    +0.000 A 
ATOM      5  N   UNL     1      46.697   8.731  13.726  0.00  0.00    +0.000 NA
ATOM      6  C   UNL     1      45.814   8.169  12.870  0.00  0.00    +0.000 A 
ENDROOT
BRANCH   1   7
ATOM      7  C   UNL     1      45.127   6.707  10.944  0.00  0.00    +0.000 C 
BRANCH   7  10
ATOM      8  O   UNL     1      43.814   4.376  10.222  0.00  0.00    +0.000 OA
ATOM      9  C   UNL     1      44.916   4.601   9.728  0.00  0.00    +0.000 C 
ATOM     10  N   UNL     1      45.657   5.726  10.031  0.00  0.00    +0.000 N 
ATOM     11  H   UNL     1      46.551   5.845   9.566  0.00  0.00    +0.000 HD
BRANCH   9  12
ATOM     12  C   UNL     1      45.524   3.653   8.743  0.00  0.00    +0.000 A 
ATOM     13  C   UNL     1      45.488   2.287   9.010  0.00  0.00    +0.000 A 
ATOM     14  C   UNL     1      46.047   1.416   8.082  0.00  0.00    +0.000 A 
ATOM     15  C   UNL     1      46.623   1.935   6.928  0.00  0.00    +0.000 A 
ATOM     16  C   UNL     1      46.615   3.313   6.745  0.00  0.00    +0.000 A 
ATOM     17  N   UNL     1      46.077   4.192   7.621  0.00  0.00    +0.000 NA
ENDBRANCH   9  12
ENDBRANCH   7  10
ENDBRANCH   1   7
BRANCH   4  18
ATOM     18  C   UNL     1      48.991   9.043  14.527  0.00  0.00    +0.000 C 
BRANCH  18  19
ATOM     19  N   UNL     1      49.169   8.245  15.717  0.00  0.00    +0.000 N 
ATOM     20  C   UNL     1      48.509   8.495  16.889  0.00  0.00    +0.000 C 
ATOM     21  O   UNL     1      47.714   9.425  17.006  0.00  0.00    +0.000 OA
ATOM     22  H   UNL     1      49.981   7.635  15.713  0.00  0.00    +0.000 HD
BRANCH  20  23
ATOM     23  C   UNL     1      48.738   7.539  17.981  0.00  0.00    +0.000 A 
ATOM     24  C   UNL     1      49.025   8.005  19.257  0.00  0.00    +0.000 A 
ATOM     25  S   UNL     1      49.201   6.766  20.416  0.00  0.00    +0.000 S 
ATOM     26  C   UNL     1      48.947   5.559  19.244  0.00  0.00    +0.000 A 
ATOM     27  N   UNL     1      48.986   4.241  19.577  0.00  0.00    +0.000 NA
ATOM     28  C   UNL     1      48.808   3.435  18.584  0.00  0.00    +0.000 A 
ATOM     29  N   UNL     1      48.588   3.824  17.291  0.00  0.00    +0.000 N 
ATOM     30  C   UNL     1      48.492   5.142  16.917  0.00  0.00    +0.000 A 
ATOM     31  O   UNL     1      48.213   5.456  15.763  0.00  0.00    +0.000 OA
ATOM     32  C   UNL     1      48.712   6.093  17.989  0.00  0.00    +0.000 A 
ATOM     33  H   UNL     1      48.440   3.146  16.558  0.00  0.00    +0.000 HD
ENDBRANCH  20  23
ENDBRANCH  18  19
ENDBRANCH   4  18
TORSDOF 6
ENDMDL
MODEL 3
REMARK VINA RESULT:    -6.901      3.933      8.659
REMARK INTER + INTRA:         -10.358
REMARK INTER:                  -9.438
REMARK INTRA:                  -0.920
REMARK UNBOUND:                -1.036
REMARK  Name = 
REMARK  6 active torsions:
REMARK  status: ('A' for Active; 'I' for Inactive)
REMARK    1  A    between atoms: C_2  and  C_25
REMARK    2  A    between atoms: N_3  and  C_4
REMARK    3  A    between atoms: C_4  and  C_5
REMARK    4  A    between atoms: C_8  and  C_9
REMARK    5  A    between atoms: C_9  and  N_10
REMARK    6  A    between atoms: C_11  and  C_13
REMARK                            x       y       z     vdW  Elec       q    Type
REMARK                         _______ _______ _______ _____ _____    ______ ____
ROOT
ATOM      1  C   UNL     1      49.475   4.668  17.435  0.00  0.00    +0.000 A 
ATOM      2  C   UNL     1      50.226   5.838  17.308  0.00  0.00    +0.000 A 
ATOM      3  C   UNL     1      49.834   6.817  16.398  0.00  0.00    +0.000 A 
ATOM      4  C   UNL     1      48.710   6.590  15.609  0.00  0.00    +0.000 A 
ATOM      5  N   UNL     1      47.966   5.459  15.713  0.00  0.00    +0.000 NA
ATOM      6  C   UNL     1      48.361   4.534  16.617  0.00  0.00    +0.000 A 
ENDROOT
BRANCH   1   7
ATOM      7  C   UNL     1      49.837   3.608  18.429  0.00  0.00    +0.000 C 
BRANCH   7  10
ATOM      8  O   UNL     1      50.757   1.382  17.058  0.00  0.00    +0.000 OA
ATOM      9  C   UNL     1      51.577   2.088  17.642  0.00  0.00    +0.000 C 
ATOM     10  N   UNL     1      51.220   3.210  18.362  0.00  0.00    +0.000 N 
ATOM     11  H   UNL     1      51.960   3.748  18.801  0.00  0.00    +0.000 HD
BRANCH   9  12
ATOM     12  C   UNL     1      53.038   1.768  17.593  0.00  0.00    +0.000 A 
ATOM     13  C   UNL     1      53.433   0.460  17.325  0.00  0.00    +0.000 A 
ATOM     14  C   UNL     1      54.793   0.178  17.272  0.00  0.00    +0.000 A 
ATOM     15  C   UNL     1      55.706   1.203  17.493  0.00  0.00    +0.000 A 
ATOM     16  C   UNL     1      55.220   2.478  17.757  0.00  0.00    +0.000 A 
ATOM     17  N   UNL     1      53.906   2.794  17.810  0.00  0.00    +0.000 NA
ENDBRANCH   9  12
ENDBRANCH   7  10
ENDBRANCH   1   7
BRANCH   4  18
ATOM     18  C   UNL     1      48.261   7.625  14.607  0.00  0.00    +0.000 C 
BRANCH  18  19
ATOM     19  N   UNL     1      47.040   7.245  13.935  0.00  0.00    +0.000 N 
ATOM     20  C   UNL     1      47.023   6.610  12.724  0.00  0.00    +0.000 C 
ATOM     21  O   UNL     1      48.054   6.320  12.122  0.00  0.00    +0.000 OA
ATOM     22  H   UNL     1      46.196   7.681  14.292  0.00  0.00    +0.000 HD
BRANCH  20  23
ATOM     23  C   UNL     1      45.701   6.217  12.216  0.00  0.00    +0.000 A 
ATOM     24  C   UNL     1      44.869   7.172  11.647  0.00  0.00    +0.000 A 
ATOM     25  S   UNL     1      43.401   6.536  11.054  0.00  0.00    +0.000 S 
ATOM     26  C   UNL     1      43.804   4.969  11.580  0.00  0.00    +0.000 A 
ATOM     27  N   UNL     1      42.949   3.929  11.395  0.00  0.00    +0.000 NA
ATOM     28  C   UNL     1      43.368   2.803  11.870  0.00  0.00    +0.000 A 
ATOM     29  N   UNL     1      44.566   2.622  12.508  0.00  0.00    +0.000 N 
ATOM     30  C   UNL     1      45.481   3.633  12.673  0.00  0.00    +0.000 A 
ATOM     31  O   UNL     1      46.579   3.418  13.177  0.00  0.00    +0.000 OA
ATOM     32  C   UNL     1      45.049   4.927  12.182  0.00  0.00    +0.000 A 
ATOM     33  H   UNL     1      44.846   1.713  12.845  0.00  0.00    +0.000 HD
ENDBRANCH  20  23
ENDBRANCH  18  19
ENDBRANCH   4  18
TORSDOF 6
ENDMDL
MODEL 4
REMARK VINA RESULT:    -6.873      3.266      8.753
REMARK INTER + INTRA:         -10.319
REMARK INTER:                  -9.412
REMARK INTRA:                  -0.907
REMARK UNBOUND:                -1.036
REMARK  Name = 
REMARK  6 active torsions:
REMARK  status: ('A' for Active; 'I' for Inactive)
REMARK    1  A    between atoms: C_2  and  C_25
REMARK    2  A    between atoms: N_3  and  C_4
REMARK    3  A    between atoms: C_4  and  C_5
REMARK    4  A    between atoms: C_8  and  C_9
REMARK    5  A    between atoms: C_9  and  N_10
REMARK    6  A    between atoms: C_11  and  C_13
REMARK                            x       y       z     vdW  Elec       q    Type
REMARK                         _______ _______ _______ _____ _____    ______ ____
ROOT
ATOM      1  C   UNL     1      50.399   7.371  15.287  0.00  0.00    +0.000 A 
ATOM      2  C   UNL     1      50.771   8.072  14.138  0.00  0.00    +0.000 A 
ATOM      3  C   UNL     1      49.863   8.220  13.092  0.00  0.00    +0.000 A 
ATOM      4  C   UNL     1      48.606   7.633  13.205  0.00  0.00    +0.000 A 
ATOM      5  N   UNL     1      48.223   6.944  14.311  0.00  0.00    +0.000 NA
ATOM      6  C   UNL     1      49.119   6.833  15.317  0.00  0.00    +0.000 A 
ENDROOT
BRANCH   1   7
ATOM      7  C   UNL     1      51.328   7.223  16.452  0.00  0.00    +0.000 C 
BRANCH   7  10
ATOM      8  O   UNL     1      50.247   5.453  18.288  0.00  0.00    +0.000 OA
ATOM      9  C   UNL     1      51.175   5.066  17.581  0.00  0.00    +0.000 C 
ATOM     10  N   UNL     1      51.790   5.872  16.646  0.00  0.00    +0.000 N 
ATOM     11  H   UNL     1      52.539   5.471  16.090  0.00  0.00    +0.000 HD
BRANCH   9  12
ATOM     12  C   UNL     1      51.693   3.666  17.692  0.00  0.00    +0.000 A 
ATOM     13  C   UNL     1      52.943   3.452  18.268  0.00  0.00    +0.000 A 
ATOM     14  C   UNL     1      53.408   2.147  18.374  0.00  0.00    +0.000 A 
ATOM     15  C   UNL     1      52.617   1.106  17.901  0.00  0.00    +0.000 A 
ATOM     16  C   UNL     1      51.384   1.413  17.339  0.00  0.00    +0.000 A 
ATOM     17  N   UNL     1      50.894   2.668  17.222  0.00  0.00    +0.000 NA
ENDBRANCH   9  12
ENDBRANCH   7  10
ENDBRANCH   1   7
BRANCH   4  18
ATOM     18  C   UNL     1      47.601   7.766  12.088  0.00  0.00    +0.000 C 
BRANCH  18  19
ATOM     19  N   UNL     1      46.872   6.540  11.857  0.00  0.00    +0.000 N 
ATOM     20  C   UNL     1      45.518   6.435  12.023  0.00  0.00    +0.000 C 
ATOM     21  O   UNL     1      44.828   7.384  12.385  0.00  0.00    +0.000 OA
ATOM     22  H   UNL     1      47.442   5.703  11.794  0.00  0.00    +0.000 HD
BRANCH  20  23
ATOM     23  C   UNL     1      44.919   5.142  11.666  0.00  0.00    +0.000 A 
ATOM     24  C   UNL     1      44.171   4.444  12.605  0.00  0.00    +0.000 A 
ATOM     25  S   UNL     1      43.498   2.996  12.007  0.00  0.00    +0.000 S 
ATOM     26  C   UNL     1      44.221   3.224  10.484  0.00  0.00    +0.000 A 
ATOM     27  N   UNL     1      44.057   2.313   9.489  0.00  0.00    +0.000 NA
ATOM     28  C   UNL     1      44.686   2.596   8.397  0.00  0.00    +0.000 A 
ATOM     29  N   UNL     1      45.461   3.709   8.209  0.00  0.00    +0.000 N 
ATOM     30  C   UNL     1      45.615   4.679   9.168  0.00  0.00    +0.000 A 
ATOM     31  O   UNL     1      46.250   5.704   8.938  0.00  0.00    +0.000 OA
ATOM     32  C   UNL     1      44.950   4.398  10.426  0.00  0.00    +0.000 A 
ATOM     33  H   UNL     1      45.917   3.885   7.325  0.00  0.00    +0.000 HD
ENDBRANCH  20  23
ENDBRANCH  18  19
ENDBRANCH   4  18
TORSDOF 6
ENDMDL
MODEL 5
REMARK VINA RESULT:    -6.781      3.445      8.384
REMARK INTER + INTRA:         -10.195
REMARK INTER:                  -9.305
REMARK INTRA:                  -0.890
REMARK UNBOUND:                -1.036
REMARK  Name = 
REMARK  6 active torsions:
REMARK  status: ('A' for Active; 'I' for Inactive)
REMARK    1  A    between atoms: C_2  and  C_25
REMARK    2  A    between atoms: N_3  and  C_4
REMARK    3  A    between atoms: C_4  and  C_5
REMARK    4  A    between atoms: C_8  and  C_9
REMARK    5  A    between atoms: C_9  and  N_10
REMARK    6  A    between atoms: C_11  and  C_13
REMARK                            x       y       z     vdW  Elec       q    Type
REMARK                         _______ _______ _______ _____ _____    ______ ____
ROOT
ATOM      1  C   UNL     1      49.999   7.293  15.807  0.00  0.00    +0.000 A 
ATOM      2  C   UNL     1      50.830   7.729  14.773  0.00  0.00    +0.000 A 
ATOM      3  C   UNL     1      50.291   7.998  13.517  0.00  0.00    +0.000 A 
ATOM      4  C   UNL     1      48.929   7.794  13.313  0.00  0.00    +0.000 A 
ATOM      5  N   UNL     1      48.102   7.368  14.301  0.00  0.00    +0.000 NA
ATOM      6  C   UNL     1      48.651   7.132  15.515  0.00  0.00    +0.000 A 
ENDROOT
BRANCH   1   7
ATOM      7  C   UNL     1      50.529   7.031  17.182  0.00  0.00    +0.000 C 
BRANCH   7  10
ATOM      8  O   UNL     1      49.325   4.627  17.851  0.00  0.00    +0.000 OA
ATOM      9  C   UNL     1      50.533   4.631  17.625  0.00  0.00    +0.000 C 
ATOM     10  N   UNL     1      51.229   5.776  17.296  0.00  0.00    +0.000 N 
ATOM     11  H   UNL     1      52.222   5.691  17.108  0.00  0.00    +0.000 HD
BRANCH   9  12
ATOM     12  C   UNL     1      51.330   3.366  17.684  0.00  0.00    +0.000 A 
ATOM     13  C   UNL     1      52.661   3.426  18.089  0.00  0.00    +0.000 A 
ATOM     14  C   UNL     1      53.387   2.242  18.150  0.00  0.00    +0.000 A 
ATOM     15  C   UNL     1      52.766   1.048  17.804  0.00  0.00    +0.000 A 
ATOM     16  C   UNL     1      51.434   1.083  17.409  0.00  0.00    +0.000 A 
ATOM     17  N   UNL     1      50.692   2.212  17.342  0.00  0.00    +0.000 NA
ENDBRANCH   9  12
ENDBRANCH   7  10
ENDBRANCH   1   7
BRANCH   4  18
ATOM     18  C   UNL     1      48.312   8.068  11.963  0.00  0.00    +0.000 C 
BRANCH  18  19
ATOM     19  N   UNL     1      47.566   6.937  11.462  0.00  0.00    +0.000 N 
ATOM     20  C   UNL     1      46.200   6.914  11.397  0.00  0.00    +0.000 C 
ATOM     21  O   UNL     1      45.512   7.862  11.767  0.00  0.00    +0.000 OA
ATOM     22  H   UNL     1      48.093   6.073  11.379  0.00  0.00    +0.000 HD
BRANCH  20  23
ATOM     23  C   UNL     1      45.599   5.722  10.783  0.00  0.00    +0.000 A 
ATOM     24  C   UNL     1      45.752   5.497   9.421  0.00  0.00    +0.000 A 
ATOM     25  S   UNL     1      45.047   4.040   8.884  0.00  0.00    +0.000 S 
ATOM     26  C   UNL     1      44.470   3.681  10.444  0.00  0.00    +0.000 A 
ATOM     27  N   UNL     1      43.746   2.553  10.679  0.00  0.00    +0.000 NA
ATOM     28  C   UNL     1      43.346   2.422  11.900  0.00  0.00    +0.000 A 
ATOM     29  N   UNL     1      43.606   3.312  12.907  0.00  0.00    +0.000 N 
ATOM     30  C   UNL     1      44.372   4.437  12.727  0.00  0.00    +0.000 A 
ATOM     31  O   UNL     1      44.654   5.171  13.669  0.00  0.00    +0.000 OA
ATOM     32  C   UNL     1      44.826   4.649  11.365  0.00  0.00    +0.000 A 
ATOM     33  H   UNL     1      43.278   3.147  13.848  0.00  0.00    +0.000 HD
ENDBRANCH  20  23
ENDBRANCH  18  19
ENDBRANCH   4  18
TORSDOF 6
ENDMDL
MODEL 6
REMARK VINA RESULT:    -6.501      4.922      7.639
REMARK INTER + INTRA:          -9.817
REMARK INTER:                  -9.013
REMARK INTRA:                  -0.804
REMARK UNBOUND:                -1.036
REMARK  Name = 
REMARK  6 active torsions:
REMARK  status: ('A' for Active; 'I' for Inactive)
REMARK    1  A    between atoms: C_2  and  C_25
REMARK    2  A    between atoms: N_3  and  C_4
REMARK    3  A    between atoms: C_4  and  C_5
REMARK    4  A    between atoms: C_8  and  C_9
REMARK    5  A    between atoms: C_9  and  N_10
REMARK    6  A    between atoms: C_11  and  C_13
REMARK                            x       y       z     vdW  Elec       q    Type
REMARK                         _______ _______ _______ _____ _____    ______ ____
ROOT
ATOM      1  C   UNL     1      50.609   8.385  12.180  0.00  0.00    +0.000 A 
ATOM      2  C   UNL     1      49.773   7.565  11.421  0.00  0.00    +0.000 A 
ATOM      3  C   UNL     1      48.420   7.472  11.737  0.00  0.00    +0.000 A 
ATOM      4  C   UNL     1      47.935   8.182  12.832  0.00  0.00    +0.000 A 
ATOM      5  N   UNL     1      48.729   8.984  13.587  0.00  0.00    +0.000 NA
ATOM      6  C   UNL     1      50.035   9.068  13.245  0.00  0.00    +0.000 A 
ENDROOT
BRANCH   1   7
ATOM      7  C   UNL     1      52.061   8.547  11.851  0.00  0.00    +0.000 C 
BRANCH   7  10
ATOM      8  O   UNL     1      52.772   8.862   9.191  0.00  0.00    +0.000 OA
ATOM      9  C   UNL     1      52.913   7.754   9.705  0.00  0.00    +0.000 C 
ATOM     10  N   UNL     1      52.578   7.490  11.018  0.00  0.00    +0.000 N 
ATOM     11  H   UNL     1      52.742   6.553  11.371  0.00  0.00    +0.000 HD
BRANCH   9  12
ATOM     12  C   UNL     1      53.479   6.611   8.923  0.00  0.00    +0.000 A 
ATOM     13  C   UNL     1      52.935   6.313   7.676  0.00  0.00    +0.000 A 
ATOM     14  C   UNL     1      53.476   5.255   6.955  0.00  0.00    +0.000 A 
ATOM     15  C   UNL     1      54.531   4.532   7.501  0.00  0.00    +0.000 A 
ATOM     16  C   UNL     1      55.008   4.900   8.753  0.00  0.00    +0.000 A 
ATOM     17  N   UNL     1      54.513   5.925   9.484  0.00  0.00    +0.000 NA
ENDBRANCH   9  12
ENDBRANCH   7  10
ENDBRANCH   1   7
BRANCH   4  18
ATOM     18  C   UNL     1      46.477   8.098  13.209  0.00  0.00    +0.000 C 
BRANCH  18  19
ATOM     19  N   UNL     1      45.897   6.817  12.878  0.00  0.00    +0.000 N 
ATOM     20  C   UNL     1      45.033   6.637  11.834  0.00  0.00    +0.000 C 
ATOM     21  O   UNL     1      44.688   7.562  11.103  0.00  0.00    +0.000 OA
ATOM     22  H   UNL     1      45.978   6.106  13.598  0.00  0.00    +0.000 HD
BRANCH  20  23
ATOM     23  C   UNL     1      44.600   5.256  11.580  0.00  0.00    +0.000 A 
ATOM     24  C   UNL     1      43.875   4.571  12.547  0.00  0.00    +0.000 A 
ATOM     25  S   UNL     1      43.401   3.005  12.066  0.00  0.00    +0.000 S 
ATOM     26  C   UNL     1      44.188   3.167  10.567  0.00  0.00    +0.000 A 
ATOM     27  N   UNL     1      44.185   2.152   9.662  0.00  0.00    +0.000 NA
ATOM     28  C   UNL     1      44.845   2.399   8.581  0.00  0.00    +0.000 A 
ATOM     29  N   UNL     1      45.505   3.570   8.319  0.00  0.00    +0.000 N 
ATOM     30  C   UNL     1      45.494   4.639   9.181  0.00  0.00    +0.000 A 
ATOM     31  O   UNL     1      46.027   5.703   8.879  0.00  0.00    +0.000 OA
ATOM     32  C   UNL     1      44.788   4.406  10.426  0.00  0.00    +0.000 A 
ATOM     33  H   UNL     1      45.993   3.711   7.446  0.00  0.00    +0.000 HD
ENDBRANCH  20  23
ENDBRANCH  18  19
ENDBRANCH   4  18
TORSDOF 6
ENDMDL
MODEL 7
REMARK VINA RESULT:    -6.406      5.689      8.015
REMARK INTER + INTRA:          -9.688
REMARK INTER:                  -8.871
REMARK INTRA:                  -0.817
REMARK UNBOUND:                -1.036
REMARK  Name = 
REMARK  6 active torsions:
REMARK  status: ('A' for Active; 'I' for Inactive)
REMARK    1  A    between atoms: C_2  and  C_25
REMARK    2  A    between atoms: N_3  and  C_4
REMARK    3  A    between atoms: C_4  and  C_5
REMARK    4  A    between atoms: C_8  and  C_9
REMARK    5  A    between atoms: C_9  and  N_10
REMARK    6  A    between atoms: C_11  and  C_13
REMARK                            x       y       z     vdW  Elec       q    Type
REMARK                         _______ _______ _______ _____ _____    ______ ____
ROOT
ATOM      1  C   UNL     1      49.087   7.049  14.021  0.00  0.00    +0.000 A 
ATOM      2  C   UNL     1      48.921   7.240  12.649  0.00  0.00    +0.000 A 
ATOM      3  C   UNL     1      49.855   7.986  11.934  0.00  0.00    +0.000 A 
ATOM      4  C   UNL     1      50.926   8.555  12.619  0.00  0.00    +0.000 A 
ATOM      5  N   UNL     1      51.107   8.386  13.954  0.00  0.00    +0.000 NA
ATOM      6  C   UNL     1      50.193   7.641  14.617  0.00  0.00    +0.000 A 
ENDROOT
BRANCH   1   7
ATOM      7  C   UNL     1      48.130   6.220  14.820  0.00  0.00    +0.000 C 
BRANCH   7  10
ATOM      8  O   UNL     1      47.511   3.742  13.747  0.00  0.00    +0.000 OA
ATOM      9  C   UNL     1      46.691   4.650  13.630  0.00  0.00    +0.000 C 
ATOM     10  N   UNL     1      46.908   5.922  14.118  0.00  0.00    +0.000 N 
ATOM     11  H   UNL     1      46.172   6.610  13.994  0.00  0.00    +0.000 HD
BRANCH   9  12
ATOM     12  C   UNL     1      45.380   4.417  12.946  0.00  0.00    +0.000 A 
ATOM     13  C   UNL     1      45.221   3.276  12.163  0.00  0.00    +0.000 A 
ATOM     14  C   UNL     1      43.995   3.066  11.542  0.00  0.00    +0.000 A 
ATOM     15  C   UNL     1      42.978   3.997  11.718  0.00  0.00    +0.000 A 
ATOM     16  C   UNL     1      43.228   5.108  12.515  0.00  0.00    +0.000 A 
ATOM     17  N   UNL     1      44.403   5.346  13.141  0.00  0.00    +0.000 NA
ENDBRANCH   9  12
ENDBRANCH   7  10
ENDBRANCH   1   7
BRANCH   4  18
ATOM     18  C   UNL     1      51.952   9.376  11.879  0.00  0.00    +0.000 C 
BRANCH  18  19
ATOM     19  N   UNL     1      52.120   8.942  10.511  0.00  0.00    +0.000 N 
ATOM     20  C   UNL     1      53.337   8.632   9.971  0.00  0.00    +0.000 C 
ATOM     21  O   UNL     1      54.378   8.704  10.619  0.00  0.00    +0.000 OA
ATOM     22  H   UNL     1      51.322   9.104   9.905  0.00  0.00    +0.000 HD
BRANCH  20  23
ATOM     23  C   UNL     1      53.326   8.125   8.592  0.00  0.00    +0.000 A 
ATOM     24  C   UNL     1      53.122   9.004   7.536  0.00  0.00    +0.000 A 
ATOM     25  S   UNL     1      53.200   8.263   6.002  0.00  0.00    +0.000 S 
ATOM     26  C   UNL     1      53.461   6.731   6.695  0.00  0.00    +0.000 A 
ATOM     27  N   UNL     1      53.597   5.625   5.916  0.00  0.00    +0.000 NA
ATOM     28  C   UNL     1      53.759   4.526   6.574  0.00  0.00    +0.000 A 
ATOM     29  N   UNL     1      53.802   4.431   7.939  0.00  0.00    +0.000 N 
ATOM     30  C   UNL     1      53.717   5.526   8.763  0.00  0.00    +0.000 A 
ATOM     31  O   UNL     1      53.841   5.416   9.979  0.00  0.00    +0.000 OA
ATOM     32  C   UNL     1      53.507   6.787   8.077  0.00  0.00    +0.000 A 
ATOM     33  H   UNL     1      53.947   3.544   8.397  0.00  0.00    +0.000 HD
ENDBRANCH  20  23
ENDBRANCH  18  19
ENDBRANCH   4  18
TORSDOF 6
ENDMDL
MODEL 8
REMARK VINA RESULT:    -6.323      3.960      9.892
REMARK INTER + INTRA:          -9.577
REMARK INTER:                  -8.740
REMARK INTRA:                  -0.836
REMARK UNBOUND:                -1.036
REMARK  Name = 
REMARK  6 active torsions:
REMARK  status: ('A' for Active; 'I' for Inactive)
REMARK    1  A    between atoms: C_2  and  C_25
REMARK    2  A    between atoms: N_3  and  C_4
REMARK    3  A    between atoms: C_4  and  C_5
REMARK    4  A    between atoms: C_8  and  C_9
REMARK    5  A    between atoms: C_9  and  N_10
REMARK    6  A    between atoms: C_11  and  C_13
REMARK                            x       y       z     vdW  Elec       q    Type
REMARK                         _______ _______ _______ _____ _____    ______ ____
ROOT
ATOM      1  C   UNL     1      51.371   3.740  17.707  0.00  0.00    +0.000 A 
ATOM      2  C   UNL     1      50.567   4.878  17.793  0.00  0.00    +0.000 A 
ATOM      3  C   UNL     1      49.210   4.792  17.490  0.00  0.00    +0.000 A 
ATOM      4  C   UNL     1      48.690   3.569  17.073  0.00  0.00    +0.000 A 
ATOM      5  N   UNL     1      49.453   2.451  16.978  0.00  0.00    +0.000 NA
ATOM      6  C   UNL     1      50.763   2.561  17.297  0.00  0.00    +0.000 A 
ENDROOT
BRANCH   1   7
ATOM      7  C   UNL     1      52.825   3.778  18.064  0.00  0.00    +0.000 C 
BRANCH   7  10
ATOM      8  O   UNL     1      54.698   5.102  16.510  0.00  0.00    +0.000 OA
ATOM      9  C   UNL     1      54.240   5.682  17.492  0.00  0.00    +0.000 C 
ATOM     10  N   UNL     1      53.312   5.106  18.336  0.00  0.00    +0.000 N 
ATOM     11  H   UNL     1      52.971   5.659  19.116  0.00  0.00    +0.000 HD
BRANCH   9  12
ATOM     12  C   UNL     1      54.664   7.078  17.827  0.00  0.00    +0.000 A 
ATOM     13  C   UNL     1      55.044   7.932  16.795  0.00  0.00    +0.000 A 
ATOM     14  C   UNL     1      55.426   9.229  17.118  0.00  0.00    +0.000 A 
ATOM     15  C   UNL     1      55.419   9.625  18.451  0.00  0.00    +0.000 A 
ATOM     16  C   UNL     1      55.027   8.703  19.414  0.00  0.00    +0.000 A 
ATOM     17  N   UNL     1      54.644   7.435  19.140  0.00  0.00    +0.000 NA
ENDBRANCH   9  12
ENDBRANCH   7  10
ENDBRANCH   1   7
BRANCH   4  18
ATOM     18  C   UNL     1      47.227   3.442  16.728  0.00  0.00    +0.000 C 
BRANCH  18  19
ATOM     19  N   UNL     1      46.807   4.419  15.750  0.00  0.00    +0.000 N 
ATOM     20  C   UNL     1      46.825   4.182  14.403  0.00  0.00    +0.000 C 
ATOM     21  O   UNL     1      47.205   3.113  13.932  0.00  0.00    +0.000 OA
ATOM     22  H   UNL     1      46.721   5.369  16.098  0.00  0.00    +0.000 HD
BRANCH  20  23
ATOM     23  C   UNL     1      46.285   5.249  13.549  0.00  0.00    +0.000 A 
ATOM     24  C   UNL     1      47.050   6.380  13.292  0.00  0.00    +0.000 A 
ATOM     25  S   UNL     1      46.300   7.488  12.235  0.00  0.00    +0.000 S 
ATOM     26  C   UNL     1      44.906   6.520  12.120  0.00  0.00    +0.000 A 
ATOM     27  N   UNL     1      43.843   6.910  11.367  0.00  0.00    +0.000 NA
ATOM     28  C   UNL     1      42.842   6.095  11.395  0.00  0.00    +0.000 A 
ATOM     29  N   UNL     1      42.807   4.924  12.103  0.00  0.00    +0.000 N 
ATOM     30  C   UNL     1      43.874   4.467  12.837  0.00  0.00    +0.000 A 
ATOM     31  O   UNL     1      43.839   3.373  13.393  0.00  0.00    +0.000 OA
ATOM     32  C   UNL     1      45.018   5.358  12.862  0.00  0.00    +0.000 A 
ATOM     33  H   UNL     1      41.999   4.319  12.073  0.00  0.00    +0.000 HD
ENDBRANCH  20  23
ENDBRANCH  18  19
ENDBRANCH   4  18
TORSDOF 6
ENDMDL
