MODEL 1
REMARK VINA RESULT:    -7.782      0.000      0.000
REMARK INTER + INTRA:         -11.884
REMARK INTER:                 -10.967
REMARK INTRA:                  -0.917
REMARK UNBOUND:                -0.917
REMARK  Name = 
REMARK  8 active torsions:
REMARK  status: ('A' for Active; 'I' for Inactive)
REMARK    1  A    between atoms: C_1  and  C_2
REMARK    2  A    between atoms: C_2  and  N_3
REMARK    3  A    between atoms: C_2  and  C_25
REMARK    4  A    between atoms: N_3  and  C_4
REMARK    5  A    between atoms: C_4  and  C_5
REMARK    6  A    between atoms: C_8  and  C_9
REMARK    7  A    between atoms: C_9  and  N_10
REMARK    8  A    between atoms: C_11  and  C_13
REMARK                            x       y       z     vdW  Elec       q    Type
REMARK                         _______ _______ _______ _____ _____    ______ ____
ROOT
ATOM      1  C   UNL     1      45.383   4.552  12.190  0.00  0.00    +0.000 A 
ATOM      2  C   UNL     1      46.048   4.172  13.365  0.00  0.00    +0.000 A 
ATOM      3  C   UNL     1      47.025   4.993  13.930  0.00  0.00    +0.000 A 
ATOM      4  C   UNL     1      47.350   6.218  13.334  0.00  0.00    +0.000 A 
ATOM      5  C   UNL     1      46.711   6.582  12.142  0.00  0.00    +0.000 A 
ATOM      6  C   UNL     1      45.731   5.761  11.577  0.00  0.00    +0.000 A 
ENDROOT
BRANCH   1   7
ATOM      7  C   UNL     1      44.348   3.645  11.566  0.00  0.00    +0.000 C 
BRANCH   7   8
ATOM      8  N   UNL     1      44.970   2.654  10.687  0.00  0.00    +0.000 NA
ATOM      9  H   UNL     1      44.665   1.729  10.998  0.00  0.00    +0.000 HD
BRANCH   8  11
ATOM     10  C   UNL     1      44.120   4.232   8.937  0.00  0.00    +0.000 C 
ATOM     11  C   UNL     1      44.579   2.806   9.272  0.00  0.00    +0.000 C 
BRANCH  11  12
ATOM     12  C   UNL     1      45.720   2.385   8.355  0.00  0.00    +0.000 A 
ATOM     13  C   UNL     1      46.431   3.319   7.601  0.00  0.00    +0.000 A 
ATOM     14  N   UNL     1      47.469   2.988   6.795  0.00  0.00    +0.000 NA
ATOM     15  C   UNL     1      47.788   1.677   6.779  0.00  0.00    +0.000 A 
ATOM     16  C   UNL     1      47.095   0.737   7.522  0.00  0.00    +0.000 A 
ATOM     17  N   UNL     1      46.052   1.065   8.321  0.00  0.00    +0.000 NA
ENDBRANCH  11  12
ENDBRANCH   8  11
ENDBRANCH   7   8
ENDBRANCH   1   7
BRANCH   4  18
ATOM     18  C   UNL     1      48.396   7.115  13.939  0.00  0.00    +0.000 C 
BRANCH  18  19
ATOM     19  N   UNL     1      48.408   7.006  15.375  0.00  0.00    +0.000 N 
ATOM     20  C   UNL     1      49.590   6.973  16.068  0.00  0.00    +0.000 C 
ATOM     21  O   UNL     1      50.676   7.082  15.504  0.00  0.00    +0.000 OA
ATOM     22  H   UNL     1      47.551   6.700  15.824  0.00  0.00    +0.000 HD
BRANCH  20  23
ATOM     23  C   UNL     1      49.495   6.862  17.529  0.00  0.00    +0.000 A 
ATOM     24  C   UNL     1      49.778   7.969  18.318  0.00  0.00    +0.000 A 
ATOM     25  S   UNL     1      49.568   7.689  19.987  0.00  0.00    +0.000 S 
ATOM     26  C   UNL     1      49.143   6.064  19.718  0.00  0.00    +0.000 A 
ATOM     27  N   UNL     1      48.855   5.236  20.758  0.00  0.00    +0.000 NA
ATOM     28  C   UNL     1      48.580   4.023  20.413  0.00  0.00    +0.000 A 
ATOM     29  N   UNL     1      48.563   3.563  19.122  0.00  0.00    +0.000 N 
ATOM     30  C   UNL     1      48.824   4.368  18.039  0.00  0.00    +0.000 A 
ATOM     31  O   UNL     1      48.770   3.930  16.893  0.00  0.00    +0.000 OA
ATOM     32  C   UNL     1      49.146   5.741  18.371  0.00  0.00    +0.000 A 
ATOM     33  H   UNL     1      48.336   2.600  18.919  0.00  0.00    +0.000 HD
ENDBRANCH  20  23
ENDBRANCH  18  19
ENDBRANCH   4  18
TORSDOF 7
ENDMDL
MODEL 2
REMARK VINA RESULT:    -7.670      1.628      2.221
REMARK INTER + INTRA:         -11.725
REMARK INTER:                 -10.624
REMARK INTRA:                  -1.101
REMARK UNBOUND:                -0.917
REMARK  Name = 
REMARK  8 active torsions:
REMARK  status: ('A' for Active; 'I' for Inactive)
REMARK    1  A    between atoms: C_1  and  C_2
REMARK    2  A    between atoms: C_2  and  N_3
REMARK    3  A    between atoms: C_2  and  C_25
REMARK    4  A    between atoms: N_3  and  C_4
REMARK    5  A    between atoms: C_4  and  C_5
REMARK    6  A    between atoms: C_8  and  C_9
REMARK    7  A    between atoms: C_9  and  N_10
REMARK    8  A    between atoms: C_11  and  C_13
REMARK                            x       y       z     vdW  Elec       q    Type
REMARK                         _______ _______ _______ _____ _____    ______ ____
ROOT
ATOM      1  C   UNL     1      45.392   4.596  12.168  0.00  0.00    +0.000 A 
ATOM      2  C   UNL     1      46.010   4.007  13.281  0.00  0.00    +0.000 A 
ATOM      3  C   UNL     1      47.029   4.670  13.966  0.00  0.00    +0.000 A 
ATOM      4  C   UNL     1      47.446   5.942  13.555  0.00  0.00    +0.000 A 
ATOM      5  C   UNL     1      46.854   6.516  12.422  0.00  0.00    +0.000 A 
ATOM      6  C   UNL     1      45.832   5.852  11.737  0.00  0.00    +0.000 A 
ENDROOT
BRANCH   1   7
ATOM      7  C   UNL     1      44.311   3.859  11.411  0.00  0.00    +0.000 C 
BRANCH   7   8
ATOM      8  N   UNL     1      44.871   2.780  10.598  0.00  0.00    +0.000 NA
ATOM      9  H   UNL     1      44.479   1.899  10.938  0.00  0.00    +0.000 HD
BRANCH   8  11
ATOM     10  C   UNL     1      44.130   4.325   8.771  0.00  0.00    +0.000 C 
ATOM     11  C   UNL     1      44.536   2.899   9.165  0.00  0.00    +0.000 C 
BRANCH  11  12
ATOM     12  C   UNL     1      45.697   2.418   8.304  0.00  0.00    +0.000 A 
ATOM     13  C   UNL     1      46.442   3.304   7.526  0.00  0.00    +0.000 A 
ATOM     14  N   UNL     1      47.498   2.920   6.768  0.00  0.00    +0.000 NA
ATOM     15  C   UNL     1      47.799   1.606   6.827  0.00  0.00    +0.000 A 
ATOM     16  C   UNL     1      47.072   0.713   7.595  0.00  0.00    +0.000 A 
ATOM     17  N   UNL     1      46.011   1.094   8.346  0.00  0.00    +0.000 NA
ENDBRANCH  11  12
ENDBRANCH   8  11
ENDBRANCH   7   8
ENDBRANCH   1   7
BRANCH   4  18
ATOM     18  C   UNL     1      48.538   6.670  14.291  0.00  0.00    +0.000 C 
BRANCH  18  19
ATOM     19  N   UNL     1      48.284   6.694  15.708  0.00  0.00    +0.000 N 
ATOM     20  C   UNL     1      49.269   6.372  16.605  0.00  0.00    +0.000 C 
ATOM     21  O   UNL     1      50.411   6.099  16.244  0.00  0.00    +0.000 OA
ATOM     22  H   UNL     1      47.313   6.702  16.005  0.00  0.00    +0.000 HD
BRANCH  20  23
ATOM     23  C   UNL     1      48.911   6.430  18.027  0.00  0.00    +0.000 A 
ATOM     24  C   UNL     1      49.121   5.317  18.831  0.00  0.00    +0.000 A 
ATOM     25  S   UNL     1      48.704   5.566  20.465  0.00  0.00    +0.000 S 
ATOM     26  C   UNL     1      48.178   7.153  20.147  0.00  0.00    +0.000 A 
ATOM     27  N   UNL     1      47.668   7.932  21.139  0.00  0.00    +0.000 NA
ATOM     28  C   UNL     1      47.279   9.100  20.753  0.00  0.00    +0.000 A 
ATOM     29  N   UNL     1      47.356   9.563  19.464  0.00  0.00    +0.000 N 
ATOM     30  C   UNL     1      47.884   8.820  18.435  0.00  0.00    +0.000 A 
ATOM     31  O   UNL     1      47.967   9.277  17.298  0.00  0.00    +0.000 OA
ATOM     32  C   UNL     1      48.332   7.495  18.814  0.00  0.00    +0.000 A 
ATOM     33  H   UNL     1      47.035  10.490  19.228  0.00  0.00    +0.000 HD
ENDBRANCH  20  23
ENDBRANCH  18  19
ENDBRANCH   4  18
TORSDOF 7
ENDMDL
MODEL 3
REMARK VINA RESULT:    -7.323      3.058      3.832
REMARK INTER + INTRA:         -11.237
REMARK INTER:                 -10.112
REMARK INTRA:                  -1.125
REMARK UNBOUND:                -0.917
REMARK  Name = 
REMARK  8 active torsions:
REMARK  status: ('A' for Active; 'I' for Inactive)
REMARK    1  A    between atoms: C_1  and  C_2
REMARK    2  A    between atoms: C_2  and  N_3
REMARK    3  A    between atoms: C_2  and  C_25
REMARK    4  A    between atoms: N_3  and  C_4
REMARK    5  A    between atoms: C_4  and  C_5
REMARK    6  A    between atoms: C_8  and  C_9
REMARK    7  A    between atoms: C_9  and  N_10
REMARK    8  A    between atoms: C_11  and  C_13
REMARK                            x       y       z     vdW  Elec       q    Type
REMARK                         _______ _______ _______ _____ _____    ______ ____
ROOT
ATOM      1  C   UNL     1      46.884   4.653  14.138  0.00  0.00    +0.000 A 
ATOM      2  C   UNL     1      47.540   5.885  13.997  0.00  0.00    +0.000 A 
ATOM      3  C   UNL     1      48.296   6.416  15.043  0.00  0.00    +0.000 A 
ATOM      4  C   UNL     1      48.419   5.718  16.251  0.00  0.00    +0.000 A 
ATOM      5  C   UNL     1      47.736   4.505  16.406  0.00  0.00    +0.000 A 
ATOM      6  C   UNL     1      46.980   3.973  15.357  0.00  0.00    +0.000 A 
ENDROOT
BRANCH   1   7
ATOM      7  C   UNL     1      46.040   4.099  13.014  0.00  0.00    +0.000 C 
BRANCH   7   8
ATOM      8  N   UNL     1      45.281   5.156  12.346  0.00  0.00    +0.000 NA
ATOM      9  H   UNL     1      45.919   5.644  11.713  0.00  0.00    +0.000 HD
BRANCH   8  11
ATOM     10  C   UNL     1      43.068   5.701  11.307  0.00  0.00    +0.000 C 
ATOM     11  C   UNL     1      44.154   4.642  11.544  0.00  0.00    +0.000 C 
BRANCH  11  12
ATOM     12  C   UNL     1      44.654   4.087  10.216  0.00  0.00    +0.000 A 
ATOM     13  C   UNL     1      45.350   4.885   9.309  0.00  0.00    +0.000 A 
ATOM     14  N   UNL     1      45.835   4.422   8.131  0.00  0.00    +0.000 NA
ATOM     15  C   UNL     1      45.611   3.113   7.893  0.00  0.00    +0.000 A 
ATOM     16  C   UNL     1      44.925   2.306   8.783  0.00  0.00    +0.000 A 
ATOM     17  N   UNL     1      44.432   2.769   9.956  0.00  0.00    +0.000 NA
ENDBRANCH  11  12
ENDBRANCH   8  11
ENDBRANCH   7   8
ENDBRANCH   1   7
BRANCH   4  18
ATOM     18  C   UNL     1      49.238   6.276  17.383  0.00  0.00    +0.000 C 
BRANCH  18  19
ATOM     19  N   UNL     1      50.222   5.325  17.832  0.00  0.00    +0.000 N 
ATOM     20  C   UNL     1      51.495   5.336  17.325  0.00  0.00    +0.000 C 
ATOM     21  O   UNL     1      51.861   6.180  16.509  0.00  0.00    +0.000 OA
ATOM     22  H   UNL     1      49.882   4.505  18.326  0.00  0.00    +0.000 HD
BRANCH  20  23
ATOM     23  C   UNL     1      52.423   4.327  17.849  0.00  0.00    +0.000 A 
ATOM     24  C   UNL     1      53.605   4.733  18.453  0.00  0.00    +0.000 A 
ATOM     25  S   UNL     1      54.543   3.443  19.056  0.00  0.00    +0.000 S 
ATOM     26  C   UNL     1      53.428   2.292  18.483  0.00  0.00    +0.000 A 
ATOM     27  N   UNL     1      53.648   0.961  18.655  0.00  0.00    +0.000 NA
ATOM     28  C   UNL     1      52.739   0.200  18.144  0.00  0.00    +0.000 A 
ATOM     29  N   UNL     1      51.627   0.649  17.480  0.00  0.00    +0.000 N 
ATOM     30  C   UNL     1      51.352   1.984  17.304  0.00  0.00    +0.000 A 
ATOM     31  O   UNL     1      50.330   2.352  16.730  0.00  0.00    +0.000 OA
ATOM     32  C   UNL     1      52.346   2.884  17.853  0.00  0.00    +0.000 A 
ATOM     33  H   UNL     1      50.951  -0.001  17.106  0.00  0.00    +0.000 HD
ENDBRANCH  20  23
ENDBRANCH  18  19
ENDBRANCH   4  18
TORSDOF 7
ENDMDL
MODEL 4
REMARK VINA RESULT:    -7.214      3.279      8.958
REMARK INTER + INTRA:         -11.083
REMARK INTER:                  -9.713
REMARK INTRA:                  -1.370
REMARK UNBOUND:                -0.917
REMARK  Name = 
REMARK  8 active torsions:
REMARK  status: ('A' for Active; 'I' for Inactive)
REMARK    1  A    between atoms: C_1  and  C_2
REMARK    2  A    between atoms: C_2  and  N_3
REMARK    3  A    between atoms: C_2  and  C_25
REMARK    4  A    between atoms: N_3  and  C_4
REMARK    5  A    between atoms: C_4  and  C_5
REMARK    6  A    between atoms: C_8  and  C_9
REMARK    7  A    between atoms: C_9  and  N_10
REMARK    8  A    between atoms: C_11  and  C_13
REMARK                            x       y       z     vdW  Elec       q    Type
REMARK                         _______ _______ _______ _____ _____    ______ ____
ROOT
ATOM      1  C   UNL     1      48.731   8.012  16.114  0.00  0.00    +0.000 A 
ATOM      2  C   UNL     1      49.039   6.871  15.358  0.00  0.00    +0.000 A 
ATOM      3  C   UNL     1      48.648   6.774  14.022  0.00  0.00    +0.000 A 
ATOM      4  C   UNL     1      47.949   7.821  13.411  0.00  0.00    +0.000 A 
ATOM      5  C   UNL     1      47.610   8.946  14.175  0.00  0.00    +0.000 A 
ATOM      6  C   UNL     1      48.003   9.045  15.513  0.00  0.00    +0.000 A 
ENDROOT
BRANCH   1   7
ATOM      7  C   UNL     1      49.128   8.099  17.569  0.00  0.00    +0.000 C 
BRANCH   7   8
ATOM      8  N   UNL     1      48.098   7.532  18.438  0.00  0.00    +0.000 NA
ATOM      9  H   UNL     1      47.313   7.251  17.846  0.00  0.00    +0.000 HD
BRANCH   8  11
ATOM     10  C   UNL     1      47.779   6.123  20.484  0.00  0.00    +0.000 C 
ATOM     11  C   UNL     1      48.554   6.339  19.178  0.00  0.00    +0.000 C 
BRANCH  11  12
ATOM     12  C   UNL     1      48.468   5.099  18.296  0.00  0.00    +0.000 A 
ATOM     13  C   UNL     1      49.599   4.343  17.992  0.00  0.00    +0.000 A 
ATOM     14  N   UNL     1      49.560   3.219  17.234  0.00  0.00    +0.000 NA
ATOM     15  C   UNL     1      48.334   2.864  16.798  0.00  0.00    +0.000 A 
ATOM     16  C   UNL     1      47.200   3.602  17.092  0.00  0.00    +0.000 A 
ATOM     17  N   UNL     1      47.239   4.729  17.841  0.00  0.00    +0.000 NA
ENDBRANCH  11  12
ENDBRANCH   8  11
ENDBRANCH   7   8
ENDBRANCH   1   7
BRANCH   4  18
ATOM     18  C   UNL     1      47.529   7.731  11.969  0.00  0.00    +0.000 C 
BRANCH  18  19
ATOM     19  N   UNL     1      46.864   6.483  11.698  0.00  0.00    +0.000 N 
ATOM     20  C   UNL     1      45.501   6.378  11.785  0.00  0.00    +0.000 C 
ATOM     21  O   UNL     1      44.792   7.346  12.049  0.00  0.00    +0.000 OA
ATOM     22  H   UNL     1      47.436   5.644  11.696  0.00  0.00    +0.000 HD
BRANCH  20  23
ATOM     23  C   UNL     1      44.919   5.063  11.487  0.00  0.00    +0.000 A 
ATOM     24  C   UNL     1      44.220   4.385  12.476  0.00  0.00    +0.000 A 
ATOM     25  S   UNL     1      43.563   2.901  11.953  0.00  0.00    +0.000 S 
ATOM     26  C   UNL     1      44.234   3.088  10.401  0.00  0.00    +0.000 A 
ATOM     27  N   UNL     1      44.062   2.134   9.447  0.00  0.00    +0.000 NA
ATOM     28  C   UNL     1      44.651   2.388   8.326  0.00  0.00    +0.000 A 
ATOM     29  N   UNL     1      45.393   3.512   8.072  0.00  0.00    +0.000 N 
ATOM     30  C   UNL     1      45.574   4.512   8.998  0.00  0.00    +0.000 A 
ATOM     31  O   UNL     1      46.220   5.521   8.725  0.00  0.00    +0.000 OA
ATOM     32  C   UNL     1      44.938   4.274  10.277  0.00  0.00    +0.000 A 
ATOM     33  H   UNL     1      45.826   3.653   7.171  0.00  0.00    +0.000 HD
ENDBRANCH  20  23
ENDBRANCH  18  19
ENDBRANCH   4  18
TORSDOF 7
ENDMDL
MODEL 5
REMARK VINA RESULT:    -7.210      2.231      2.411
REMARK INTER + INTRA:         -11.078
REMARK INTER:                 -10.002
REMARK INTRA:                  -1.076
REMARK UNBOUND:                -0.917
REMARK  Name = 
REMARK  8 active torsions:
REMARK  status: ('A' for Active; 'I' for Inactive)
REMARK    1  A    between atoms: C_1  and  C_2
REMARK    2  A    between atoms: C_2  and  N_3
REMARK    3  A    between atoms: C_2  and  C_25
REMARK    4  A    between atoms: N_3  and  C_4
REMARK    5  A    between atoms: C_4  and  C_5
REMARK    6  A    between atoms: C_8  and  C_9
REMARK    7  A    between atoms: C_9  and  N_10
REMARK    8  A    between atoms: C_11  and  C_13
REMARK                            x       y       z     vdW  Elec       q    Type
REMARK                         _______ _______ _______ _____ _____    ______ ____
ROOT
ATOM      1  C   UNL     1      45.719   4.785  12.929  0.00  0.00    +0.000 A 
ATOM      2  C   UNL     1      46.536   4.529  14.040  0.00  0.00    +0.000 A 
ATOM      3  C   UNL     1      47.545   5.422  14.404  0.00  0.00    +0.000 A 
ATOM      4  C   UNL     1      47.751   6.595  13.668  0.00  0.00    +0.000 A 
ATOM      5  C   UNL     1      46.959   6.834  12.537  0.00  0.00    +0.000 A 
ATOM      6  C   UNL     1      45.947   5.940  12.174  0.00  0.00    +0.000 A 
ENDROOT
BRANCH   1   7
ATOM      7  C   UNL     1      44.649   3.799  12.520  0.00  0.00    +0.000 C 
BRANCH   7   8
ATOM      8  N   UNL     1      45.125   2.902  11.467  0.00  0.00    +0.000 NA
ATOM      9  H   UNL     1      45.024   1.943  11.807  0.00  0.00    +0.000 HD
BRANCH   8  11
ATOM     10  C   UNL     1      43.558   4.328  10.132  0.00  0.00    +0.000 C 
ATOM     11  C   UNL     1      44.356   3.020  10.213  0.00  0.00    +0.000 C 
BRANCH  11  12
ATOM     12  C   UNL     1      45.278   2.883   9.007  0.00  0.00    +0.000 A 
ATOM     13  C   UNL     1      45.592   3.979   8.203  0.00  0.00    +0.000 A 
ATOM     14  N   UNL     1      46.429   3.904   7.139  0.00  0.00    +0.000 NA
ATOM     15  C   UNL     1      46.961   2.685   6.912  0.00  0.00    +0.000 A 
ATOM     16  C   UNL     1      46.662   1.588   7.701  0.00  0.00    +0.000 A 
ATOM     17  N   UNL     1      45.819   1.659   8.759  0.00  0.00    +0.000 NA
ENDBRANCH  11  12
ENDBRANCH   8  11
ENDBRANCH   7   8
ENDBRANCH   1   7
BRANCH   4  18
ATOM     18  C   UNL     1      48.830   7.569  14.056  0.00  0.00    +0.000 C 
BRANCH  18  19
ATOM     19  N   UNL     1      49.939   6.896  14.681  0.00  0.00    +0.000 N 
ATOM     20  C   UNL     1      50.705   7.528  15.625  0.00  0.00    +0.000 C 
ATOM     21  O   UNL     1      50.452   8.667  16.009  0.00  0.00    +0.000 OA
ATOM     22  H   UNL     1      50.287   6.057  14.227  0.00  0.00    +0.000 HD
BRANCH  20  23
ATOM     23  C   UNL     1      51.811   6.755  16.204  0.00  0.00    +0.000 A 
ATOM     24  C   UNL     1      53.116   7.196  16.035  0.00  0.00    +0.000 A 
ATOM     25  S   UNL     1      54.274   6.217  16.814  0.00  0.00    +0.000 S 
ATOM     26  C   UNL     1      53.077   5.139  17.360  0.00  0.00    +0.000 A 
ATOM     27  N   UNL     1      53.409   4.038  18.087  0.00  0.00    +0.000 NA
ATOM     28  C   UNL     1      52.407   3.290  18.409  0.00  0.00    +0.000 A 
ATOM     29  N   UNL     1      51.102   3.545  18.072  0.00  0.00    +0.000 N 
ATOM     30  C   UNL     1      50.719   4.656  17.359  0.00  0.00    +0.000 A 
ATOM     31  O   UNL     1      49.537   4.869  17.102  0.00  0.00    +0.000 OA
ATOM     32  C   UNL     1      51.808   5.528  16.967  0.00  0.00    +0.000 A 
ATOM     33  H   UNL     1      50.363   2.920  18.358  0.00  0.00    +0.000 HD
ENDBRANCH  20  23
ENDBRANCH  18  19
ENDBRANCH   4  18
TORSDOF 7
ENDMDL
MODEL 6
REMARK VINA RESULT:    -7.051      5.093      9.620
REMARK INTER + INTRA:         -10.853
REMARK INTER:                  -9.988
REMARK INTRA:                  -0.865
REMARK UNBOUND:                -0.917
REMARK  Name = 
REMARK  8 active torsions:
REMARK  status: ('A' for Active; 'I' for Inactive)
REMARK    1  A    between atoms: C_1  and  C_2
REMARK    2  A    between atoms: C_2  and  N_3
REMARK    3  A    between atoms: C_2  and  C_25
REMARK    4  A    between atoms: N_3  and  C_4
REMARK    5  A    between atoms: C_4  and  C_5
REMARK    6  A    between atoms: C_8  and  C_9
REMARK    7  A    between atoms: C_9  and  N_10
REMARK    8  A    between atoms: C_11  and  C_13
REMARK                            x       y       z     vdW  Elec       q    Type
REMARK                         _______ _______ _______ _____ _____    ______ ____
ROOT
ATOM      1  C   UNL     1      51.469   3.060  17.775  0.00  0.00    +0.000 A 
ATOM      2  C   UNL     1      50.844   4.301  17.970  0.00  0.00    +0.000 A 
ATOM      3  C   UNL     1      49.485   4.466  17.699  0.00  0.00    +0.000 A 
ATOM      4  C   UNL     1      48.721   3.389  17.234  0.00  0.00    +0.000 A 
ATOM      5  C   UNL     1      49.352   2.159  17.005  0.00  0.00    +0.000 A 
ATOM      6  C   UNL     1      50.713   1.993  17.279  0.00  0.00    +0.000 A 
ENDROOT
BRANCH   1   7
ATOM      7  C   UNL     1      52.948   2.896  18.040  0.00  0.00    +0.000 C 
BRANCH   7   8
ATOM      8  N   UNL     1      53.267   1.528  18.449  0.00  0.00    +0.000 NA
ATOM      9  H   UNL     1      52.409   0.977  18.387  0.00  0.00    +0.000 HD
BRANCH   8  11
ATOM     10  C   UNL     1      55.628   1.617  17.618  0.00  0.00    +0.000 C 
ATOM     11  C   UNL     1      54.279   0.886  17.588  0.00  0.00    +0.000 C 
BRANCH  11  12
ATOM     12  C   UNL     1      54.458  -0.577  17.975  0.00  0.00    +0.000 A 
ATOM     13  C   UNL     1      54.925  -1.520  17.059  0.00  0.00    +0.000 A 
ATOM     14  N   UNL     1      55.124  -2.824  17.371  0.00  0.00    +0.000 NA
ATOM     15  C   UNL     1      54.851  -3.156  18.650  0.00  0.00    +0.000 A 
ATOM     16  C   UNL     1      54.389  -2.233  19.572  0.00  0.00    +0.000 A 
ATOM     17  N   UNL     1      54.181  -0.931  19.259  0.00  0.00    +0.000 NA
ENDBRANCH  11  12
ENDBRANCH   8  11
ENDBRANCH   7   8
ENDBRANCH   1   7
BRANCH   4  18
ATOM     18  C   UNL     1      47.254   3.553  16.946  0.00  0.00    +0.000 C 
BRANCH  18  19
ATOM     19  N   UNL     1      47.028   4.579  15.960  0.00  0.00    +0.000 N 
ATOM     20  C   UNL     1      47.076   4.292  14.621  0.00  0.00    +0.000 C 
ATOM     21  O   UNL     1      47.263   3.149  14.210  0.00  0.00    +0.000 OA
ATOM     22  H   UNL     1      47.091   5.543  16.273  0.00  0.00    +0.000 HD
BRANCH  20  23
ATOM     23  C   UNL     1      46.831   5.406  13.698  0.00  0.00    +0.000 A 
ATOM     24  C   UNL     1      47.850   6.311  13.432  0.00  0.00    +0.000 A 
ATOM     25  S   UNL     1      47.420   7.510  12.299  0.00  0.00    +0.000 S 
ATOM     26  C   UNL     1      45.839   6.895  12.164  0.00  0.00    +0.000 A 
ATOM     27  N   UNL     1      44.925   7.491  11.352  0.00  0.00    +0.000 NA
ATOM     28  C   UNL     1      43.758   6.941  11.369  0.00  0.00    +0.000 A 
ATOM     29  N   UNL     1      43.422   5.845  12.122  0.00  0.00    +0.000 N 
ATOM     30  C   UNL     1      44.319   5.197  12.938  0.00  0.00    +0.000 A 
ATOM     31  O   UNL     1      43.992   4.199  13.576  0.00  0.00    +0.000 OA
ATOM     32  C   UNL     1      45.645   5.779  12.961  0.00  0.00    +0.000 A 
ATOM     33  H   UNL     1      42.489   5.461  12.088  0.00  0.00    +0.000 HD
ENDBRANCH  20  23
ENDBRANCH  18  19
ENDBRANCH   4  18
TORSDOF 7
ENDMDL
MODEL 7
REMARK VINA RESULT:    -6.843      1.915      2.514
REMARK INTER + INTRA:         -10.560
REMARK INTER:                  -9.714
REMARK INTRA:                  -0.846
REMARK UNBOUND:                -0.917
REMARK  Name = 
REMARK  8 active torsions:
REMARK  status: ('A' for Active; 'I' for Inactive)
REMARK    1  A    between atoms: C_1  and  C_2
REMARK    2  A    between atoms: C_2  and  N_3
REMARK    3  A    between atoms: C_2  and  C_25
REMARK    4  A    between atoms: N_3  and  C_4
REMARK    5  A    between atoms: C_4  and  C_5
REMARK    6  A    between atoms: C_8  and  C_9
REMARK    7  A    between atoms: C_9  and  N_10
REMARK    8  A    between atoms: C_11  and  C_13
REMARK                            x       y       z     vdW  Elec       q    Type
REMARK                         _______ _______ _______ _____ _____    ______ ____
ROOT
ATOM      1  C   UNL     1      44.747   5.154  11.266  0.00  0.00    +0.000 A 
ATOM      2  C   UNL     1      45.026   6.511  11.043  0.00  0.00    +0.000 A 
ATOM      3  C   UNL     1      45.965   7.185  11.827  0.00  0.00    +0.000 A 
ATOM      4  C   UNL     1      46.650   6.511  12.845  0.00  0.00    +0.000 A 
ATOM      5  C   UNL     1      46.346   5.166  13.092  0.00  0.00    +0.000 A 
ATOM      6  C   UNL     1      45.408   4.491  12.306  0.00  0.00    +0.000 A 
ENDROOT
BRANCH   1   7
ATOM      7  C   UNL     1      43.707   4.438  10.436  0.00  0.00    +0.000 C 
BRANCH   7   8
ATOM      8  N   UNL     1      44.256   4.006   9.151  0.00  0.00    +0.000 NA
ATOM      9  H   UNL     1      44.895   4.734   8.826  0.00  0.00    +0.000 HD
BRANCH   8  11
ATOM     10  C   UNL     1      44.106   1.516   9.378  0.00  0.00    +0.000 C 
ATOM     11  C   UNL     1      45.016   2.744   9.240  0.00  0.00    +0.000 C 
BRANCH  11  12
ATOM     12  C   UNL     1      45.937   2.590   8.035  0.00  0.00    +0.000 A 
ATOM     13  C   UNL     1      46.105   3.622   7.112  0.00  0.00    +0.000 A 
ATOM     14  N   UNL     1      46.935   3.535   6.044  0.00  0.00    +0.000 NA
ATOM     15  C   UNL     1      47.611   2.372   5.936  0.00  0.00    +0.000 A 
ATOM     16  C   UNL     1      47.458   1.339   6.844  0.00  0.00    +0.000 A 
ATOM     17  N   UNL     1      46.622   1.422   7.907  0.00  0.00    +0.000 NA
ENDBRANCH  11  12
ENDBRANCH   8  11
ENDBRANCH   7   8
ENDBRANCH   1   7
BRANCH   4  18
ATOM     18  C   UNL     1      47.670   7.225  13.691  0.00  0.00    +0.000 C 
BRANCH  18  19
ATOM     19  N   UNL     1      48.167   6.371  14.738  0.00  0.00    +0.000 N 
ATOM     20  C   UNL     1      48.863   6.889  15.799  0.00  0.00    +0.000 C 
ATOM     21  O   UNL     1      49.048   8.097  15.924  0.00  0.00    +0.000 OA
ATOM     22  H   UNL     1      48.214   5.375  14.541  0.00  0.00    +0.000 HD
BRANCH  20  23
ATOM     23  C   UNL     1      49.325   5.936  16.814  0.00  0.00    +0.000 A 
ATOM     24  C   UNL     1      48.395   5.267  17.599  0.00  0.00    +0.000 A 
ATOM     25  S   UNL     1      49.092   4.157  18.689  0.00  0.00    +0.000 S 
ATOM     26  C   UNL     1      50.666   4.569  18.189  0.00  0.00    +0.000 A 
ATOM     27  N   UNL     1      51.754   3.984  18.756  0.00  0.00    +0.000 NA
ATOM     28  C   UNL     1      52.885   4.412  18.305  0.00  0.00    +0.000 A 
ATOM     29  N   UNL     1      53.027   5.369  17.334  0.00  0.00    +0.000 N 
ATOM     30  C   UNL     1      51.956   5.970  16.717  0.00  0.00    +0.000 A 
ATOM     31  O   UNL     1      52.119   6.803  15.828  0.00  0.00    +0.000 OA
ATOM     32  C   UNL     1      50.660   5.530  17.192  0.00  0.00    +0.000 A 
ATOM     33  H   UNL     1      53.943   5.659  17.023  0.00  0.00    +0.000 HD
ENDBRANCH  20  23
ENDBRANCH  18  19
ENDBRANCH   4  18
TORSDOF 7
ENDMDL
MODEL 8
REMARK VINA RESULT:    -6.798      3.426      4.967
REMARK INTER + INTRA:         -10.497
REMARK INTER:                  -9.705
REMARK INTRA:                  -0.792
REMARK UNBOUND:                -0.917
REMARK  Name = 
REMARK  8 active torsions:
REMARK  status: ('A' for Active; 'I' for Inactive)
REMARK    1  A    between atoms: C_1  and  C_2
REMARK    2  A    between atoms: C_2  and  N_3
REMARK    3  A    between atoms: C_2  and  C_25
REMARK    4  A    between atoms: N_3  and  C_4
REMARK    5  A    between atoms: C_4  and  C_5
REMARK    6  A    between atoms: C_8  and  C_9
REMARK    7  A    between atoms: C_9  and  N_10
REMARK    8  A    between atoms: C_11  and  C_13
REMARK                            x       y       z     vdW  Elec       q    Type
REMARK                         _______ _______ _______ _____ _____    ______ ____
ROOT
ATOM      1  C   UNL     1      47.548   5.891  14.416  0.00  0.00    +0.000 A 
ATOM      2  C   UNL     1      47.021   4.593  14.342  0.00  0.00    +0.000 A 
ATOM      3  C   UNL     1      47.205   3.687  15.387  0.00  0.00    +0.000 A 
ATOM      4  C   UNL     1      47.914   4.065  16.534  0.00  0.00    +0.000 A 
ATOM      5  C   UNL     1      48.471   5.349  16.594  0.00  0.00    +0.000 A 
ATOM      6  C   UNL     1      48.285   6.257  15.548  0.00  0.00    +0.000 A 
ENDROOT
BRANCH   1   7
ATOM      7  C   UNL     1      47.373   6.857  13.268  0.00  0.00    +0.000 C 
BRANCH   7   8
ATOM      8  N   UNL     1      46.974   6.164  12.043  0.00  0.00    +0.000 NA
ATOM      9  H   UNL     1      47.311   5.201  12.108  0.00  0.00    +0.000 HD
BRANCH   8  11
ATOM     10  C   UNL     1      44.931   7.472  11.419  0.00  0.00    +0.000 C 
ATOM     11  C   UNL     1      45.511   6.119  11.852  0.00  0.00    +0.000 C 
BRANCH  11  12
ATOM     12  C   UNL     1      45.138   5.034  10.848  0.00  0.00    +0.000 A 
ATOM     13  C   UNL     1      44.317   3.965  11.205  0.00  0.00    +0.000 A 
ATOM     14  N   UNL     1      43.940   2.996  10.335  0.00  0.00    +0.000 NA
ATOM     15  C   UNL     1      44.406   3.140   9.077  0.00  0.00    +0.000 A 
ATOM     16  C   UNL     1      45.220   4.196   8.706  0.00  0.00    +0.000 A 
ATOM     17  N   UNL     1      45.605   5.160   9.576  0.00  0.00    +0.000 NA
ENDBRANCH  11  12
ENDBRANCH   8  11
ENDBRANCH   7   8
ENDBRANCH   1   7
BRANCH   4  18
ATOM     18  C   UNL     1      48.112   3.099  17.671  0.00  0.00    +0.000 C 
BRANCH  18  19
ATOM     19  N   UNL     1      49.511   2.925  17.968  0.00  0.00    +0.000 N 
ATOM     20  C   UNL     1      50.314   2.170  17.154  0.00  0.00    +0.000 C 
ATOM     21  O   UNL     1      49.891   1.655  16.121  0.00  0.00    +0.000 OA
ATOM     22  H   UNL     1      49.817   3.153  18.909  0.00  0.00    +0.000 HD
BRANCH  20  23
ATOM     23  C   UNL     1      51.725   2.055  17.542  0.00  0.00    +0.000 A 
ATOM     24  C   UNL     1      52.281   0.798  17.736  0.00  0.00    +0.000 A 
ATOM     25  S   UNL     1      53.940   0.838  18.128  0.00  0.00    +0.000 S 
ATOM     26  C   UNL     1      53.962   2.539  18.104  0.00  0.00    +0.000 A 
ATOM     27  N   UNL     1      55.102   3.227  18.385  0.00  0.00    +0.000 NA
ATOM     28  C   UNL     1      54.969   4.510  18.362  0.00  0.00    +0.000 A 
ATOM     29  N   UNL     1      53.801   5.170  18.080  0.00  0.00    +0.000 N 
ATOM     30  C   UNL     1      52.632   4.517  17.769  0.00  0.00    +0.000 A 
ATOM     31  O   UNL     1      51.610   5.140  17.491  0.00  0.00    +0.000 OA
ATOM     32  C   UNL     1      52.724   3.071  17.786  0.00  0.00    +0.000 A 
ATOM     33  H   UNL     1      53.764   6.179  18.076  0.00  0.00    +0.000 HD
ENDBRANCH  20  23
ENDBRANCH  18  19
ENDBRANCH   4  18
TORSDOF 7
ENDMDL
MODEL 9
REMARK VINA RESULT:    -6.748      3.647      8.180
REMARK INTER + INTRA:         -10.426
REMARK INTER:                  -8.567
REMARK INTRA:                  -1.859
REMARK UNBOUND:                -0.917
REMARK  Name = 
REMARK  8 active torsions:
REMARK  status: ('A' for Active; 'I' for Inactive)
REMARK    1  A    between atoms: C_1  and  C_2
REMARK    2  A    between atoms: C_2  and  N_3
REMARK    3  A    between atoms: C_2  and  C_25
REMARK    4  A    between atoms: N_3  and  C_4
REMARK    5  A    between atoms: C_4  and  C_5
REMARK    6  A    between atoms: C_8  and  C_9
REMARK    7  A    between atoms: C_9  and  N_10
REMARK    8  A    between atoms: C_11  and  C_13
REMARK                            x       y       z     vdW  Elec       q    Type
REMARK                         _______ _______ _______ _____ _____    ______ ____
ROOT
ATOM      1  C   UNL     1      51.362   7.108  17.279  0.00  0.00    +0.000 A 
ATOM      2  C   UNL     1      51.268   7.019  15.883  0.00  0.00    +0.000 A 
ATOM      3  C   UNL     1      50.260   7.691  15.190  0.00  0.00    +0.000 A 
ATOM      4  C   UNL     1      49.329   8.476  15.882  0.00  0.00    +0.000 A 
ATOM      5  C   UNL     1      49.400   8.537  17.280  0.00  0.00    +0.000 A 
ATOM      6  C   UNL     1      50.411   7.865  17.973  0.00  0.00    +0.000 A 
ENDROOT
BRANCH   1   7
ATOM      7  C   UNL     1      52.436   6.353  18.027  0.00  0.00    +0.000 C 
BRANCH   7   8
ATOM      8  N   UNL     1      52.533   4.968  17.565  0.00  0.00    +0.000 NA
ATOM      9  H   UNL     1      53.522   4.709  17.568  0.00  0.00    +0.000 HD
BRANCH   8  11
ATOM     10  C   UNL     1      51.424   4.626  19.785  0.00  0.00    +0.000 C 
ATOM     11  C   UNL     1      51.813   4.015  18.431  0.00  0.00    +0.000 C 
BRANCH  11  12
ATOM     12  C   UNL     1      50.580   3.473  17.718  0.00  0.00    +0.000 A 
ATOM     13  C   UNL     1      50.629   2.293  16.976  0.00  0.00    +0.000 A 
ATOM     14  N   UNL     1      49.549   1.764  16.351  0.00  0.00    +0.000 NA
ATOM     15  C   UNL     1      48.400   2.455  16.506  0.00  0.00    +0.000 A 
ATOM     16  C   UNL     1      48.334   3.626  17.240  0.00  0.00    +0.000 A 
ATOM     17  N   UNL     1      49.414   4.161  17.858  0.00  0.00    +0.000 NA
ENDBRANCH  11  12
ENDBRANCH   8  11
ENDBRANCH   7   8
ENDBRANCH   1   7
BRANCH   4  18
ATOM     18  C   UNL     1      48.243   9.211  15.146  0.00  0.00    +0.000 C 
BRANCH  18  19
ATOM     19  N   UNL     1      47.309   8.295  14.543  0.00  0.00    +0.000 N 
ATOM     20  C   UNL     1      47.178   8.217  13.181  0.00  0.00    +0.000 C 
ATOM     21  O   UNL     1      47.879   8.884  12.424  0.00  0.00    +0.000 OA
ATOM     22  H   UNL     1      46.587   7.908  15.143  0.00  0.00    +0.000 HD
BRANCH  20  23
ATOM     23  C   UNL     1      46.201   7.250  12.666  0.00  0.00    +0.000 A 
ATOM     24  C   UNL     1      45.129   7.699  11.908  0.00  0.00    +0.000 A 
ATOM     25  S   UNL     1      44.120   6.447  11.342  0.00  0.00    +0.000 S 
ATOM     26  C   UNL     1      45.052   5.263  12.134  0.00  0.00    +0.000 A 
ATOM     27  N   UNL     1      44.710   3.948  12.070  0.00  0.00    +0.000 NA
ATOM     28  C   UNL     1      45.484   3.163  12.742  0.00  0.00    +0.000 A 
ATOM     29  N   UNL     1      46.572   3.573  13.469  0.00  0.00    +0.000 N 
ATOM     30  C   UNL     1      46.967   4.888  13.542  0.00  0.00    +0.000 A 
ATOM     31  O   UNL     1      47.966   5.217  14.177  0.00  0.00    +0.000 OA
ATOM     32  C   UNL     1      46.128   5.814  12.809  0.00  0.00    +0.000 A 
ATOM     33  H   UNL     1      47.139   2.907  13.971  0.00  0.00    +0.000 HD
ENDBRANCH  20  23
ENDBRANCH  18  19
ENDBRANCH   4  18
TORSDOF 7
ENDMDL
