MODEL 1
REMARK VINA RESULT:    -9.024      0.000      0.000
REMARK INTER + INTRA:         -12.427
REMARK INTER:                 -11.662
REMARK INTRA:                  -0.765
REMARK UNBOUND:                -0.765
REMARK  Name = 
REMARK  5 active torsions:
REMARK  status: ('A' for Active; 'I' for Inactive)
REMARK    1  A    between atoms: C_2  and  C_4
REMARK    2  A    between atoms: C_7  and  N_8
REMARK    3  A    between atoms: N_8  and  C_9
REMARK    4  A    between atoms: C_9  and  C_10
REMARK    5  A    between atoms: C_12  and  C_13
REMARK                            x       y       z     vdW  Elec       q    Type
REMARK                         _______ _______ _______ _____ _____    ______ ____
ROOT
ATOM      1  C   UNL     1      43.647   4.400  11.499  0.00  0.00    +0.000 C 
ENDROOT
BRANCH   1   2
ATOM      2  C   UNL     1      44.940   4.788  12.189  0.00  0.00    +0.000 A 
ATOM      3  C   UNL     1      45.575   5.981  11.831  0.00  0.00    +0.000 A 
ATOM      4  C   UNL     1      46.735   6.397  12.497  0.00  0.00    +0.000 A 
ATOM      5  C   UNL     1      47.207   5.554  13.513  0.00  0.00    +0.000 A 
ATOM      6  C   UNL     1      46.519   4.387  13.813  0.00  0.00    +0.000 A 
ATOM      7  N   UNL     1      45.400   3.987  13.176  0.00  0.00    +0.000 NA
BRANCH   4   8
ATOM      8  C   UNL     1      47.404   7.677  12.161  0.00  0.00    +0.000 A 
ATOM      9  C   UNL     1      46.740   8.915  12.286  0.00  0.00    +0.000 A 
ATOM     10  C   UNL     1      47.384  10.128  12.012  0.00  0.00    +0.000 A 
ATOM     11  C   UNL     1      48.709  10.131  11.593  0.00  0.00    +0.000 A 
ATOM     12  C   UNL     1      49.374   8.922  11.451  0.00  0.00    +0.000 A 
ATOM     13  F   UNL     1      50.651   8.916  11.045  0.00  0.00    +0.000 F 
ATOM     14  C   UNL     1      48.742   7.712  11.732  0.00  0.00    +0.000 A 
ENDBRANCH   4   8
ENDBRANCH   1   2
BRANCH   1  15
ATOM     15  N   UNL     1      43.728   4.683  10.063  0.00  0.00    +0.000 N 
ATOM     16  H   UNL     1      43.812   5.683   9.898  0.00  0.00    +0.000 HD
BRANCH  15  20
ATOM     17  C   UNL     1      46.379   2.314   7.787  0.00  0.00    +0.000 A 
ATOM     18  C   UNL     1      46.370   3.698   7.619  0.00  0.00    +0.000 A 
ATOM     19  C   UNL     1      45.477   4.488   8.345  0.00  0.00    +0.000 A 
ATOM     20  C   UNL     1      44.551   3.922   9.233  0.00  0.00    +0.000 A 
ATOM     21  C   UNL     1      44.584   2.529   9.399  0.00  0.00    +0.000 A 
ATOM     22  C   UNL     1      45.472   1.727   8.671  0.00  0.00    +0.000 A 
BRANCH  17  24
ATOM     23  N   UNL     1      48.449   2.050   6.536  0.00  0.00    +0.000 N 
ATOM     24  C   UNL     1      47.329   1.450   7.042  0.00  0.00    +0.000 C 
ATOM     25  O   UNL     1      47.140   0.249   6.914  0.00  0.00    +0.000 OA
ATOM     26  H   UNL     1      49.135   1.432   6.114  0.00  0.00    +0.000 HD
ATOM     27  H   UNL     1      48.765   2.955   6.847  0.00  0.00    +0.000 HD
ENDBRANCH  17  24
ENDBRANCH  15  20
ENDBRANCH   1  15
TORSDOF 5
ENDMDL
MODEL 2
REMARK VINA RESULT:    -8.944      1.597      2.133
REMARK INTER + INTRA:         -12.324
REMARK INTER:                 -11.581
REMARK INTRA:                  -0.743
REMARK UNBOUND:                -0.765
REMARK  Name = 
REMARK  5 active torsions:
REMARK  status: ('A' for Active; 'I' for Inactive)
REMARK    1  A    between atoms: C_2  and  C_4
REMARK    2  A    between atoms: C_7  and  N_8
REMARK    3  A    between atoms: N_8  and  C_9
REMARK    4  A    between atoms: C_9  and  C_10
REMARK    5  A    between atoms: C_12  and  C_13
REMARK                            x       y       z     vdW  Elec       q    Type
REMARK                         _______ _______ _______ _____ _____    ______ ____
ROOT
ATOM      1  C   UNL     1      43.808   3.367  11.781  0.00  0.00    +0.000 C 
ENDROOT
BRANCH   1   2
ATOM      2  C   UNL     1      45.034   4.049  12.356  0.00  0.00    +0.000 A 
ATOM      3  C   UNL     1      45.249   5.405  12.093  0.00  0.00    +0.000 A 
ATOM      4  C   UNL     1      46.337   6.076  12.665  0.00  0.00    +0.000 A 
ATOM      5  C   UNL     1      47.178   5.315  13.489  0.00  0.00    +0.000 A 
ATOM      6  C   UNL     1      46.896   3.973  13.704  0.00  0.00    +0.000 A 
ATOM      7  N   UNL     1      45.847   3.325  13.159  0.00  0.00    +0.000 NA
BRANCH   4   8
ATOM      8  C   UNL     1      46.563   7.523  12.432  0.00  0.00    +0.000 A 
ATOM      9  C   UNL     1      47.848   8.040  12.168  0.00  0.00    +0.000 A 
ATOM     10  C   UNL     1      48.056   9.399  11.902  0.00  0.00    +0.000 A 
ATOM     11  C   UNL     1      46.981  10.280  11.909  0.00  0.00    +0.000 A 
ATOM     12  C   UNL     1      45.712   9.792  12.181  0.00  0.00    +0.000 A 
ATOM     13  F   UNL     1      44.670  10.635  12.192  0.00  0.00    +0.000 F 
ATOM     14  C   UNL     1      45.496   8.439  12.435  0.00  0.00    +0.000 A 
ENDBRANCH   4   8
ENDBRANCH   1   2
BRANCH   1  15
ATOM     15  N   UNL     1      43.685   3.657  10.350  0.00  0.00    +0.000 N 
ATOM     16  H   UNL     1      43.345   4.605  10.204  0.00  0.00    +0.000 HD
BRANCH  15  20
ATOM     17  C   UNL     1      46.560   2.622   7.438  0.00  0.00    +0.000 A 
ATOM     18  C   UNL     1      46.029   1.635   8.267  0.00  0.00    +0.000 A 
ATOM     19  C   UNL     1      45.099   1.972   9.253  0.00  0.00    +0.000 A 
ATOM     20  C   UNL     1      44.696   3.298   9.460  0.00  0.00    +0.000 A 
ATOM     21  C   UNL     1      45.232   4.276   8.608  0.00  0.00    +0.000 A 
ATOM     22  C   UNL     1      46.170   3.950   7.619  0.00  0.00    +0.000 A 
BRANCH  17  24
ATOM     23  N   UNL     1      47.483   3.040   5.227  0.00  0.00    +0.000 N 
ATOM     24  C   UNL     1      47.537   2.292   6.370  0.00  0.00    +0.000 C 
ATOM     25  O   UNL     1      48.377   1.416   6.516  0.00  0.00    +0.000 OA
ATOM     26  H   UNL     1      48.217   2.870   4.546  0.00  0.00    +0.000 HD
ATOM     27  H   UNL     1      47.001   3.924   5.180  0.00  0.00    +0.000 HD
ENDBRANCH  17  24
ENDBRANCH  15  20
ENDBRANCH   1  15
TORSDOF 5
ENDMDL
MODEL 3
REMARK VINA RESULT:    -8.597      2.716      4.058
REMARK INTER + INTRA:         -11.875
REMARK INTER:                 -11.320
REMARK INTRA:                  -0.555
REMARK UNBOUND:                -0.765
REMARK  Name = 
REMARK  5 active torsions:
REMARK  status: ('A' for Active; 'I' for Inactive)
REMARK    1  A    between atoms: C_2  and  C_4
REMARK    2  A    between atoms: C_7  and  N_8
REMARK    3  A    between atoms: N_8  and  C_9
REMARK    4  A    between atoms: C_9  and  C_10
REMARK    5  A    between atoms: C_12  and  C_13
REMARK                            x       y       z     vdW  Elec       q    Type
REMARK                         _______ _______ _______ _____ _____    ______ ____
ROOT
ATOM      1  C   UNL     1      44.062   4.585  11.589  0.00  0.00    +0.000 C 
ENDROOT
BRANCH   1   2
ATOM      2  C   UNL     1      45.277   5.281  12.170  0.00  0.00    +0.000 A 
ATOM      3  C   UNL     1      45.768   4.876  13.414  0.00  0.00    +0.000 A 
ATOM      4  C   UNL     1      46.927   5.457  13.944  0.00  0.00    +0.000 A 
ATOM      5  C   UNL     1      47.540   6.450  13.167  0.00  0.00    +0.000 A 
ATOM      6  C   UNL     1      46.994   6.794  11.939  0.00  0.00    +0.000 A 
ATOM      7  N   UNL     1      45.881   6.235  11.424  0.00  0.00    +0.000 NA
BRANCH   4   8
ATOM      8  C   UNL     1      47.488   5.017  15.244  0.00  0.00    +0.000 A 
ATOM      9  C   UNL     1      48.495   5.750  15.904  0.00  0.00    +0.000 A 
ATOM     10  C   UNL     1      48.994   5.360  17.154  0.00  0.00    +0.000 A 
ATOM     11  C   UNL     1      48.504   4.215  17.769  0.00  0.00    +0.000 A 
ATOM     12  C   UNL     1      47.522   3.473  17.129  0.00  0.00    +0.000 A 
ATOM     13  F   UNL     1      47.046   2.366  17.715  0.00  0.00    +0.000 F 
ATOM     14  C   UNL     1      47.015   3.861  15.891  0.00  0.00    +0.000 A 
ENDBRANCH   4   8
ENDBRANCH   1   2
BRANCH   1  15
ATOM     15  N   UNL     1      43.995   4.795  10.140  0.00  0.00    +0.000 N 
ATOM     16  H   UNL     1      44.042   5.788   9.919  0.00  0.00    +0.000 HD
BRANCH  15  20
ATOM     17  C   UNL     1      46.441   2.336   7.736  0.00  0.00    +0.000 A 
ATOM     18  C   UNL     1      46.462   3.718   7.557  0.00  0.00    +0.000 A 
ATOM     19  C   UNL     1      45.635   4.538   8.327  0.00  0.00    +0.000 A 
ATOM     20  C   UNL     1      44.746   4.006   9.271  0.00  0.00    +0.000 A 
ATOM     21  C   UNL     1      44.748   2.614   9.446  0.00  0.00    +0.000 A 
ATOM     22  C   UNL     1      45.570   1.781   8.675  0.00  0.00    +0.000 A 
BRANCH  17  24
ATOM     23  N   UNL     1      48.361   2.023   6.275  0.00  0.00    +0.000 N 
ATOM     24  C   UNL     1      47.321   1.440   6.944  0.00  0.00    +0.000 C 
ATOM     25  O   UNL     1      47.148   0.230   6.917  0.00  0.00    +0.000 OA
ATOM     26  H   UNL     1      49.010   1.390   5.818  0.00  0.00    +0.000 HD
ATOM     27  H   UNL     1      48.688   2.952   6.488  0.00  0.00    +0.000 HD
ENDBRANCH  17  24
ENDBRANCH  15  20
ENDBRANCH   1  15
TORSDOF 5
ENDMDL
MODEL 4
REMARK VINA RESULT:    -8.417      3.502      6.679
REMARK INTER + INTRA:         -11.643
REMARK INTER:                 -10.774
REMARK INTRA:                  -0.869
REMARK UNBOUND:                -0.765
REMARK  Name = 
REMARK  5 active torsions:
REMARK  status: ('A' for Active; 'I' for Inactive)
REMARK    1  A    between atoms: C_2  and  C_4
REMARK    2  A    between atoms: C_7  and  N_8
REMARK    3  A    between atoms: N_8  and  C_9
REMARK    4  A    between atoms: C_9  and  C_10
REMARK    5  A    between atoms: C_12  and  C_13
REMARK                            x       y       z     vdW  Elec       q    Type
REMARK                         _______ _______ _______ _____ _____    ______ ____
ROOT
ATOM      1  C   UNL     1      43.185   6.278  11.412  0.00  0.00    +0.000 C 
ENDROOT
BRANCH   1   2
ATOM      2  C   UNL     1      43.462   4.821  11.097  0.00  0.00    +0.000 A 
ATOM      3  C   UNL     1      44.259   4.499   9.995  0.00  0.00    +0.000 A 
ATOM      4  C   UNL     1      44.584   3.164   9.719  0.00  0.00    +0.000 A 
ATOM      5  C   UNL     1      44.064   2.201  10.593  0.00  0.00    +0.000 A 
ATOM      6  C   UNL     1      43.283   2.601  11.669  0.00  0.00    +0.000 A 
ATOM      7  N   UNL     1      42.971   3.884  11.940  0.00  0.00    +0.000 NA
BRANCH   4   8
ATOM      8  C   UNL     1      45.459   2.802   8.578  0.00  0.00    +0.000 A 
ATOM      9  C   UNL     1      45.887   3.761   7.637  0.00  0.00    +0.000 A 
ATOM     10  C   UNL     1      46.750   3.430   6.585  0.00  0.00    +0.000 A 
ATOM     11  C   UNL     1      47.197   2.122   6.441  0.00  0.00    +0.000 A 
ATOM     12  C   UNL     1      46.776   1.162   7.349  0.00  0.00    +0.000 A 
ATOM     13  F   UNL     1      47.201  -0.102   7.215  0.00  0.00    +0.000 F 
ATOM     14  C   UNL     1      45.926   1.487   8.403  0.00  0.00    +0.000 A 
ENDBRANCH   4   8
ENDBRANCH   1   2
BRANCH   1  15
ATOM     15  N   UNL     1      43.839   6.664  12.665  0.00  0.00    +0.000 N 
ATOM     16  H   UNL     1      43.478   6.114  13.442  0.00  0.00    +0.000 HD
BRANCH  15  20
ATOM     17  C   UNL     1      48.023   7.208  12.542  0.00  0.00    +0.000 A 
ATOM     18  C   UNL     1      47.495   6.012  13.028  0.00  0.00    +0.000 A 
ATOM     19  C   UNL     1      46.112   5.834  13.101  0.00  0.00    +0.000 A 
ATOM     20  C   UNL     1      45.220   6.846  12.722  0.00  0.00    +0.000 A 
ATOM     21  C   UNL     1      45.770   8.037  12.222  0.00  0.00    +0.000 A 
ATOM     22  C   UNL     1      47.156   8.229  12.150  0.00  0.00    +0.000 A 
BRANCH  17  24
ATOM     23  N   UNL     1      50.204   7.397  13.602  0.00  0.00    +0.000 N 
ATOM     24  C   UNL     1      49.488   7.420  12.437  0.00  0.00    +0.000 C 
ATOM     25  O   UNL     1      50.039   7.574  11.357  0.00  0.00    +0.000 OA
ATOM     26  H   UNL     1      51.214   7.446  13.507  0.00  0.00    +0.000 HD
ATOM     27  H   UNL     1      49.835   7.012  14.457  0.00  0.00    +0.000 HD
ENDBRANCH  17  24
ENDBRANCH  15  20
ENDBRANCH   1  15
TORSDOF 5
ENDMDL
MODEL 5
REMARK VINA RESULT:    -8.111      3.975      7.359
REMARK INTER + INTRA:         -11.247
REMARK INTER:                 -10.655
REMARK INTRA:                  -0.592
REMARK UNBOUND:                -0.765
REMARK  Name = 
REMARK  5 active torsions:
REMARK  status: ('A' for Active; 'I' for Inactive)
REMARK    1  A    between atoms: C_2  and  C_4
REMARK    2  A    between atoms: C_7  and  N_8
REMARK    3  A    between atoms: N_8  and  C_9
REMARK    4  A    between atoms: C_9  and  C_10
REMARK    5  A    between atoms: C_12  and  C_13
REMARK                            x       y       z     vdW  Elec       q    Type
REMARK                         _______ _______ _______ _____ _____    ______ ____
ROOT
ATOM      1  C   UNL     1      46.071   7.337  11.780  0.00  0.00    +0.000 C 
ENDROOT
BRANCH   1   2
ATOM      2  C   UNL     1      45.238   6.268  11.100  0.00  0.00    +0.000 A 
ATOM      3  C   UNL     1      45.834   5.443  10.141  0.00  0.00    +0.000 A 
ATOM      4  C   UNL     1      45.106   4.406   9.545  0.00  0.00    +0.000 A 
ATOM      5  C   UNL     1      43.774   4.261   9.956  0.00  0.00    +0.000 A 
ATOM      6  C   UNL     1      43.255   5.118  10.917  0.00  0.00    +0.000 A 
ATOM      7  N   UNL     1      43.954   6.114  11.496  0.00  0.00    +0.000 NA
BRANCH   4   8
ATOM      8  C   UNL     1      45.728   3.495   8.554  0.00  0.00    +0.000 A 
ATOM      9  C   UNL     1      46.361   3.983   7.393  0.00  0.00    +0.000 A 
ATOM     10  C   UNL     1      46.989   3.127   6.479  0.00  0.00    +0.000 A 
ATOM     11  C   UNL     1      46.986   1.755   6.700  0.00  0.00    +0.000 A 
ATOM     12  C   UNL     1      46.355   1.255   7.829  0.00  0.00    +0.000 A 
ATOM     13  F   UNL     1      46.345  -0.067   8.048  0.00  0.00    +0.000 F 
ATOM     14  C   UNL     1      45.738   2.102   8.747  0.00  0.00    +0.000 A 
ENDBRANCH   4   8
ENDBRANCH   1   2
BRANCH   1  15
ATOM     15  N   UNL     1      47.318   6.764  12.294  0.00  0.00    +0.000 N 
ATOM     16  H   UNL     1      48.085   7.426  12.196  0.00  0.00    +0.000 HD
BRANCH  15  20
ATOM     17  C   UNL     1      47.663   4.622  15.915  0.00  0.00    +0.000 A 
ATOM     18  C   UNL     1      46.843   4.134  14.898  0.00  0.00    +0.000 A 
ATOM     19  C   UNL     1      46.699   4.850  13.708  0.00  0.00    +0.000 A 
ATOM     20  C   UNL     1      47.340   6.080  13.509  0.00  0.00    +0.000 A 
ATOM     21  C   UNL     1      48.172   6.549  14.538  0.00  0.00    +0.000 A 
ATOM     22  C   UNL     1      48.319   5.841  15.738  0.00  0.00    +0.000 A 
BRANCH  17  24
ATOM     23  N   UNL     1      46.884   2.965  17.517  0.00  0.00    +0.000 N 
ATOM     24  C   UNL     1      47.849   3.875  17.184  0.00  0.00    +0.000 C 
ATOM     25  O   UNL     1      48.837   4.037  17.886  0.00  0.00    +0.000 OA
ATOM     26  H   UNL     1      47.072   2.393  18.335  0.00  0.00    +0.000 HD
ATOM     27  H   UNL     1      46.215   2.617  16.849  0.00  0.00    +0.000 HD
ENDBRANCH  17  24
ENDBRANCH  15  20
ENDBRANCH   1  15
TORSDOF 5
ENDMDL
MODEL 6
REMARK VINA RESULT:    -7.853      3.526      7.026
REMARK INTER + INTRA:         -10.913
REMARK INTER:                 -10.487
REMARK INTRA:                  -0.427
REMARK UNBOUND:                -0.765
REMARK  Name = 
REMARK  5 active torsions:
REMARK  status: ('A' for Active; 'I' for Inactive)
REMARK    1  A    between atoms: C_2  and  C_4
REMARK    2  A    between atoms: C_7  and  N_8
REMARK    3  A    between atoms: N_8  and  C_9
REMARK    4  A    between atoms: C_9  and  C_10
REMARK    5  A    between atoms: C_12  and  C_13
REMARK                            x       y       z     vdW  Elec       q    Type
REMARK                         _______ _______ _______ _____ _____    ______ ____
ROOT
ATOM      1  C   UNL     1      43.693   6.284  11.336  0.00  0.00    +0.000 C 
ENDROOT
BRANCH   1   2
ATOM      2  C   UNL     1      43.792   4.819  10.958  0.00  0.00    +0.000 A 
ATOM      3  C   UNL     1      44.581   4.447   9.865  0.00  0.00    +0.000 A 
ATOM      4  C   UNL     1      44.742   3.095   9.533  0.00  0.00    +0.000 A 
ATOM      5  C   UNL     1      44.072   2.169  10.344  0.00  0.00    +0.000 A 
ATOM      6  C   UNL     1      43.310   2.617  11.413  0.00  0.00    +0.000 A 
ATOM      7  N   UNL     1      43.156   3.917  11.738  0.00  0.00    +0.000 NA
BRANCH   4   8
ATOM      8  C   UNL     1      45.605   2.675   8.403  0.00  0.00    +0.000 A 
ATOM      9  C   UNL     1      46.195   1.395   8.358  0.00  0.00    +0.000 A 
ATOM     10  C   UNL     1      46.973   0.979   7.269  0.00  0.00    +0.000 A 
ATOM     11  C   UNL     1      47.191   1.843   6.202  0.00  0.00    +0.000 A 
ATOM     12  C   UNL     1      46.629   3.111   6.236  0.00  0.00    +0.000 A 
ATOM     13  F   UNL     1      46.836   3.950   5.212  0.00  0.00    +0.000 F 
ATOM     14  C   UNL     1      45.846   3.526   7.311  0.00  0.00    +0.000 A 
ENDBRANCH   4   8
ENDBRANCH   1   2
BRANCH   1  15
ATOM     15  N   UNL     1      44.947   6.978  11.029  0.00  0.00    +0.000 N 
ATOM     16  H   UNL     1      44.761   7.889  10.614  0.00  0.00    +0.000 HD
BRANCH  15  20
ATOM     17  C   UNL     1      47.913   6.992  14.032  0.00  0.00    +0.000 A 
ATOM     18  C   UNL     1      47.558   8.186  13.405  0.00  0.00    +0.000 A 
ATOM     19  C   UNL     1      46.599   8.187  12.390  0.00  0.00    +0.000 A 
ATOM     20  C   UNL     1      45.991   7.003  11.952  0.00  0.00    +0.000 A 
ATOM     21  C   UNL     1      46.351   5.813  12.604  0.00  0.00    +0.000 A 
ATOM     22  C   UNL     1      47.316   5.799  13.620  0.00  0.00    +0.000 A 
BRANCH  17  24
ATOM     23  N   UNL     1      48.438   6.910  16.406  0.00  0.00    +0.000 N 
ATOM     24  C   UNL     1      48.916   6.961  15.126  0.00  0.00    +0.000 C 
ATOM     25  O   UNL     1      50.116   6.946  14.897  0.00  0.00    +0.000 OA
ATOM     26  H   UNL     1      49.131   6.791  17.138  0.00  0.00    +0.000 HD
ATOM     27  H   UNL     1      47.487   6.651  16.619  0.00  0.00    +0.000 HD
ENDBRANCH  17  24
ENDBRANCH  15  20
ENDBRANCH   1  15
TORSDOF 5
ENDMDL
MODEL 7
REMARK VINA RESULT:    -7.429      3.719      7.019
REMARK INTER + INTRA:         -10.366
REMARK INTER:                  -9.721
REMARK INTRA:                  -0.645
REMARK UNBOUND:                -0.765
REMARK  Name = 
REMARK  5 active torsions:
REMARK  status: ('A' for Active; 'I' for Inactive)
REMARK    1  A    between atoms: C_2  and  C_4
REMARK    2  A    between atoms: C_7  and  N_8
REMARK    3  A    between atoms: N_8  and  C_9
REMARK    4  A    between atoms: C_9  and  C_10
REMARK    5  A    between atoms: C_12  and  C_13
REMARK                            x       y       z     vdW  Elec       q    Type
REMARK                         _______ _______ _______ _____ _____    ______ ____
ROOT
ATOM      1  C   UNL     1      45.807   4.551  13.542  0.00  0.00    +0.000 C 
ENDROOT
BRANCH   1   2
ATOM      2  C   UNL     1      45.065   4.481  12.221  0.00  0.00    +0.000 A 
ATOM      3  C   UNL     1      45.690   3.896  11.116  0.00  0.00    +0.000 A 
ATOM      4  C   UNL     1      45.004   3.759   9.902  0.00  0.00    +0.000 A 
ATOM      5  C   UNL     1      43.689   4.242   9.870  0.00  0.00    +0.000 A 
ATOM      6  C   UNL     1      43.137   4.807  11.011  0.00  0.00    +0.000 A 
ATOM      7  N   UNL     1      43.792   4.937  12.182  0.00  0.00    +0.000 NA
BRANCH   4   8
ATOM      8  C   UNL     1      45.633   3.107   8.728  0.00  0.00    +0.000 A 
ATOM      9  C   UNL     1      46.004   3.841   7.583  0.00  0.00    +0.000 A 
ATOM     10  C   UNL     1      46.639   3.235   6.492  0.00  0.00    +0.000 A 
ATOM     11  C   UNL     1      46.907   1.872   6.515  0.00  0.00    +0.000 A 
ATOM     12  C   UNL     1      46.536   1.130   7.627  0.00  0.00    +0.000 A 
ATOM     13  F   UNL     1      46.789  -0.185   7.656  0.00  0.00    +0.000 F 
ATOM     14  C   UNL     1      45.913   1.729   8.720  0.00  0.00    +0.000 A 
ENDBRANCH   4   8
ENDBRANCH   1   2
BRANCH   1  15
ATOM     15  N   UNL     1      46.182   5.935  13.845  0.00  0.00    +0.000 N 
ATOM     16  H   UNL     1      46.056   6.132  14.836  0.00  0.00    +0.000 HD
BRANCH  15  20
ATOM     17  C   UNL     1      49.668   7.845  12.425  0.00  0.00    +0.000 A 
ATOM     18  C   UNL     1      48.604   7.612  11.555  0.00  0.00    +0.000 A 
ATOM     19  C   UNL     1      47.458   6.954  12.008  0.00  0.00    +0.000 A 
ATOM     20  C   UNL     1      47.352   6.486  13.324  0.00  0.00    +0.000 A 
ATOM     21  C   UNL     1      48.427   6.742  14.189  0.00  0.00    +0.000 A 
ATOM     22  C   UNL     1      49.584   7.396  13.744  0.00  0.00    +0.000 A 
BRANCH  17  24
ATOM     23  N   UNL     1      52.089   8.078  12.431  0.00  0.00    +0.000 N 
ATOM     24  C   UNL     1      50.891   8.557  11.978  0.00  0.00    +0.000 C 
ATOM     25  O   UNL     1      50.838   9.507  11.210  0.00  0.00    +0.000 OA
ATOM     26  H   UNL     1      52.921   8.511  12.042  0.00  0.00    +0.000 HD
ATOM     27  H   UNL     1      52.188   7.158  12.832  0.00  0.00    +0.000 HD
ENDBRANCH  17  24
ENDBRANCH  15  20
ENDBRANCH   1  15
TORSDOF 5
ENDMDL
