MODEL 1
REMARK VINA RESULT:    -8.159      0.000      0.000
REMARK INTER + INTRA:         -11.881
REMARK INTER:                 -11.021
REMARK INTRA:                  -0.860
REMARK UNBOUND:                -0.860
REMARK  Name = 
REMARK  7 active torsions:
REMARK  status: ('A' for Active; 'I' for Inactive)
REMARK    1  A    between atoms: C_1  and  C_2
REMARK    2  A    between atoms: C_2  and  C_3
REMARK    3  A    between atoms: C_2  and  C_14
REMARK    4  A    between atoms: C_3  and  N_4
REMARK    5  A    between atoms: N_4  and  C_5
REMARK    6  A    between atoms: C_8  and  C_9
REMARK    7  A    between atoms: C_18  and  C_19
REMARK                            x       y       z     vdW  Elec       q    Type
REMARK                         _______ _______ _______ _____ _____    ______ ____
ROOT
ATOM      1  C   UNL     1      44.279   5.664  10.899  0.00  0.00    +0.000 C 
ENDROOT
BRANCH   1   3
ATOM      2  C   UNL     1      43.478   4.272  12.908  0.00  0.00    +0.000 C 
ATOM      3  C   UNL     1      44.593   4.956  12.181  0.00  0.00    +0.000 C 
BRANCH   3   4
ATOM      4  C   UNL     1      45.820   5.332  12.893  0.00  0.00    +0.000 A 
ATOM      5  C   UNL     1      46.544   6.473  12.534  0.00  0.00    +0.000 A 
ATOM      6  C   UNL     1      47.649   6.872  13.290  0.00  0.00    +0.000 A 
ATOM      7  C   UNL     1      48.021   6.147  14.421  0.00  0.00    +0.000 A 
ATOM      8  C   UNL     1      47.306   5.000  14.792  0.00  0.00    +0.000 A 
ATOM      9  C   UNL     1      46.227   4.586  14.002  0.00  0.00    +0.000 A 
BRANCH   8  10
ATOM     10  C   UNL     1      47.628   4.230  16.047  0.00  0.00    +0.000 C 
ATOM     11  F   UNL     1      46.653   4.291  16.995  0.00  0.00    +0.000 F 
ATOM     12  F   UNL     1      47.821   2.904  15.795  0.00  0.00    +0.000 F 
ATOM     13  F   UNL     1      48.769   4.664  16.648  0.00  0.00    +0.000 F 
ENDBRANCH   8  10
ENDBRANCH   3   4
ENDBRANCH   1   3
BRANCH   1  14
ATOM     14  N   UNL     1      43.713   4.687   9.970  0.00  0.00    +0.000 N 
ATOM     15  H   UNL     1      43.043   5.121   9.337  0.00  0.00    +0.000 HD
BRANCH  14  16
ATOM     16  C   UNL     1      44.630   3.886   9.273  0.00  0.00    +0.000 A 
ATOM     17  C   UNL     1      45.481   4.470   8.325  0.00  0.00    +0.000 A 
ATOM     18  C   UNL     1      46.373   3.682   7.595  0.00  0.00    +0.000 A 
ATOM     19  C   UNL     1      46.364   2.311   7.810  0.00  0.00    +0.000 A 
ATOM     20  N   UNL     1      45.521   1.688   8.676  0.00  0.00    +0.000 NA
ATOM     21  C   UNL     1      44.674   2.492   9.356  0.00  0.00    +0.000 A 
BRANCH  19  22
ATOM     22  C   UNL     1      47.314   1.425   7.070  0.00  0.00    +0.000 C 
ATOM     23  N   UNL     1      48.414   2.056   6.556  0.00  0.00    +0.000 N 
ATOM     24  O   UNL     1      47.129   0.222   6.929  0.00  0.00    +0.000 OA
ATOM     25  H   UNL     1      48.528   3.052   6.702  0.00  0.00    +0.000 HD
ATOM     26  H   UNL     1      49.105   1.524   6.046  0.00  0.00    +0.000 HD
ENDBRANCH  19  22
ENDBRANCH  14  16
ENDBRANCH   1  14
TORSDOF 6
ENDMDL
MODEL 2
REMARK VINA RESULT:    -8.008      2.449      3.136
REMARK INTER + INTRA:         -11.677
REMARK INTER:                 -10.766
REMARK INTRA:                  -0.911
REMARK UNBOUND:                -0.860
REMARK  Name = 
REMARK  7 active torsions:
REMARK  status: ('A' for Active; 'I' for Inactive)
REMARK    1  A    between atoms: C_1  and  C_2
REMARK    2  A    between atoms: C_2  and  C_3
REMARK    3  A    between atoms: C_2  and  C_14
REMARK    4  A    between atoms: C_3  and  N_4
REMARK    5  A    between atoms: N_4  and  C_5
REMARK    6  A    between atoms: C_8  and  C_9
REMARK    7  A    between atoms: C_18  and  C_19
REMARK                            x       y       z     vdW  Elec       q    Type
REMARK                         _______ _______ _______ _____ _____    ______ ____
ROOT
ATOM      1  C   UNL     1      43.717   4.852  11.248  0.00  0.00    +0.000 C 
ENDROOT
BRANCH   1   3
ATOM      2  C   UNL     1      45.655   3.947  12.676  0.00  0.00    +0.000 C 
ATOM      3  C   UNL     1      45.098   5.025  11.800  0.00  0.00    +0.000 C 
BRANCH   3   4
ATOM      4  C   UNL     1      45.654   6.382  11.853  0.00  0.00    +0.000 A 
ATOM      5  C   UNL     1      44.825   7.499  11.987  0.00  0.00    +0.000 A 
ATOM      6  C   UNL     1      45.378   8.772  12.142  0.00  0.00    +0.000 A 
ATOM      7  C   UNL     1      46.762   8.933  12.187  0.00  0.00    +0.000 A 
ATOM      8  C   UNL     1      47.606   7.823  12.051  0.00  0.00    +0.000 A 
ATOM      9  C   UNL     1      47.040   6.558  11.853  0.00  0.00    +0.000 A 
BRANCH   8  10
ATOM     10  C   UNL     1      49.104   7.941  12.168  0.00  0.00    +0.000 C 
ATOM     11  F   UNL     1      49.524   9.124  12.691  0.00  0.00    +0.000 F 
ATOM     12  F   UNL     1      49.631   6.971  12.968  0.00  0.00    +0.000 F 
ATOM     13  F   UNL     1      49.733   7.814  10.967  0.00  0.00    +0.000 F 
ENDBRANCH   8  10
ENDBRANCH   3   4
ENDBRANCH   1   3
BRANCH   1  14
ATOM     14  N   UNL     1      43.806   4.880   9.788  0.00  0.00    +0.000 N 
ATOM     15  H   UNL     1      44.011   5.818   9.447  0.00  0.00    +0.000 HD
BRANCH  14  16
ATOM     16  C   UNL     1      44.646   3.925   9.196  0.00  0.00    +0.000 A 
ATOM     17  C   UNL     1      45.579   4.325   8.232  0.00  0.00    +0.000 A 
ATOM     18  C   UNL     1      46.396   3.383   7.604  0.00  0.00    +0.000 A 
ATOM     19  C   UNL     1      46.230   2.047   7.937  0.00  0.00    +0.000 A 
ATOM     20  N   UNL     1      45.302   1.598   8.824  0.00  0.00    +0.000 NA
ATOM     21  C   UNL     1      44.532   2.548   9.402  0.00  0.00    +0.000 A 
BRANCH  19  22
ATOM     22  C   UNL     1      47.095   0.999   7.310  0.00  0.00    +0.000 C 
ATOM     23  N   UNL     1      46.807  -0.286   7.680  0.00  0.00    +0.000 N 
ATOM     24  O   UNL     1      47.998   1.264   6.525  0.00  0.00    +0.000 OA
ATOM     25  H   UNL     1      46.047  -0.458   8.328  0.00  0.00    +0.000 HD
ATOM     26  H   UNL     1      47.344  -1.051   7.296  0.00  0.00    +0.000 HD
ENDBRANCH  19  22
ENDBRANCH  14  16
ENDBRANCH   1  14
TORSDOF 6
ENDMDL
MODEL 3
REMARK VINA RESULT:    -7.668      2.599      3.196
REMARK INTER + INTRA:         -11.218
REMARK INTER:                 -10.360
REMARK INTRA:                  -0.859
REMARK UNBOUND:                -0.860
REMARK  Name = 
REMARK  7 active torsions:
REMARK  status: ('A' for Active; 'I' for Inactive)
REMARK    1  A    between atoms: C_1  and  C_2
REMARK    2  A    between atoms: C_2  and  C_3
REMARK    3  A    between atoms: C_2  and  C_14
REMARK    4  A    between atoms: C_3  and  N_4
REMARK    5  A    between atoms: N_4  and  C_5
REMARK    6  A    between atoms: C_8  and  C_9
REMARK    7  A    between atoms: C_18  and  C_19
REMARK                            x       y       z     vdW  Elec       q    Type
REMARK                         _______ _______ _______ _____ _____    ______ ____
ROOT
ATOM      1  C   UNL     1      43.843   3.363  11.681  0.00  0.00    +0.000 C 
ENDROOT
BRANCH   1   3
ATOM      2  C   UNL     1      42.628   5.345  12.781  0.00  0.00    +0.000 C 
ATOM      3  C   UNL     1      43.875   4.535  12.613  0.00  0.00    +0.000 C 
BRANCH   3   4
ATOM      4  C   UNL     1      45.182   5.110  12.953  0.00  0.00    +0.000 A 
ATOM      5  C   UNL     1      46.211   4.315  13.466  0.00  0.00    +0.000 A 
ATOM      6  C   UNL     1      47.479   4.858  13.684  0.00  0.00    +0.000 A 
ATOM      7  C   UNL     1      47.732   6.192  13.368  0.00  0.00    +0.000 A 
ATOM      8  C   UNL     1      46.710   7.002  12.853  0.00  0.00    +0.000 A 
ATOM      9  C   UNL     1      45.432   6.457  12.681  0.00  0.00    +0.000 A 
BRANCH   8  10
ATOM     10  C   UNL     1      46.958   8.427  12.429  0.00  0.00    +0.000 C 
ATOM     11  F   UNL     1      47.021   9.306  13.465  0.00  0.00    +0.000 F 
ATOM     12  F   UNL     1      48.135   8.560  11.755  0.00  0.00    +0.000 F 
ATOM     13  F   UNL     1      45.995   8.897  11.591  0.00  0.00    +0.000 F 
ENDBRANCH   8  10
ENDBRANCH   3   4
ENDBRANCH   1   3
BRANCH   1  14
ATOM     14  N   UNL     1      43.608   3.866  10.329  0.00  0.00    +0.000 N 
ATOM     15  H   UNL     1      43.453   4.873  10.329  0.00  0.00    +0.000 HD
BRANCH  14  16
ATOM     16  C   UNL     1      44.543   3.492   9.353  0.00  0.00    +0.000 A 
ATOM     17  C   UNL     1      44.954   2.156   9.262  0.00  0.00    +0.000 A 
ATOM     18  C   UNL     1      45.912   1.773   8.322  0.00  0.00    +0.000 A 
ATOM     19  C   UNL     1      46.466   2.755   7.514  0.00  0.00    +0.000 A 
ATOM     20  N   UNL     1      46.145   4.074   7.598  0.00  0.00    +0.000 NA
ATOM     21  C   UNL     1      45.215   4.396   8.526  0.00  0.00    +0.000 A 
BRANCH  19  22
ATOM     22  C   UNL     1      47.481   2.396   6.475  0.00  0.00    +0.000 C 
ATOM     23  N   UNL     1      47.428   3.143   5.331  0.00  0.00    +0.000 N 
ATOM     24  O   UNL     1      48.301   1.498   6.629  0.00  0.00    +0.000 OA
ATOM     25  H   UNL     1      46.736   3.878   5.250  0.00  0.00    +0.000 HD
ATOM     26  H   UNL     1      48.083   2.963   4.583  0.00  0.00    +0.000 HD
ENDBRANCH  19  22
ENDBRANCH  14  16
ENDBRANCH   1  14
TORSDOF 6
ENDMDL
MODEL 4
REMARK VINA RESULT:    -7.414      4.788      7.111
REMARK INTER + INTRA:         -10.875
REMARK INTER:                  -9.873
REMARK INTRA:                  -1.001
REMARK UNBOUND:                -0.860
REMARK  Name = 
REMARK  7 active torsions:
REMARK  status: ('A' for Active; 'I' for Inactive)
REMARK    1  A    between atoms: C_1  and  C_2
REMARK    2  A    between atoms: C_2  and  C_3
REMARK    3  A    between atoms: C_2  and  C_14
REMARK    4  A    between atoms: C_3  and  N_4
REMARK    5  A    between atoms: N_4  and  C_5
REMARK    6  A    between atoms: C_8  and  C_9
REMARK    7  A    between atoms: C_18  and  C_19
REMARK                            x       y       z     vdW  Elec       q    Type
REMARK                         _______ _______ _______ _____ _____    ______ ____
ROOT
ATOM      1  C   UNL     1      45.554   3.148  12.438  0.00  0.00    +0.000 C 
ENDROOT
BRANCH   1   3
ATOM      2  C   UNL     1      43.227   2.624  11.476  0.00  0.00    +0.000 C 
ATOM      3  C   UNL     1      44.596   3.200  11.288  0.00  0.00    +0.000 C 
BRANCH   3   4
ATOM      4  C   UNL     1      45.146   3.375   9.940  0.00  0.00    +0.000 A 
ATOM      5  C   UNL     1      45.295   4.646   9.377  0.00  0.00    +0.000 A 
ATOM      6  C   UNL     1      45.917   4.800   8.137  0.00  0.00    +0.000 A 
ATOM      7  C   UNL     1      46.417   3.686   7.463  0.00  0.00    +0.000 A 
ATOM      8  C   UNL     1      46.274   2.405   8.012  0.00  0.00    +0.000 A 
ATOM      9  C   UNL     1      45.609   2.260   9.236  0.00  0.00    +0.000 A 
BRANCH   8  10
ATOM     10  C   UNL     1      46.863   1.184   7.354  0.00  0.00    +0.000 C 
ATOM     11  F   UNL     1      46.405   0.009   7.865  0.00  0.00    +0.000 F 
ATOM     12  F   UNL     1      46.590   1.143   6.020  0.00  0.00    +0.000 F 
ATOM     13  F   UNL     1      48.219   1.138   7.457  0.00  0.00    +0.000 F 
ENDBRANCH   8  10
ENDBRANCH   3   4
ENDBRANCH   1   3
BRANCH   1  14
ATOM     14  N   UNL     1      45.149   4.161  13.411  0.00  0.00    +0.000 N 
ATOM     15  H   UNL     1      45.297   3.839  14.366  0.00  0.00    +0.000 HD
BRANCH  14  16
ATOM     16  C   UNL     1      45.665   5.451  13.220  0.00  0.00    +0.000 A 
ATOM     17  C   UNL     1      44.822   6.475  12.768  0.00  0.00    +0.000 A 
ATOM     18  C   UNL     1      45.327   7.756  12.535  0.00  0.00    +0.000 A 
ATOM     19  C   UNL     1      46.684   7.970  12.729  0.00  0.00    +0.000 A 
ATOM     20  N   UNL     1      47.556   6.999  13.112  0.00  0.00    +0.000 NA
ATOM     21  C   UNL     1      47.020   5.775  13.321  0.00  0.00    +0.000 A 
BRANCH  19  22
ATOM     22  C   UNL     1      47.272   9.328  12.515  0.00  0.00    +0.000 C 
ATOM     23  N   UNL     1      46.395  10.368  12.658  0.00  0.00    +0.000 N 
ATOM     24  O   UNL     1      48.451   9.506  12.231  0.00  0.00    +0.000 OA
ATOM     25  H   UNL     1      45.430  10.173  12.898  0.00  0.00    +0.000 HD
ATOM     26  H   UNL     1      46.717  11.318  12.533  0.00  0.00    +0.000 HD
ENDBRANCH  19  22
ENDBRANCH  14  16
ENDBRANCH   1  14
TORSDOF 6
ENDMDL
MODEL 5
REMARK VINA RESULT:    -6.947      4.742      7.299
REMARK INTER + INTRA:         -10.244
REMARK INTER:                  -9.842
REMARK INTRA:                  -0.402
REMARK UNBOUND:                -0.860
REMARK  Name = 
REMARK  7 active torsions:
REMARK  status: ('A' for Active; 'I' for Inactive)
REMARK    1  A    between atoms: C_1  and  C_2
REMARK    2  A    between atoms: C_2  and  C_3
REMARK    3  A    between atoms: C_2  and  C_14
REMARK    4  A    between atoms: C_3  and  N_4
REMARK    5  A    between atoms: N_4  and  C_5
REMARK    6  A    between atoms: C_8  and  C_9
REMARK    7  A    between atoms: C_18  and  C_19
REMARK                            x       y       z     vdW  Elec       q    Type
REMARK                         _______ _______ _______ _____ _____    ______ ____
ROOT
ATOM      1  C   UNL     1      45.152   6.696  11.488  0.00  0.00    +0.000 C 
ENDROOT
BRANCH   1   3
ATOM      2  C   UNL     1      42.672   6.015  11.482  0.00  0.00    +0.000 C 
ATOM      3  C   UNL     1      44.063   5.810  10.968  0.00  0.00    +0.000 C 
BRANCH   3   4
ATOM      4  C   UNL     1      44.446   4.529  10.364  0.00  0.00    +0.000 A 
ATOM      5  C   UNL     1      43.864   3.328  10.781  0.00  0.00    +0.000 A 
ATOM      6  C   UNL     1      44.164   2.134  10.122  0.00  0.00    +0.000 A 
ATOM      7  C   UNL     1      45.028   2.136   9.028  0.00  0.00    +0.000 A 
ATOM      8  C   UNL     1      45.621   3.331   8.600  0.00  0.00    +0.000 A 
ATOM      9  C   UNL     1      45.347   4.515   9.295  0.00  0.00    +0.000 A 
BRANCH   8  10
ATOM     10  C   UNL     1      46.503   3.392   7.378  0.00  0.00    +0.000 C 
ATOM     11  F   UNL     1      45.827   3.257   6.205  0.00  0.00    +0.000 F 
ATOM     12  F   UNL     1      47.169   4.577   7.290  0.00  0.00    +0.000 F 
ATOM     13  F   UNL     1      47.460   2.425   7.377  0.00  0.00    +0.000 F 
ENDBRANCH   8  10
ENDBRANCH   3   4
ENDBRANCH   1   3
BRANCH   1  14
ATOM     14  N   UNL     1      46.384   5.911  11.550  0.00  0.00    +0.000 N 
ATOM     15  H   UNL     1      47.103   6.301  10.943  0.00  0.00    +0.000 HD
BRANCH  14  16
ATOM     16  C   UNL     1      46.887   5.639  12.831  0.00  0.00    +0.000 A 
ATOM     17  C   UNL     1      46.350   4.581  13.575  0.00  0.00    +0.000 A 
ATOM     18  C   UNL     1      46.812   4.320  14.867  0.00  0.00    +0.000 A 
ATOM     19  C   UNL     1      47.783   5.156  15.397  0.00  0.00    +0.000 A 
ATOM     20  N   UNL     1      48.298   6.229  14.739  0.00  0.00    +0.000 NA
ATOM     21  C   UNL     1      47.816   6.444  13.494  0.00  0.00    +0.000 A 
BRANCH  19  22
ATOM     22  C   UNL     1      48.328   4.908  16.767  0.00  0.00    +0.000 C 
ATOM     23  N   UNL     1      47.595   5.445  17.789  0.00  0.00    +0.000 N 
ATOM     24  O   UNL     1      49.357   4.272  16.969  0.00  0.00    +0.000 OA
ATOM     25  H   UNL     1      46.748   5.960  17.574  0.00  0.00    +0.000 HD
ATOM     26  H   UNL     1      47.896   5.317  18.745  0.00  0.00    +0.000 HD
ENDBRANCH  19  22
ENDBRANCH  14  16
ENDBRANCH   1  14
TORSDOF 6
ENDMDL
MODEL 6
REMARK VINA RESULT:    -6.920      4.613      7.100
REMARK INTER + INTRA:         -10.208
REMARK INTER:                  -9.364
REMARK INTRA:                  -0.844
REMARK UNBOUND:                -0.860
REMARK  Name = 
REMARK  7 active torsions:
REMARK  status: ('A' for Active; 'I' for Inactive)
REMARK    1  A    between atoms: C_1  and  C_2
REMARK    2  A    between atoms: C_2  and  C_3
REMARK    3  A    between atoms: C_2  and  C_14
REMARK    4  A    between atoms: C_3  and  N_4
REMARK    5  A    between atoms: N_4  and  C_5
REMARK    6  A    between atoms: C_8  and  C_9
REMARK    7  A    between atoms: C_18  and  C_19
REMARK                            x       y       z     vdW  Elec       q    Type
REMARK                         _______ _______ _______ _____ _____    ______ ____
ROOT
ATOM      1  C   UNL     1      45.804   7.520  12.904  0.00  0.00    +0.000 C 
ENDROOT
BRANCH   1   3
ATOM      2  C   UNL     1      44.235   8.394  11.064  0.00  0.00    +0.000 C 
ATOM      3  C   UNL     1      45.042   7.273  11.639  0.00  0.00    +0.000 C 
BRANCH   3   4
ATOM      4  C   UNL     1      44.742   5.883  11.276  0.00  0.00    +0.000 A 
ATOM      5  C   UNL     1      43.802   5.134  11.991  0.00  0.00    +0.000 A 
ATOM      6  C   UNL     1      43.454   3.851  11.566  0.00  0.00    +0.000 A 
ATOM      7  C   UNL     1      44.024   3.317  10.411  0.00  0.00    +0.000 A 
ATOM      8  C   UNL     1      44.968   4.055   9.684  0.00  0.00    +0.000 A 
ATOM      9  C   UNL     1      45.342   5.323  10.145  0.00  0.00    +0.000 A 
BRANCH   8  10
ATOM     10  C   UNL     1      45.554   3.548   8.392  0.00  0.00    +0.000 C 
ATOM     11  F   UNL     1      46.536   4.342   7.884  0.00  0.00    +0.000 F 
ATOM     12  F   UNL     1      46.111   2.312   8.535  0.00  0.00    +0.000 F 
ATOM     13  F   UNL     1      44.622   3.424   7.408  0.00  0.00    +0.000 F 
ENDBRANCH   8  10
ENDBRANCH   3   4
ENDBRANCH   1   3
BRANCH   1  14
ATOM     14  N   UNL     1      47.042   6.744  12.846  0.00  0.00    +0.000 N 
ATOM     15  H   UNL     1      47.849   7.345  12.680  0.00  0.00    +0.000 HD
BRANCH  14  16
ATOM     16  C   UNL     1      47.273   5.857  13.907  0.00  0.00    +0.000 A 
ATOM     17  C   UNL     1      48.067   6.262  14.988  0.00  0.00    +0.000 A 
ATOM     18  C   UNL     1      48.339   5.379  16.035  0.00  0.00    +0.000 A 
ATOM     19  C   UNL     1      47.833   4.090  15.953  0.00  0.00    +0.000 A 
ATOM     20  N   UNL     1      47.105   3.629  14.902  0.00  0.00    +0.000 NA
ATOM     21  C   UNL     1      46.871   4.520  13.911  0.00  0.00    +0.000 A 
BRANCH  19  22
ATOM     22  C   UNL     1      48.076   3.112  17.058  0.00  0.00    +0.000 C 
ATOM     23  N   UNL     1      46.951   2.668  17.697  0.00  0.00    +0.000 N 
ATOM     24  O   UNL     1      49.198   2.732  17.376  0.00  0.00    +0.000 OA
ATOM     25  H   UNL     1      46.044   3.006  17.396  0.00  0.00    +0.000 HD
ATOM     26  H   UNL     1      47.032   2.002  18.453  0.00  0.00    +0.000 HD
ENDBRANCH  19  22
ENDBRANCH  14  16
ENDBRANCH   1  14
TORSDOF 6
ENDMDL
MODEL 7
REMARK VINA RESULT:    -6.796      4.852      7.201
REMARK INTER + INTRA:         -10.040
REMARK INTER:                  -9.303
REMARK INTRA:                  -0.737
REMARK UNBOUND:                -0.860
REMARK  Name = 
REMARK  7 active torsions:
REMARK  status: ('A' for Active; 'I' for Inactive)
REMARK    1  A    between atoms: C_1  and  C_2
REMARK    2  A    between atoms: C_2  and  C_3
REMARK    3  A    between atoms: C_2  and  C_14
REMARK    4  A    between atoms: C_3  and  N_4
REMARK    5  A    between atoms: N_4  and  C_5
REMARK    6  A    between atoms: C_8  and  C_9
REMARK    7  A    between atoms: C_18  and  C_19
REMARK                            x       y       z     vdW  Elec       q    Type
REMARK                         _______ _______ _______ _____ _____    ______ ____
ROOT
ATOM      1  C   UNL     1      44.647   6.637  11.025  0.00  0.00    +0.000 C 
ENDROOT
BRANCH   1   3
ATOM      2  C   UNL     1      42.556   5.337  11.764  0.00  0.00    +0.000 C 
ATOM      3  C   UNL     1      43.756   5.443  10.877  0.00  0.00    +0.000 C 
BRANCH   3   4
ATOM      4  C   UNL     1      44.310   4.246  10.235  0.00  0.00    +0.000 A 
ATOM      5  C   UNL     1      43.834   2.969  10.550  0.00  0.00    +0.000 A 
ATOM      6  C   UNL     1      44.298   1.852   9.853  0.00  0.00    +0.000 A 
ATOM      7  C   UNL     1      45.222   2.006   8.820  0.00  0.00    +0.000 A 
ATOM      8  C   UNL     1      45.710   3.279   8.493  0.00  0.00    +0.000 A 
ATOM      9  C   UNL     1      45.269   4.386   9.229  0.00  0.00    +0.000 A 
BRANCH   8  10
ATOM     10  C   UNL     1      46.652   3.500   7.338  0.00  0.00    +0.000 C 
ATOM     11  F   UNL     1      47.219   4.737   7.321  0.00  0.00    +0.000 F 
ATOM     12  F   UNL     1      47.688   2.615   7.349  0.00  0.00    +0.000 F 
ATOM     13  F   UNL     1      46.044   3.346   6.131  0.00  0.00    +0.000 F 
ENDBRANCH   8  10
ENDBRANCH   3   4
ENDBRANCH   1   3
BRANCH   1  14
ATOM     14  N   UNL     1      44.704   6.986  12.444  0.00  0.00    +0.000 N 
ATOM     15  H   UNL     1      44.086   6.395  12.997  0.00  0.00    +0.000 HD
BRANCH  14  16
ATOM     16  C   UNL     1      45.983   7.066  13.016  0.00  0.00    +0.000 A 
ATOM     17  C   UNL     1      46.538   8.321  13.299  0.00  0.00    +0.000 A 
ATOM     18  C   UNL     1      47.824   8.420  13.833  0.00  0.00    +0.000 A 
ATOM     19  C   UNL     1      48.541   7.250  14.038  0.00  0.00    +0.000 A 
ATOM     20  N   UNL     1      48.071   6.012  13.729  0.00  0.00    +0.000 NA
ATOM     21  C   UNL     1      46.823   5.968  13.211  0.00  0.00    +0.000 A 
BRANCH  19  22
ATOM     22  C   UNL     1      49.914   7.299  14.628  0.00  0.00    +0.000 C 
ATOM     23  N   UNL     1      50.762   8.202  14.047  0.00  0.00    +0.000 N 
ATOM     24  O   UNL     1      50.263   6.586  15.561  0.00  0.00    +0.000 OA
ATOM     25  H   UNL     1      50.428   8.775  13.281  0.00  0.00    +0.000 HD
ATOM     26  H   UNL     1      51.707   8.298  14.392  0.00  0.00    +0.000 HD
ENDBRANCH  19  22
ENDBRANCH  14  16
ENDBRANCH   1  14
TORSDOF 6
ENDMDL
MODEL 8
REMARK VINA RESULT:    -6.430      2.795      4.609
REMARK INTER + INTRA:          -9.546
REMARK INTER:                  -8.727
REMARK INTRA:                  -0.819
REMARK UNBOUND:                -0.860
REMARK  Name = 
REMARK  7 active torsions:
REMARK  status: ('A' for Active; 'I' for Inactive)
REMARK    1  A    between atoms: C_1  and  C_2
REMARK    2  A    between atoms: C_2  and  C_3
REMARK    3  A    between atoms: C_2  and  C_14
REMARK    4  A    between atoms: C_3  and  N_4
REMARK    5  A    between atoms: N_4  and  C_5
REMARK    6  A    between atoms: C_8  and  C_9
REMARK    7  A    between atoms: C_18  and  C_19
REMARK                            x       y       z     vdW  Elec       q    Type
REMARK                         _______ _______ _______ _____ _____    ______ ____
ROOT
ATOM      1  C   UNL     1      48.147   7.121  13.660  0.00  0.00    +0.000 C 
ENDROOT
BRANCH   1   3
ATOM      2  C   UNL     1      48.674   8.908  15.433  0.00  0.00    +0.000 C 
ATOM      3  C   UNL     1      48.517   7.465  15.070  0.00  0.00    +0.000 C 
BRANCH   3   4
ATOM      4  C   UNL     1      49.143   6.423  15.891  0.00  0.00    +0.000 A 
ATOM      5  C   UNL     1      50.418   6.600  16.437  0.00  0.00    +0.000 A 
ATOM      6  C   UNL     1      50.954   5.643  17.302  0.00  0.00    +0.000 A 
ATOM      7  C   UNL     1      50.209   4.515  17.645  0.00  0.00    +0.000 A 
ATOM      8  C   UNL     1      48.930   4.323  17.105  0.00  0.00    +0.000 A 
ATOM      9  C   UNL     1      48.422   5.268  16.205  0.00  0.00    +0.000 A 
BRANCH   8  10
ATOM     10  C   UNL     1      48.062   3.158  17.504  0.00  0.00    +0.000 C 
ATOM     11  F   UNL     1      46.729   3.389  17.357  0.00  0.00    +0.000 F 
ATOM     12  F   UNL     1      48.331   2.045  16.765  0.00  0.00    +0.000 F 
ATOM     13  F   UNL     1      48.242   2.794  18.803  0.00  0.00    +0.000 F 
ENDBRANCH   8  10
ENDBRANCH   3   4
ENDBRANCH   1   3
BRANCH   1  14
ATOM     14  N   UNL     1      46.692   7.202  13.541  0.00  0.00    +0.000 N 
ATOM     15  H   UNL     1      46.402   8.084  13.120  0.00  0.00    +0.000 HD
BRANCH  14  16
ATOM     16  C   UNL     1      46.054   6.110  12.933  0.00  0.00    +0.000 A 
ATOM     17  C   UNL     1      45.763   6.152  11.564  0.00  0.00    +0.000 A 
ATOM     18  C   UNL     1      45.094   5.091  10.950  0.00  0.00    +0.000 A 
ATOM     19  C   UNL     1      44.699   4.021  11.740  0.00  0.00    +0.000 A 
ATOM     20  N   UNL     1      44.907   3.955  13.082  0.00  0.00    +0.000 NA
ATOM     21  C   UNL     1      45.555   5.008  13.631  0.00  0.00    +0.000 A 
BRANCH  19  22
ATOM     22  C   UNL     1      44.000   2.849  11.129  0.00  0.00    +0.000 C 
ATOM     23  N   UNL     1      44.598   2.336  10.011  0.00  0.00    +0.000 N 
ATOM     24  O   UNL     1      42.966   2.377  11.588  0.00  0.00    +0.000 OA
ATOM     25  H   UNL     1      45.455   2.756   9.670  0.00  0.00    +0.000 HD
ATOM     26  H   UNL     1      44.188   1.541   9.542  0.00  0.00    +0.000 HD
ENDBRANCH  19  22
ENDBRANCH  14  16
ENDBRANCH   1  14
TORSDOF 6
ENDMDL
MODEL 9
REMARK VINA RESULT:    -6.346      5.387      8.144
REMARK INTER + INTRA:          -9.433
REMARK INTER:                  -8.790
REMARK INTRA:                  -0.643
REMARK UNBOUND:                -0.860
REMARK  Name = 
REMARK  7 active torsions:
REMARK  status: ('A' for Active; 'I' for Inactive)
REMARK    1  A    between atoms: C_1  and  C_2
REMARK    2  A    between atoms: C_2  and  C_3
REMARK    3  A    between atoms: C_2  and  C_14
REMARK    4  A    between atoms: C_3  and  N_4
REMARK    5  A    between atoms: N_4  and  C_5
REMARK    6  A    between atoms: C_8  and  C_9
REMARK    7  A    between atoms: C_18  and  C_19
REMARK                            x       y       z     vdW  Elec       q    Type
REMARK                         _______ _______ _______ _____ _____    ______ ____
ROOT
ATOM      1  C   UNL     1      47.440   6.032  13.403  0.00  0.00    +0.000 C 
ENDROOT
BRANCH   1   3
ATOM      2  C   UNL     1      46.037   8.157  13.044  0.00  0.00    +0.000 C 
ATOM      3  C   UNL     1      46.352   6.745  12.662  0.00  0.00    +0.000 C 
BRANCH   3   4
ATOM      4  C   UNL     1      45.361   5.934  11.945  0.00  0.00    +0.000 A 
ATOM      5  C   UNL     1      44.016   5.927  12.328  0.00  0.00    +0.000 A 
ATOM      6  C   UNL     1      43.071   5.233  11.571  0.00  0.00    +0.000 A 
ATOM      7  C   UNL     1      43.460   4.562  10.412  0.00  0.00    +0.000 A 
ATOM      8  C   UNL     1      44.804   4.558  10.015  0.00  0.00    +0.000 A 
ATOM      9  C   UNL     1      45.749   5.221  10.808  0.00  0.00    +0.000 A 
BRANCH   8  10
ATOM     10  C   UNL     1      45.256   3.908   8.733  0.00  0.00    +0.000 C 
ATOM     11  F   UNL     1      44.270   3.780   7.804  0.00  0.00    +0.000 F 
ATOM     12  F   UNL     1      46.250   4.616   8.126  0.00  0.00    +0.000 F 
ATOM     13  F   UNL     1      45.756   2.657   8.929  0.00  0.00    +0.000 F 
ENDBRANCH   8  10
ENDBRANCH   3   4
ENDBRANCH   1   3
BRANCH   1  14
ATOM     14  N   UNL     1      46.814   5.113  14.353  0.00  0.00    +0.000 N 
ATOM     15  H   UNL     1      46.574   4.228  13.909  0.00  0.00    +0.000 HD
BRANCH  14  16
ATOM     16  C   UNL     1      47.492   4.911  15.564  0.00  0.00    +0.000 A 
ATOM     17  C   UNL     1      47.213   3.773  16.332  0.00  0.00    +0.000 A 
ATOM     18  C   UNL     1      47.849   3.575  17.559  0.00  0.00    +0.000 A 
ATOM     19  C   UNL     1      48.731   4.550  18.005  0.00  0.00    +0.000 A 
ATOM     20  N   UNL     1      48.995   5.698  17.326  0.00  0.00    +0.000 NA
ATOM     21  C   UNL     1      48.351   5.846  16.146  0.00  0.00    +0.000 A 
BRANCH  19  22
ATOM     22  C   UNL     1      49.456   4.376  19.302  0.00  0.00    +0.000 C 
ATOM     23  N   UNL     1      48.693   3.899  20.332  0.00  0.00    +0.000 N 
ATOM     24  O   UNL     1      50.644   4.641  19.440  0.00  0.00    +0.000 OA
ATOM     25  H   UNL     1      47.715   3.689  20.170  0.00  0.00    +0.000 HD
ATOM     26  H   UNL     1      49.111   3.750  21.240  0.00  0.00    +0.000 HD
ENDBRANCH  19  22
ENDBRANCH  14  16
ENDBRANCH   1  14
TORSDOF 6
ENDMDL
