MODEL 1
REMARK VINA RESULT:    -7.919      0.000      0.000
REMARK INTER + INTRA:         -10.108
REMARK INTER:                  -9.539
REMARK INTRA:                  -0.569
REMARK UNBOUND:                -0.569
REMARK  Name = 
REMARK  4 active torsions:
REMARK  status: ('A' for Active; 'I' for Inactive)
REMARK    1  A    between atoms: N_1  and  C_2
REMARK    2  A    between atoms: C_2  and  C_3
REMARK    3  A    between atoms: C_6  and  C_7
REMARK    4  A    between atoms: C_7  and  N_8
REMARK                            x       y       z     vdW  Elec       q    Type
REMARK                         _______ _______ _______ _____ _____    ______ ____
ROOT
ATOM      1  C   UNL     1      43.803   4.416   9.630  0.00  0.00    +0.000 C 
ENDROOT
BRANCH   1   2
ATOM      2  N   UNL     1      44.090   4.422  11.062  0.00  0.00    +0.000 N 
ATOM      3  C   UNL     1      43.398   3.678  11.992  0.00  0.00    +0.000 A 
ATOM      4  C   UNL     1      44.001   3.854  13.217  0.00  0.00    +0.000 A 
ATOM      5  C   UNL     1      45.098   4.723  13.029  0.00  0.00    +0.000 A 
ATOM      6  N   UNL     1      45.992   5.162  13.947  0.00  0.00    +0.000 NA
ATOM      7  C   UNL     1      46.939   5.983  13.458  0.00  0.00    +0.000 A 
ATOM      8  F   UNL     1      47.858   6.432  14.329  0.00  0.00    +0.000 F 
ATOM      9  C   UNL     1      47.051   6.396  12.141  0.00  0.00    +0.000 A 
ATOM     10  C   UNL     1      46.130   5.942  11.201  0.00  0.00    +0.000 A 
ATOM     11  C   UNL     1      45.139   5.079  11.677  0.00  0.00    +0.000 A 
ENDBRANCH   1   2
BRANCH   1  15
ATOM     12  C   UNL     1      46.816   2.162   7.481  0.00  0.00    +0.000 A 
ATOM     13  C   UNL     1      45.923   1.517   8.347  0.00  0.00    +0.000 A 
ATOM     14  C   UNL     1      44.937   2.239   9.025  0.00  0.00    +0.000 A 
ATOM     15  C   UNL     1      44.823   3.625   8.853  0.00  0.00    +0.000 A 
ATOM     16  C   UNL     1      45.697   4.265   7.965  0.00  0.00    +0.000 A 
ATOM     17  C   UNL     1      46.682   3.543   7.286  0.00  0.00    +0.000 A 
BRANCH  12  18
ATOM     18  C   UNL     1      47.937   1.397   6.823  0.00  0.00    +0.000 C 
BRANCH  18  19
ATOM     19  N   UNL     1      48.391   2.037   5.594  0.00  0.00    +0.000 NA
ATOM     20  H   UNL     1      47.940   2.944   5.508  0.00  0.00    +0.000 HD
ATOM     21  H   UNL     1      48.073   1.480   4.802  0.00  0.00    +0.000 HD
ENDBRANCH  18  19
ENDBRANCH  12  18
ENDBRANCH   1  15
TORSDOF 4
ENDMDL
MODEL 2
REMARK VINA RESULT:    -7.861      1.170      1.701
REMARK INTER + INTRA:         -10.039
REMARK INTER:                  -9.466
REMARK INTRA:                  -0.572
REMARK UNBOUND:                -0.569
REMARK  Name = 
REMARK  4 active torsions:
REMARK  status: ('A' for Active; 'I' for Inactive)
REMARK    1  A    between atoms: N_1  and  C_2
REMARK    2  A    between atoms: C_2  and  C_3
REMARK    3  A    between atoms: C_6  and  C_7
REMARK    4  A    between atoms: C_7  and  N_8
REMARK                            x       y       z     vdW  Elec       q    Type
REMARK                         _______ _______ _______ _____ _____    ______ ____
ROOT
ATOM      1  C   UNL     1      43.814   4.376  10.246  0.00  0.00    +0.000 C 
ENDROOT
BRANCH   1   2
ATOM      2  N   UNL     1      44.548   5.234  11.173  0.00  0.00    +0.000 N 
ATOM      3  C   UNL     1      44.424   6.605  11.220  0.00  0.00    +0.000 A 
ATOM      4  C   UNL     1      45.183   7.069  12.271  0.00  0.00    +0.000 A 
ATOM      5  C   UNL     1      45.780   5.948  12.890  0.00  0.00    +0.000 A 
ATOM      6  N   UNL     1      46.591   5.919  13.974  0.00  0.00    +0.000 NA
ATOM      7  C   UNL     1      46.999   4.688  14.334  0.00  0.00    +0.000 A 
ATOM      8  F   UNL     1      47.794   4.606  15.414  0.00  0.00    +0.000 F 
ATOM      9  C   UNL     1      46.665   3.505  13.695  0.00  0.00    +0.000 A 
ATOM     10  C   UNL     1      45.830   3.542  12.581  0.00  0.00    +0.000 A 
ATOM     11  C   UNL     1      45.382   4.807  12.188  0.00  0.00    +0.000 A 
ENDBRANCH   1   2
BRANCH   1  15
ATOM     12  C   UNL     1      46.545   2.344   7.565  0.00  0.00    +0.000 A 
ATOM     13  C   UNL     1      45.705   1.615   8.416  0.00  0.00    +0.000 A 
ATOM     14  C   UNL     1      44.808   2.268   9.267  0.00  0.00    +0.000 A 
ATOM     15  C   UNL     1      44.734   3.667   9.286  0.00  0.00    +0.000 A 
ATOM     16  C   UNL     1      45.553   4.395   8.413  0.00  0.00    +0.000 A 
ATOM     17  C   UNL     1      46.449   3.742   7.562  0.00  0.00    +0.000 A 
BRANCH  12  18
ATOM     18  C   UNL     1      47.576   1.642   6.716  0.00  0.00    +0.000 C 
BRANCH  18  19
ATOM     19  N   UNL     1      48.660   2.533   6.321  0.00  0.00    +0.000 NA
ATOM     20  H   UNL     1      49.478   2.330   6.890  0.00  0.00    +0.000 HD
ATOM     21  H   UNL     1      48.389   3.491   6.537  0.00  0.00    +0.000 HD
ENDBRANCH  18  19
ENDBRANCH  12  18
ENDBRANCH   1  15
TORSDOF 4
ENDMDL
MODEL 3
REMARK VINA RESULT:    -7.477      1.525      1.707
REMARK INTER + INTRA:          -9.575
REMARK INTER:                  -9.045
REMARK INTRA:                  -0.531
REMARK UNBOUND:                -0.569
REMARK  Name = 
REMARK  4 active torsions:
REMARK  status: ('A' for Active; 'I' for Inactive)
REMARK    1  A    between atoms: N_1  and  C_2
REMARK    2  A    between atoms: C_2  and  C_3
REMARK    3  A    between atoms: C_6  and  C_7
REMARK    4  A    between atoms: C_7  and  N_8
REMARK                            x       y       z     vdW  Elec       q    Type
REMARK                         _______ _______ _______ _____ _____    ______ ____
ROOT
ATOM      1  C   UNL     1      43.970   4.162  10.344  0.00  0.00    +0.000 C 
ENDROOT
BRANCH   1   2
ATOM      2  N   UNL     1      44.722   4.723  11.463  0.00  0.00    +0.000 N 
ATOM      3  C   UNL     1      45.392   3.966  12.400  0.00  0.00    +0.000 A 
ATOM      4  C   UNL     1      46.065   4.823  13.241  0.00  0.00    +0.000 A 
ATOM      5  C   UNL     1      45.807   6.140  12.801  0.00  0.00    +0.000 A 
ATOM      6  N   UNL     1      46.274   7.304  13.310  0.00  0.00    +0.000 NA
ATOM      7  C   UNL     1      45.853   8.407  12.663  0.00  0.00    +0.000 A 
ATOM      8  F   UNL     1      46.303   9.586  13.123  0.00  0.00    +0.000 F 
ATOM      9  C   UNL     1      45.007   8.428  11.567  0.00  0.00    +0.000 A 
ATOM     10  C   UNL     1      44.530   7.228  11.047  0.00  0.00    +0.000 A 
ATOM     11  C   UNL     1      44.958   6.064  11.693  0.00  0.00    +0.000 A 
ENDBRANCH   1   2
BRANCH   1  15
ATOM     12  C   UNL     1      46.660   2.340   7.475  0.00  0.00    +0.000 A 
ATOM     13  C   UNL     1      45.917   1.549   8.361  0.00  0.00    +0.000 A 
ATOM     14  C   UNL     1      45.033   2.133   9.273  0.00  0.00    +0.000 A 
ATOM     15  C   UNL     1      44.874   3.524   9.320  0.00  0.00    +0.000 A 
ATOM     16  C   UNL     1      45.595   4.314   8.414  0.00  0.00    +0.000 A 
ATOM     17  C   UNL     1      46.477   3.730   7.502  0.00  0.00    +0.000 A 
BRANCH  12  18
ATOM     18  C   UNL     1      47.680   1.717   6.557  0.00  0.00    +0.000 C 
BRANCH  18  19
ATOM     19  N   UNL     1      48.661   2.687   6.085  0.00  0.00    +0.000 NA
ATOM     20  H   UNL     1      49.565   2.228   6.000  0.00  0.00    +0.000 HD
ATOM     21  H   UNL     1      48.770   3.410   6.795  0.00  0.00    +0.000 HD
ENDBRANCH  18  19
ENDBRANCH  12  18
ENDBRANCH   1  15
TORSDOF 4
ENDMDL
MODEL 4
REMARK VINA RESULT:    -6.409      2.800      6.195
REMARK INTER + INTRA:          -8.289
REMARK INTER:                  -7.931
REMARK INTRA:                  -0.358
REMARK UNBOUND:                -0.569
REMARK  Name = 
REMARK  4 active torsions:
REMARK  status: ('A' for Active; 'I' for Inactive)
REMARK    1  A    between atoms: N_1  and  C_2
REMARK    2  A    between atoms: C_2  and  C_3
REMARK    3  A    between atoms: C_6  and  C_7
REMARK    4  A    between atoms: C_7  and  N_8
REMARK                            x       y       z     vdW  Elec       q    Type
REMARK                         _______ _______ _______ _____ _____    ______ ____
ROOT
ATOM      1  C   UNL     1      43.653   5.914  10.981  0.00  0.00    +0.000 C 
ENDROOT
BRANCH   1   2
ATOM      2  N   UNL     1      43.944   4.506  10.722  0.00  0.00    +0.000 N 
ATOM      3  C   UNL     1      43.381   3.461  11.420  0.00  0.00    +0.000 A 
ATOM      4  C   UNL     1      43.805   2.284  10.844  0.00  0.00    +0.000 A 
ATOM      5  C   UNL     1      44.642   2.621   9.758  0.00  0.00    +0.000 A 
ATOM      6  N   UNL     1      45.269   1.791   8.890  0.00  0.00    +0.000 NA
ATOM      7  C   UNL     1      45.998   2.416   7.947  0.00  0.00    +0.000 A 
ATOM      8  F   UNL     1      46.627   1.635   7.053  0.00  0.00    +0.000 F 
ATOM      9  C   UNL     1      46.148   3.787   7.816  0.00  0.00    +0.000 A 
ATOM     10  C   UNL     1      45.501   4.635   8.710  0.00  0.00    +0.000 A 
ATOM     11  C   UNL     1      44.728   4.015   9.696  0.00  0.00    +0.000 A 
ENDBRANCH   1   2
BRANCH   1  15
ATOM     12  C   UNL     1      46.811   7.787  13.284  0.00  0.00    +0.000 A 
ATOM     13  C   UNL     1      45.867   8.565  12.600  0.00  0.00    +0.000 A 
ATOM     14  C   UNL     1      44.835   7.963  11.875  0.00  0.00    +0.000 A 
ATOM     15  C   UNL     1      44.725   6.568  11.814  0.00  0.00    +0.000 A 
ATOM     16  C   UNL     1      45.652   5.790  12.522  0.00  0.00    +0.000 A 
ATOM     17  C   UNL     1      46.683   6.392  13.248  0.00  0.00    +0.000 A 
BRANCH  12  18
ATOM     18  C   UNL     1      47.975   8.435  13.989  0.00  0.00    +0.000 C 
BRANCH  18  19
ATOM     19  N   UNL     1      47.562   9.149  15.191  0.00  0.00    +0.000 NA
ATOM     20  H   UNL     1      46.751   9.723  14.972  0.00  0.00    +0.000 HD
ATOM     21  H   UNL     1      48.306   9.792  15.459  0.00  0.00    +0.000 HD
ENDBRANCH  18  19
ENDBRANCH  12  18
ENDBRANCH   1  15
TORSDOF 4
ENDMDL
MODEL 5
REMARK VINA RESULT:    -6.378      2.721      5.886
REMARK INTER + INTRA:          -8.252
REMARK INTER:                  -7.736
REMARK INTRA:                  -0.516
REMARK UNBOUND:                -0.569
REMARK  Name = 
REMARK  4 active torsions:
REMARK  status: ('A' for Active; 'I' for Inactive)
REMARK    1  A    between atoms: N_1  and  C_2
REMARK    2  A    between atoms: C_2  and  C_3
REMARK    3  A    between atoms: C_6  and  C_7
REMARK    4  A    between atoms: C_7  and  N_8
REMARK                            x       y       z     vdW  Elec       q    Type
REMARK                         _______ _______ _______ _____ _____    ______ ____
ROOT
ATOM      1  C   UNL     1      44.133   6.094  11.891  0.00  0.00    +0.000 C 
ENDROOT
BRANCH   1   2
ATOM      2  N   UNL     1      44.150   4.744  11.335  0.00  0.00    +0.000 N 
ATOM      3  C   UNL     1      43.454   3.681  11.866  0.00  0.00    +0.000 A 
ATOM      4  C   UNL     1      43.624   2.598  11.033  0.00  0.00    +0.000 A 
ATOM      5  C   UNL     1      44.440   3.014   9.958  0.00  0.00    +0.000 A 
ATOM      6  N   UNL     1      44.854   2.294   8.888  0.00  0.00    +0.000 NA
ATOM      7  C   UNL     1      45.624   2.975   8.020  0.00  0.00    +0.000 A 
ATOM      8  F   UNL     1      46.046   2.307   6.933  0.00  0.00    +0.000 F 
ATOM      9  C   UNL     1      46.009   4.300   8.145  0.00  0.00    +0.000 A 
ATOM     10  C   UNL     1      45.580   5.035   9.247  0.00  0.00    +0.000 A 
ATOM     11  C   UNL     1      44.770   4.357  10.162  0.00  0.00    +0.000 A 
ENDBRANCH   1   2
BRANCH   1  15
ATOM     12  C   UNL     1      48.119   7.326  13.064  0.00  0.00    +0.000 A 
ATOM     13  C   UNL     1      47.294   8.184  12.326  0.00  0.00    +0.000 A 
ATOM     14  C   UNL     1      46.000   7.798  11.965  0.00  0.00    +0.000 A 
ATOM     15  C   UNL     1      45.503   6.541  12.333  0.00  0.00    +0.000 A 
ATOM     16  C   UNL     1      46.318   5.694  13.096  0.00  0.00    +0.000 A 
ATOM     17  C   UNL     1      47.611   6.081  13.458  0.00  0.00    +0.000 A 
BRANCH  12  18
ATOM     18  C   UNL     1      49.545   7.707  13.373  0.00  0.00    +0.000 C 
BRANCH  18  19
ATOM     19  N   UNL     1      50.053   7.023  14.556  0.00  0.00    +0.000 NA
ATOM     20  H   UNL     1      50.818   7.566  14.948  0.00  0.00    +0.000 HD
ATOM     21  H   UNL     1      50.450   6.130  14.269  0.00  0.00    +0.000 HD
ENDBRANCH  18  19
ENDBRANCH  12  18
ENDBRANCH   1  15
TORSDOF 4
ENDMDL
MODEL 6
REMARK VINA RESULT:    -6.085      2.740      6.305
REMARK INTER + INTRA:          -7.899
REMARK INTER:                  -7.355
REMARK INTRA:                  -0.544
REMARK UNBOUND:                -0.569
REMARK  Name = 
REMARK  4 active torsions:
REMARK  status: ('A' for Active; 'I' for Inactive)
REMARK    1  A    between atoms: N_1  and  C_2
REMARK    2  A    between atoms: C_2  and  C_3
REMARK    3  A    between atoms: C_6  and  C_7
REMARK    4  A    between atoms: C_7  and  N_8
REMARK                            x       y       z     vdW  Elec       q    Type
REMARK                         _______ _______ _______ _____ _____    ______ ____
ROOT
ATOM      1  C   UNL     1      44.255   4.119   9.408  0.00  0.00    +0.000 C 
ENDROOT
BRANCH   1   2
ATOM      2  N   UNL     1      44.981   2.966   8.880  0.00  0.00    +0.000 N 
ATOM      3  C   UNL     1      44.766   1.667   9.285  0.00  0.00    +0.000 A 
ATOM      4  C   UNL     1      45.550   0.842   8.511  0.00  0.00    +0.000 A 
ATOM      5  C   UNL     1      46.257   1.660   7.601  0.00  0.00    +0.000 A 
ATOM      6  N   UNL     1      47.129   1.284   6.635  0.00  0.00    +0.000 NA
ATOM      7  C   UNL     1      47.639   2.302   5.917  0.00  0.00    +0.000 A 
ATOM      8  F   UNL     1      48.499   1.978   4.936  0.00  0.00    +0.000 F 
ATOM      9  C   UNL     1      47.351   3.645   6.097  0.00  0.00    +0.000 A 
ATOM     10  C   UNL     1      46.453   4.024   7.091  0.00  0.00    +0.000 A 
ATOM     11  C   UNL     1      45.899   2.988   7.848  0.00  0.00    +0.000 A 
ENDBRANCH   1   2
BRANCH   1  15
ATOM     12  C   UNL     1      46.500   5.979  12.615  0.00  0.00    +0.000 A 
ATOM     13  C   UNL     1      46.600   6.456  11.302  0.00  0.00    +0.000 A 
ATOM     14  C   UNL     1      45.861   5.871  10.270  0.00  0.00    +0.000 A 
ATOM     15  C   UNL     1      45.005   4.793  10.529  0.00  0.00    +0.000 A 
ATOM     16  C   UNL     1      44.882   4.334  11.847  0.00  0.00    +0.000 A 
ATOM     17  C   UNL     1      45.620   4.920  12.879  0.00  0.00    +0.000 A 
BRANCH  12  18
ATOM     18  C   UNL     1      47.366   6.549  13.710  0.00  0.00    +0.000 C 
BRANCH  18  19
ATOM     19  N   UNL     1      47.009   7.926  14.032  0.00  0.00    +0.000 NA
ATOM     20  H   UNL     1      47.780   8.357  14.536  0.00  0.00    +0.000 HD
ATOM     21  H   UNL     1      46.216   7.914  14.672  0.00  0.00    +0.000 HD
ENDBRANCH  18  19
ENDBRANCH  12  18
ENDBRANCH   1  15
TORSDOF 4
ENDMDL
MODEL 7
REMARK VINA RESULT:    -5.763      1.797      2.936
REMARK INTER + INTRA:          -7.511
REMARK INTER:                  -6.994
REMARK INTRA:                  -0.517
REMARK UNBOUND:                -0.569
REMARK  Name = 
REMARK  4 active torsions:
REMARK  status: ('A' for Active; 'I' for Inactive)
REMARK    1  A    between atoms: N_1  and  C_2
REMARK    2  A    between atoms: C_2  and  C_3
REMARK    3  A    between atoms: C_6  and  C_7
REMARK    4  A    between atoms: C_7  and  N_8
REMARK                            x       y       z     vdW  Elec       q    Type
REMARK                         _______ _______ _______ _____ _____    ______ ____
ROOT
ATOM      1  C   UNL     1      43.686   6.003  11.804  0.00  0.00    +0.000 C 
ENDROOT
BRANCH   1   2
ATOM      2  N   UNL     1      44.808   6.876  12.140  0.00  0.00    +0.000 N 
ATOM      3  C   UNL     1      44.876   8.210  11.806  0.00  0.00    +0.000 A 
ATOM      4  C   UNL     1      46.019   8.735  12.365  0.00  0.00    +0.000 A 
ATOM      5  C   UNL     1      46.663   7.693  13.070  0.00  0.00    +0.000 A 
ATOM      6  N   UNL     1      47.807   7.748  13.792  0.00  0.00    +0.000 NA
ATOM      7  C   UNL     1      48.167   6.582  14.359  0.00  0.00    +0.000 A 
ATOM      8  F   UNL     1      49.288   6.590  15.099  0.00  0.00    +0.000 F 
ATOM      9  C   UNL     1      47.480   5.384  14.252  0.00  0.00    +0.000 A 
ATOM     10  C   UNL     1      46.304   5.334  13.509  0.00  0.00    +0.000 A 
ATOM     11  C   UNL     1      45.900   6.533  12.915  0.00  0.00    +0.000 A 
ENDBRANCH   1   2
BRANCH   1  15
ATOM     12  C   UNL     1      44.991   2.709   9.309  0.00  0.00    +0.000 A 
ATOM     13  C   UNL     1      44.127   2.489  10.390  0.00  0.00    +0.000 A 
ATOM     14  C   UNL     1      43.688   3.552  11.183  0.00  0.00    +0.000 A 
ATOM     15  C   UNL     1      44.106   4.862  10.913  0.00  0.00    +0.000 A 
ATOM     16  C   UNL     1      44.946   5.086   9.815  0.00  0.00    +0.000 A 
ATOM     17  C   UNL     1      45.384   4.023   9.021  0.00  0.00    +0.000 A 
BRANCH  12  18
ATOM     18  C   UNL     1      45.537   1.551   8.512  0.00  0.00    +0.000 C 
BRANCH  18  19
ATOM     19  N   UNL     1      46.732   1.916   7.761  0.00  0.00    +0.000 NA
ATOM     20  H   UNL     1      47.412   1.163   7.837  0.00  0.00    +0.000 HD
ATOM     21  H   UNL     1      47.155   2.732   8.200  0.00  0.00    +0.000 HD
ENDBRANCH  18  19
ENDBRANCH  12  18
ENDBRANCH   1  15
TORSDOF 4
ENDMDL
MODEL 8
REMARK VINA RESULT:    -5.404      2.789      4.219
REMARK INTER + INTRA:          -7.078
REMARK INTER:                  -6.755
REMARK INTRA:                  -0.323
REMARK UNBOUND:                -0.569
REMARK  Name = 
REMARK  4 active torsions:
REMARK  status: ('A' for Active; 'I' for Inactive)
REMARK    1  A    between atoms: N_1  and  C_2
REMARK    2  A    between atoms: C_2  and  C_3
REMARK    3  A    between atoms: C_6  and  C_7
REMARK    4  A    between atoms: C_7  and  N_8
REMARK                            x       y       z     vdW  Elec       q    Type
REMARK                         _______ _______ _______ _____ _____    ______ ____
ROOT
ATOM      1  C   UNL     1      45.600   6.144  13.140  0.00  0.00    +0.000 C 
ENDROOT
BRANCH   1   2
ATOM      2  N   UNL     1      46.095   7.432  12.659  0.00  0.00    +0.000 N 
ATOM      3  C   UNL     1      45.314   8.558  12.524  0.00  0.00    +0.000 A 
ATOM      4  C   UNL     1      46.128   9.601  12.144  0.00  0.00    +0.000 A 
ATOM      5  C   UNL     1      47.445   9.100  12.053  0.00  0.00    +0.000 A 
ATOM      6  N   UNL     1      48.579   9.768  11.733  0.00  0.00    +0.000 NA
ATOM      7  C   UNL     1      49.693   9.013  11.738  0.00  0.00    +0.000 A 
ATOM      8  F   UNL     1      50.847   9.634  11.441  0.00  0.00    +0.000 F 
ATOM      9  C   UNL     1      49.753   7.659  12.028  0.00  0.00    +0.000 A 
ATOM     10  C   UNL     1      48.584   6.978  12.357  0.00  0.00    +0.000 A 
ATOM     11  C   UNL     1      47.411   7.739  12.370  0.00  0.00    +0.000 A 
ENDBRANCH   1   2
BRANCH   1  15
ATOM     12  C   UNL     1      44.783   3.401   9.886  0.00  0.00    +0.000 A 
ATOM     13  C   UNL     1      44.496   3.045  11.210  0.00  0.00    +0.000 A 
ATOM     14  C   UNL     1      44.738   3.936  12.259  0.00  0.00    +0.000 A 
ATOM     15  C   UNL     1      45.277   5.205  12.007  0.00  0.00    +0.000 A 
ATOM     16  C   UNL     1      45.537   5.572  10.679  0.00  0.00    +0.000 A 
ATOM     17  C   UNL     1      45.292   4.681   9.631  0.00  0.00    +0.000 A 
BRANCH  12  18
ATOM     18  C   UNL     1      44.607   2.406   8.767  0.00  0.00    +0.000 C 
BRANCH  18  19
ATOM     19  N   UNL     1      45.640   1.378   8.778  0.00  0.00    +0.000 NA
ATOM     20  H   UNL     1      46.260   1.541   9.569  0.00  0.00    +0.000 HD
ATOM     21  H   UNL     1      46.210   1.480   7.940  0.00  0.00    +0.000 HD
ENDBRANCH  18  19
ENDBRANCH  12  18
ENDBRANCH   1  15
TORSDOF 4
ENDMDL
MODEL 9
REMARK VINA RESULT:    -5.338      5.007      8.219
REMARK INTER + INTRA:          -6.999
REMARK INTER:                  -6.447
REMARK INTRA:                  -0.551
REMARK UNBOUND:                -0.569
REMARK  Name = 
REMARK  4 active torsions:
REMARK  status: ('A' for Active; 'I' for Inactive)
REMARK    1  A    between atoms: N_1  and  C_2
REMARK    2  A    between atoms: C_2  and  C_3
REMARK    3  A    between atoms: C_6  and  C_7
REMARK    4  A    between atoms: C_7  and  N_8
REMARK                            x       y       z     vdW  Elec       q    Type
REMARK                         _______ _______ _______ _____ _____    ______ ____
ROOT
ATOM      1  C   UNL     1      48.620   5.238  17.426  0.00  0.00    +0.000 C 
ENDROOT
BRANCH   1   2
ATOM      2  N   UNL     1      48.564   5.982  16.170  0.00  0.00    +0.000 N 
ATOM      3  C   UNL     1      49.359   7.069  15.881  0.00  0.00    +0.000 A 
ATOM      4  C   UNL     1      49.105   7.452  14.583  0.00  0.00    +0.000 A 
ATOM      5  C   UNL     1      48.136   6.567  14.061  0.00  0.00    +0.000 A 
ATOM      6  N   UNL     1      47.598   6.546  12.819  0.00  0.00    +0.000 NA
ATOM      7  C   UNL     1      46.695   5.569  12.616  0.00  0.00    +0.000 A 
ATOM      8  F   UNL     1      46.144   5.498  11.393  0.00  0.00    +0.000 F 
ATOM      9  C   UNL     1      46.293   4.632  13.554  0.00  0.00    +0.000 A 
ATOM     10  C   UNL     1      46.850   4.658  14.830  0.00  0.00    +0.000 A 
ATOM     11  C   UNL     1      47.799   5.657  15.067  0.00  0.00    +0.000 A 
ENDBRANCH   1   2
BRANCH   1  15
ATOM     12  C   UNL     1      51.549   2.043  17.417  0.00  0.00    +0.000 A 
ATOM     13  C   UNL     1      50.236   1.810  16.987  0.00  0.00    +0.000 A 
ATOM     14  C   UNL     1      49.296   2.844  16.969  0.00  0.00    +0.000 A 
ATOM     15  C   UNL     1      49.647   4.135  17.383  0.00  0.00    +0.000 A 
ATOM     16  C   UNL     1      50.968   4.375  17.785  0.00  0.00    +0.000 A 
ATOM     17  C   UNL     1      51.909   3.341  17.802  0.00  0.00    +0.000 A 
BRANCH  12  18
ATOM     18  C   UNL     1      52.536   0.908  17.524  0.00  0.00    +0.000 C 
BRANCH  18  19
ATOM     19  N   UNL     1      52.078  -0.135  18.434  0.00  0.00    +0.000 NA
ATOM     20  H   UNL     1      52.704  -0.933  18.363  0.00  0.00    +0.000 HD
ATOM     21  H   UNL     1      51.163  -0.458  18.124  0.00  0.00    +0.000 HD
ENDBRANCH  18  19
ENDBRANCH  12  18
ENDBRANCH   1  15
TORSDOF 4
ENDMDL
