MODEL 1
REMARK VINA RESULT:    -7.979      0.000      0.000
REMARK INTER + INTRA:         -11.618
REMARK INTER:                 -10.778
REMARK INTRA:                  -0.840
REMARK UNBOUND:                -0.840
REMARK  Name = 
REMARK  6 active torsions:
REMARK  status: ('A' for Active; 'I' for Inactive)
REMARK    1  A    between atoms: C_2  and  C_3
REMARK    2  A    between atoms: C_7  and  C_8
REMARK    3  A    between atoms: C_12  and  C_13
REMARK    4  A    between atoms: C_13  and  N_14
REMARK    5  A    between atoms: N_14  and  C_15
REMARK    6  A    between atoms: C_18  and  C_19
REMARK                            x       y       z     vdW  Elec       q    Type
REMARK                         _______ _______ _______ _____ _____    ______ ____
ROOT
ATOM      1  C   UNL     1      47.144   6.670  12.532  0.00  0.00    +0.000 A 
ATOM      2  C   UNL     1      47.538   5.896  13.632  0.00  0.00    +0.000 A 
ATOM      3  C   UNL     1      46.819   4.760  14.016  0.00  0.00    +0.000 A 
ATOM      4  C   UNL     1      45.687   4.370  13.301  0.00  0.00    +0.000 A 
ATOM      5  C   UNL     1      45.251   5.102  12.192  0.00  0.00    +0.000 A 
ATOM      6  C   UNL     1      46.006   6.237  11.828  0.00  0.00    +0.000 A 
ENDROOT
BRANCH   1  11
ATOM      7  C   UNL     1      49.909   9.029  11.393  0.00  0.00    +0.000 A 
ATOM      8  C   UNL     1      49.257  10.261  11.408  0.00  0.00    +0.000 A 
ATOM      9  C   UNL     1      47.917  10.328  11.781  0.00  0.00    +0.000 A 
ATOM     10  C   UNL     1      47.232   9.159  12.132  0.00  0.00    +0.000 A 
ATOM     11  C   UNL     1      47.864   7.902  12.128  0.00  0.00    +0.000 A 
ATOM     12  C   UNL     1      49.218   7.863  11.759  0.00  0.00    +0.000 A 
BRANCH   7  14
ATOM     13  N   UNL     1      52.408   8.878  10.715  0.00  0.00    +0.000 NA
ATOM     14  C   UNL     1      51.289   8.948  11.017  0.00  0.00    +0.000 C 
ENDBRANCH   7  14
ENDBRANCH   1  11
BRANCH   5  15
ATOM     15  C   UNL     1      44.027   4.725  11.369  0.00  0.00    +0.000 C 
ATOM     16  C   UNL     1      42.698   5.119  12.013  0.00  0.00    +0.000 C 
ATOM     17  C   UNL     1      43.035   3.680  11.828  0.00  0.00    +0.000 C 
BRANCH  15  18
ATOM     18  N   UNL     1      44.200   4.966   9.918  0.00  0.00    +0.000 N 
ATOM     19  H   UNL     1      44.216   5.951   9.660  0.00  0.00    +0.000 HD
BRANCH  18  20
ATOM     20  C   UNL     1      45.094   4.216   9.133  0.00  0.00    +0.000 A 
ATOM     21  C   UNL     1      45.133   2.836   9.043  0.00  0.00    +0.000 A 
ATOM     22  N   UNL     1      45.949   2.131   8.224  0.00  0.00    +0.000 NA
ATOM     23  C   UNL     1      46.748   2.865   7.429  0.00  0.00    +0.000 A 
ATOM     24  N   UNL     1      46.788   4.209   7.386  0.00  0.00    +0.000 NA
ATOM     25  C   UNL     1      45.948   4.843   8.235  0.00  0.00    +0.000 A 
BRANCH  23  26
ATOM     26  C   UNL     1      47.628   2.152   6.541  0.00  0.00    +0.000 C 
ATOM     27  N   UNL     1      48.343   1.575   5.823  0.00  0.00    +0.000 NA
ENDBRANCH  23  26
ENDBRANCH  18  20
ENDBRANCH  15  18
ENDBRANCH   5  15
TORSDOF 6
ENDMDL
MODEL 2
REMARK VINA RESULT:    -7.951      2.566      4.308
REMARK INTER + INTRA:         -11.580
REMARK INTER:                 -10.964
REMARK INTRA:                  -0.616
REMARK UNBOUND:                -0.840
REMARK  Name = 
REMARK  6 active torsions:
REMARK  status: ('A' for Active; 'I' for Inactive)
REMARK    1  A    between atoms: C_2  and  C_3
REMARK    2  A    between atoms: C_7  and  C_8
REMARK    3  A    between atoms: C_12  and  C_13
REMARK    4  A    between atoms: C_13  and  N_14
REMARK    5  A    between atoms: N_14  and  C_15
REMARK    6  A    between atoms: C_18  and  C_19
REMARK                            x       y       z     vdW  Elec       q    Type
REMARK                         _______ _______ _______ _____ _____    ______ ____
ROOT
ATOM      1  C   UNL     1      47.088   5.304  14.022  0.00  0.00    +0.000 A 
ATOM      2  C   UNL     1      47.741   6.333  13.329  0.00  0.00    +0.000 A 
ATOM      3  C   UNL     1      47.259   6.802  12.102  0.00  0.00    +0.000 A 
ATOM      4  C   UNL     1      46.107   6.250  11.542  0.00  0.00    +0.000 A 
ATOM      5  C   UNL     1      45.414   5.224  12.193  0.00  0.00    +0.000 A 
ATOM      6  C   UNL     1      45.923   4.783  13.432  0.00  0.00    +0.000 A 
ENDROOT
BRANCH   1  11
ATOM      7  C   UNL     1      48.758   5.073  17.438  0.00  0.00    +0.000 A 
ATOM      8  C   UNL     1      48.625   3.716  17.728  0.00  0.00    +0.000 A 
ATOM      9  C   UNL     1      47.989   2.875  16.820  0.00  0.00    +0.000 A 
ATOM     10  C   UNL     1      47.481   3.396  15.625  0.00  0.00    +0.000 A 
ATOM     11  C   UNL     1      47.600   4.761  15.304  0.00  0.00    +0.000 A 
ATOM     12  C   UNL     1      48.256   5.586  16.231  0.00  0.00    +0.000 A 
BRANCH   7  14
ATOM     13  N   UNL     1      49.952   6.659  19.107  0.00  0.00    +0.000 NA
ATOM     14  C   UNL     1      49.416   5.948  18.362  0.00  0.00    +0.000 C 
ENDBRANCH   7  14
ENDBRANCH   1  11
BRANCH   5  15
ATOM     15  C   UNL     1      44.149   4.586  11.636  0.00  0.00    +0.000 C 
ATOM     16  C   UNL     1      42.887   4.906  12.436  0.00  0.00    +0.000 C 
ATOM     17  C   UNL     1      43.394   3.506  12.379  0.00  0.00    +0.000 C 
BRANCH  15  18
ATOM     18  N   UNL     1      44.071   4.632  10.158  0.00  0.00    +0.000 N 
ATOM     19  H   UNL     1      43.850   5.553   9.783  0.00  0.00    +0.000 HD
BRANCH  18  20
ATOM     20  C   UNL     1      44.986   3.951   9.335  0.00  0.00    +0.000 A 
ATOM     21  C   UNL     1      45.149   2.578   9.267  0.00  0.00    +0.000 A 
ATOM     22  N   UNL     1      45.979   1.933   8.414  0.00  0.00    +0.000 NA
ATOM     23  C   UNL     1      46.660   2.720   7.561  0.00  0.00    +0.000 A 
ATOM     24  N   UNL     1      46.572   4.060   7.493  0.00  0.00    +0.000 NA
ATOM     25  C   UNL     1      45.725   4.634   8.378  0.00  0.00    +0.000 A 
BRANCH  23  26
ATOM     26  C   UNL     1      47.551   2.071   6.636  0.00  0.00    +0.000 C 
ATOM     27  N   UNL     1      48.271   1.547   5.883  0.00  0.00    +0.000 NA
ENDBRANCH  23  26
ENDBRANCH  18  20
ENDBRANCH  15  18
ENDBRANCH   5  15
TORSDOF 6
ENDMDL
MODEL 3
REMARK VINA RESULT:    -7.515      1.260      2.158
REMARK INTER + INTRA:         -10.992
REMARK INTER:                 -10.131
REMARK INTRA:                  -0.861
REMARK UNBOUND:                -0.840
REMARK  Name = 
REMARK  6 active torsions:
REMARK  status: ('A' for Active; 'I' for Inactive)
REMARK    1  A    between atoms: C_2  and  C_3
REMARK    2  A    between atoms: C_7  and  C_8
REMARK    3  A    between atoms: C_12  and  C_13
REMARK    4  A    between atoms: C_13  and  N_14
REMARK    5  A    between atoms: N_14  and  C_15
REMARK    6  A    between atoms: C_18  and  C_19
REMARK                            x       y       z     vdW  Elec       q    Type
REMARK                         _______ _______ _______ _____ _____    ______ ____
ROOT
ATOM      1  C   UNL     1      46.691   7.401  12.175  0.00  0.00    +0.000 A 
ATOM      2  C   UNL     1      45.815   8.448  11.855  0.00  0.00    +0.000 A 
ATOM      3  C   UNL     1      44.500   8.198  11.454  0.00  0.00    +0.000 A 
ATOM      4  C   UNL     1      44.028   6.888  11.366  0.00  0.00    +0.000 A 
ATOM      5  C   UNL     1      44.857   5.805  11.677  0.00  0.00    +0.000 A 
ATOM      6  C   UNL     1      46.176   6.095  12.088  0.00  0.00    +0.000 A 
ENDROOT
BRANCH   1  11
ATOM      7  C   UNL     1      50.439   8.044  11.957  0.00  0.00    +0.000 A 
ATOM      8  C   UNL     1      50.808   8.032  13.301  0.00  0.00    +0.000 A 
ATOM      9  C   UNL     1      49.842   7.823  14.281  0.00  0.00    +0.000 A 
ATOM     10  C   UNL     1      48.506   7.631  13.912  0.00  0.00    +0.000 A 
ATOM     11  C   UNL     1      48.103   7.636  12.564  0.00  0.00    +0.000 A 
ATOM     12  C   UNL     1      49.099   7.838  11.594  0.00  0.00    +0.000 A 
BRANCH   7  14
ATOM     13  N   UNL     1      52.228   8.424  10.118  0.00  0.00    +0.000 NA
ATOM     14  C   UNL     1      51.425   8.252  10.939  0.00  0.00    +0.000 C 
ENDBRANCH   7  14
ENDBRANCH   1  11
BRANCH   5  15
ATOM     15  C   UNL     1      44.401   4.355  11.606  0.00  0.00    +0.000 C 
ATOM     16  C   UNL     1      43.581   3.901  12.814  0.00  0.00    +0.000 C 
ATOM     17  C   UNL     1      44.918   3.296  12.556  0.00  0.00    +0.000 C 
BRANCH  15  18
ATOM     18  N   UNL     1      43.942   3.950  10.258  0.00  0.00    +0.000 N 
ATOM     19  H   UNL     1      43.224   4.556   9.864  0.00  0.00    +0.000 HD
BRANCH  18  20
ATOM     20  C   UNL     1      44.832   3.499   9.265  0.00  0.00    +0.000 A 
ATOM     21  C   UNL     1      45.556   4.302   8.401  0.00  0.00    +0.000 A 
ATOM     22  N   UNL     1      46.465   3.857   7.502  0.00  0.00    +0.000 NA
ATOM     23  C   UNL     1      46.677   2.528   7.500  0.00  0.00    +0.000 A 
ATOM     24  N   UNL     1      46.071   1.638   8.307  0.00  0.00    +0.000 NA
ATOM     25  C   UNL     1      45.173   2.156   9.175  0.00  0.00    +0.000 A 
BRANCH  23  26
ATOM     26  C   UNL     1      47.640   2.016   6.561  0.00  0.00    +0.000 C 
ATOM     27  N   UNL     1      48.423   1.601   5.804  0.00  0.00    +0.000 NA
ENDBRANCH  23  26
ENDBRANCH  18  20
ENDBRANCH  15  18
ENDBRANCH   5  15
TORSDOF 6
ENDMDL
MODEL 4
REMARK VINA RESULT:    -7.450      1.972      2.657
REMARK INTER + INTRA:         -10.903
REMARK INTER:                 -10.019
REMARK INTRA:                  -0.884
REMARK UNBOUND:                -0.840
REMARK  Name = 
REMARK  6 active torsions:
REMARK  status: ('A' for Active; 'I' for Inactive)
REMARK    1  A    between atoms: C_2  and  C_3
REMARK    2  A    between atoms: C_7  and  C_8
REMARK    3  A    between atoms: C_12  and  C_13
REMARK    4  A    between atoms: C_13  and  N_14
REMARK    5  A    between atoms: N_14  and  C_15
REMARK    6  A    between atoms: C_18  and  C_19
REMARK                            x       y       z     vdW  Elec       q    Type
REMARK                         _______ _______ _______ _____ _____    ______ ____
ROOT
ATOM      1  C   UNL     1      46.566   7.349  12.304  0.00  0.00    +0.000 A 
ATOM      2  C   UNL     1      45.725   8.403  11.923  0.00  0.00    +0.000 A 
ATOM      3  C   UNL     1      44.441   8.164  11.423  0.00  0.00    +0.000 A 
ATOM      4  C   UNL     1      43.968   6.858  11.297  0.00  0.00    +0.000 A 
ATOM      5  C   UNL     1      44.764   5.768  11.666  0.00  0.00    +0.000 A 
ATOM      6  C   UNL     1      46.049   6.047  12.175  0.00  0.00    +0.000 A 
ENDROOT
BRANCH   1  11
ATOM      7  C   UNL     1      49.654   7.317  14.535  0.00  0.00    +0.000 A 
ATOM      8  C   UNL     1      50.565   8.044  13.771  0.00  0.00    +0.000 A 
ATOM      9  C   UNL     1      50.182   8.540  12.528  0.00  0.00    +0.000 A 
ATOM     10  C   UNL     1      48.889   8.301  12.050  0.00  0.00    +0.000 A 
ATOM     11  C   UNL     1      47.947   7.572  12.799  0.00  0.00    +0.000 A 
ATOM     12  C   UNL     1      48.354   7.093  14.055  0.00  0.00    +0.000 A 
BRANCH   7  14
ATOM     13  N   UNL     1      50.342   6.388  16.857  0.00  0.00    +0.000 NA
ATOM     14  C   UNL     1      50.034   6.806  15.818  0.00  0.00    +0.000 C 
ENDBRANCH   7  14
ENDBRANCH   1  11
BRANCH   5  15
ATOM     15  C   UNL     1      44.303   4.322  11.557  0.00  0.00    +0.000 C 
ATOM     16  C   UNL     1      43.374   3.877  12.686  0.00  0.00    +0.000 C 
ATOM     17  C   UNL     1      44.724   3.261  12.550  0.00  0.00    +0.000 C 
BRANCH  15  18
ATOM     18  N   UNL     1      43.964   3.917  10.173  0.00  0.00    +0.000 N 
ATOM     19  H   UNL     1      43.301   4.537   9.710  0.00  0.00    +0.000 HD
BRANCH  18  20
ATOM     20  C   UNL     1      44.932   3.438   9.272  0.00  0.00    +0.000 A 
ATOM     21  C   UNL     1      45.272   2.110   9.079  0.00  0.00    +0.000 A 
ATOM     22  N   UNL     1      46.150   1.658   8.153  0.00  0.00    +0.000 NA
ATOM     23  C   UNL     1      46.691   2.598   7.357  0.00  0.00    +0.000 A 
ATOM     24  N   UNL     1      46.424   3.916   7.410  0.00  0.00    +0.000 NA
ATOM     25  C   UNL     1      45.540   4.293   8.362  0.00  0.00    +0.000 A 
BRANCH  23  26
ATOM     26  C   UNL     1      47.627   2.156   6.357  0.00  0.00    +0.000 C 
ATOM     27  N   UNL     1      48.382   1.799   5.545  0.00  0.00    +0.000 NA
ENDBRANCH  23  26
ENDBRANCH  18  20
ENDBRANCH  15  18
ENDBRANCH   5  15
TORSDOF 6
ENDMDL
MODEL 5
REMARK VINA RESULT:    -7.266      3.035      7.275
REMARK INTER + INTRA:         -10.655
REMARK INTER:                 -10.691
REMARK INTRA:                   0.035
REMARK UNBOUND:                -0.840
REMARK  Name = 
REMARK  6 active torsions:
REMARK  status: ('A' for Active; 'I' for Inactive)
REMARK    1  A    between atoms: C_2  and  C_3
REMARK    2  A    between atoms: C_7  and  C_8
REMARK    3  A    between atoms: C_12  and  C_13
REMARK    4  A    between atoms: C_13  and  N_14
REMARK    5  A    between atoms: N_14  and  C_15
REMARK    6  A    between atoms: C_18  and  C_19
REMARK                            x       y       z     vdW  Elec       q    Type
REMARK                         _______ _______ _______ _____ _____    ______ ____
ROOT
ATOM      1  C   UNL     1      45.161   4.527   9.478  0.00  0.00    +0.000 A 
ATOM      2  C   UNL     1      43.826   4.310   9.845  0.00  0.00    +0.000 A 
ATOM      3  C   UNL     1      43.230   5.035  10.881  0.00  0.00    +0.000 A 
ATOM      4  C   UNL     1      43.960   6.001  11.573  0.00  0.00    +0.000 A 
ATOM      5  C   UNL     1      45.295   6.263  11.246  0.00  0.00    +0.000 A 
ATOM      6  C   UNL     1      45.860   5.519  10.188  0.00  0.00    +0.000 A 
ENDROOT
BRANCH   1  11
ATOM      7  C   UNL     1      46.586   1.602   7.497  0.00  0.00    +0.000 A 
ATOM      8  C   UNL     1      47.152   2.250   6.400  0.00  0.00    +0.000 A 
ATOM      9  C   UNL     1      47.067   3.636   6.297  0.00  0.00    +0.000 A 
ATOM     10  C   UNL     1      46.409   4.369   7.291  0.00  0.00    +0.000 A 
ATOM     11  C   UNL     1      45.829   3.744   8.410  0.00  0.00    +0.000 A 
ATOM     12  C   UNL     1      45.939   2.347   8.496  0.00  0.00    +0.000 A 
BRANCH   7  14
ATOM     13  N   UNL     1      46.743  -0.978   7.708  0.00  0.00    +0.000 NA
ATOM     14  C   UNL     1      46.672   0.178   7.616  0.00  0.00    +0.000 C 
ENDBRANCH   7  14
ENDBRANCH   1  11
BRANCH   5  15
ATOM     15  C   UNL     1      46.142   7.307  11.959  0.00  0.00    +0.000 C 
ATOM     16  C   UNL     1      45.345   8.232  12.879  0.00  0.00    +0.000 C 
ATOM     17  C   UNL     1      46.015   8.787  11.669  0.00  0.00    +0.000 C 
BRANCH  15  18
ATOM     18  N   UNL     1      47.434   6.778  12.450  0.00  0.00    +0.000 N 
ATOM     19  H   UNL     1      48.197   7.452  12.421  0.00  0.00    +0.000 HD
BRANCH  18  20
ATOM     20  C   UNL     1      47.526   5.950  13.584  0.00  0.00    +0.000 A 
ATOM     21  C   UNL     1      48.231   6.235  14.740  0.00  0.00    +0.000 A 
ATOM     22  N   UNL     1      48.248   5.464  15.853  0.00  0.00    +0.000 NA
ATOM     23  C   UNL     1      47.483   4.358  15.804  0.00  0.00    +0.000 A 
ATOM     24  N   UNL     1      46.722   3.979  14.761  0.00  0.00    +0.000 NA
ATOM     25  C   UNL     1      46.759   4.797  13.685  0.00  0.00    +0.000 A 
BRANCH  23  26
ATOM     26  C   UNL     1      47.471   3.513  16.969  0.00  0.00    +0.000 C 
ATOM     27  N   UNL     1      47.459   2.833  17.915  0.00  0.00    +0.000 NA
ENDBRANCH  23  26
ENDBRANCH  18  20
ENDBRANCH  15  18
ENDBRANCH   5  15
TORSDOF 6
ENDMDL
MODEL 6
REMARK VINA RESULT:    -6.737      1.516      2.111
REMARK INTER + INTRA:          -9.940
REMARK INTER:                  -9.854
REMARK INTRA:                  -0.086
REMARK UNBOUND:                -0.840
REMARK  Name = 
REMARK  6 active torsions:
REMARK  status: ('A' for Active; 'I' for Inactive)
REMARK    1  A    between atoms: C_2  and  C_3
REMARK    2  A    between atoms: C_7  and  C_8
REMARK    3  A    between atoms: C_12  and  C_13
REMARK    4  A    between atoms: C_13  and  N_14
REMARK    5  A    between atoms: N_14  and  C_15
REMARK    6  A    between atoms: C_18  and  C_19
REMARK                            x       y       z     vdW  Elec       q    Type
REMARK                         _______ _______ _______ _____ _____    ______ ____
ROOT
ATOM      1  C   UNL     1      47.123   5.950  12.903  0.00  0.00    +0.000 A 
ATOM      2  C   UNL     1      47.518   4.806  13.611  0.00  0.00    +0.000 A 
ATOM      3  C   UNL     1      46.746   3.641  13.598  0.00  0.00    +0.000 A 
ATOM      4  C   UNL     1      45.558   3.593  12.869  0.00  0.00    +0.000 A 
ATOM      5  C   UNL     1      45.118   4.703  12.141  0.00  0.00    +0.000 A 
ATOM      6  C   UNL     1      45.927   5.858  12.169  0.00  0.00    +0.000 A 
ENDROOT
BRANCH   1  11
ATOM      7  C   UNL     1      48.263   9.509  12.169  0.00  0.00    +0.000 A 
ATOM      8  C   UNL     1      49.416   9.605  12.946  0.00  0.00    +0.000 A 
ATOM      9  C   UNL     1      49.822   8.518  13.715  0.00  0.00    +0.000 A 
ATOM     10  C   UNL     1      49.068   7.339  13.708  0.00  0.00    +0.000 A 
ATOM     11  C   UNL     1      47.901   7.212  12.933  0.00  0.00    +0.000 A 
ATOM     12  C   UNL     1      47.519   8.318  12.158  0.00  0.00    +0.000 A 
BRANCH   7  14
ATOM     13  N   UNL     1      47.494  11.515  10.716  0.00  0.00    +0.000 NA
ATOM     14  C   UNL     1      47.838  10.619  11.369  0.00  0.00    +0.000 C 
ENDBRANCH   7  14
ENDBRANCH   1  11
BRANCH   5  15
ATOM     15  C   UNL     1      43.834   4.711  11.323  0.00  0.00    +0.000 C 
ATOM     16  C   UNL     1      43.473   6.079  10.745  0.00  0.00    +0.000 C 
ATOM     17  C   UNL     1      42.594   5.452  11.771  0.00  0.00    +0.000 C 
BRANCH  15  18
ATOM     18  N   UNL     1      43.688   3.523  10.451  0.00  0.00    +0.000 N 
ATOM     19  H   UNL     1      42.729   3.335  10.163  0.00  0.00    +0.000 HD
BRANCH  18  20
ATOM     20  C   UNL     1      44.597   3.232   9.418  0.00  0.00    +0.000 A 
ATOM     21  C   UNL     1      45.253   4.161   8.629  0.00  0.00    +0.000 A 
ATOM     22  N   UNL     1      46.184   3.868   7.691  0.00  0.00    +0.000 NA
ATOM     23  C   UNL     1      46.491   2.564   7.565  0.00  0.00    +0.000 A 
ATOM     24  N   UNL     1      45.960   1.562   8.289  0.00  0.00    +0.000 NA
ATOM     25  C   UNL     1      45.035   1.931   9.203  0.00  0.00    +0.000 A 
BRANCH  23  26
ATOM     26  C   UNL     1      47.480   2.213   6.580  0.00  0.00    +0.000 C 
ATOM     27  N   UNL     1      48.283   1.927   5.785  0.00  0.00    +0.000 NA
ENDBRANCH  23  26
ENDBRANCH  18  20
ENDBRANCH  15  18
ENDBRANCH   5  15
TORSDOF 6
ENDMDL
MODEL 7
REMARK VINA RESULT:    -6.719      3.443      7.636
REMARK INTER + INTRA:          -9.916
REMARK INTER:                  -9.218
REMARK INTRA:                  -0.698
REMARK UNBOUND:                -0.840
REMARK  Name = 
REMARK  6 active torsions:
REMARK  status: ('A' for Active; 'I' for Inactive)
REMARK    1  A    between atoms: C_2  and  C_3
REMARK    2  A    between atoms: C_7  and  C_8
REMARK    3  A    between atoms: C_12  and  C_13
REMARK    4  A    between atoms: C_13  and  N_14
REMARK    5  A    between atoms: N_14  and  C_15
REMARK    6  A    between atoms: C_18  and  C_19
REMARK                            x       y       z     vdW  Elec       q    Type
REMARK                         _______ _______ _______ _____ _____    ______ ____
ROOT
ATOM      1  C   UNL     1      45.530   6.376  11.044  0.00  0.00    +0.000 A 
ATOM      2  C   UNL     1      44.532   7.319  11.324  0.00  0.00    +0.000 A 
ATOM      3  C   UNL     1      44.825   8.506  12.003  0.00  0.00    +0.000 A 
ATOM      4  C   UNL     1      46.129   8.777  12.415  0.00  0.00    +0.000 A 
ATOM      5  C   UNL     1      47.165   7.873  12.158  0.00  0.00    +0.000 A 
ATOM      6  C   UNL     1      46.835   6.690  11.463  0.00  0.00    +0.000 A 
ENDROOT
BRANCH   1  11
ATOM      7  C   UNL     1      45.467   3.609   8.427  0.00  0.00    +0.000 A 
ATOM      8  C   UNL     1      44.645   2.661   9.034  0.00  0.00    +0.000 A 
ATOM      9  C   UNL     1      44.114   2.915  10.296  0.00  0.00    +0.000 A 
ATOM     10  C   UNL     1      44.414   4.115  10.950  0.00  0.00    +0.000 A 
ATOM     11  C   UNL     1      45.240   5.091  10.362  0.00  0.00    +0.000 A 
ATOM     12  C   UNL     1      45.753   4.816   9.084  0.00  0.00    +0.000 A 
BRANCH   7  14
ATOM     13  N   UNL     1      46.453   3.162   6.070  0.00  0.00    +0.000 NA
ATOM     14  C   UNL     1      46.014   3.362   7.126  0.00  0.00    +0.000 C 
ENDBRANCH   7  14
ENDBRANCH   1  11
BRANCH   5  15
ATOM     15  C   UNL     1      48.608   8.114  12.577  0.00  0.00    +0.000 C 
ATOM     16  C   UNL     1      49.406   8.974  11.597  0.00  0.00    +0.000 C 
ATOM     17  C   UNL     1      49.780   7.547  11.806  0.00  0.00    +0.000 C 
BRANCH  15  18
ATOM     18  N   UNL     1      48.761   8.380  14.025  0.00  0.00    +0.000 N 
ATOM     19  H   UNL     1      48.326   9.247  14.337  0.00  0.00    +0.000 HD
BRANCH  18  20
ATOM     20  C   UNL     1      48.635   7.368  14.994  0.00  0.00    +0.000 A 
ATOM     21  C   UNL     1      48.218   6.069  14.758  0.00  0.00    +0.000 A 
ATOM     22  N   UNL     1      48.174   5.084  15.687  0.00  0.00    +0.000 NA
ATOM     23  C   UNL     1      48.605   5.425  16.915  0.00  0.00    +0.000 A 
ATOM     24  N   UNL     1      49.069   6.636  17.273  0.00  0.00    +0.000 NA
ATOM     25  C   UNL     1      49.079   7.569  16.294  0.00  0.00    +0.000 A 
BRANCH  23  26
ATOM     26  C   UNL     1      48.578   4.404  17.929  0.00  0.00    +0.000 C 
ATOM     27  N   UNL     1      48.559   3.580  18.753  0.00  0.00    +0.000 NA
ENDBRANCH  23  26
ENDBRANCH  18  20
ENDBRANCH  15  18
ENDBRANCH   5  15
TORSDOF 6
ENDMDL
MODEL 8
REMARK VINA RESULT:    -6.591      1.460      2.621
REMARK INTER + INTRA:          -9.743
REMARK INTER:                  -8.816
REMARK INTRA:                  -0.927
REMARK UNBOUND:                -0.840
REMARK  Name = 
REMARK  6 active torsions:
REMARK  status: ('A' for Active; 'I' for Inactive)
REMARK    1  A    between atoms: C_2  and  C_3
REMARK    2  A    between atoms: C_7  and  C_8
REMARK    3  A    between atoms: C_12  and  C_13
REMARK    4  A    between atoms: C_13  and  N_14
REMARK    5  A    between atoms: N_14  and  C_15
REMARK    6  A    between atoms: C_18  and  C_19
REMARK                            x       y       z     vdW  Elec       q    Type
REMARK                         _______ _______ _______ _____ _____    ______ ____
ROOT
ATOM      1  C   UNL     1      47.943   8.424  11.999  0.00  0.00    +0.000 A 
ATOM      2  C   UNL     1      46.990   9.427  12.223  0.00  0.00    +0.000 A 
ATOM      3  C   UNL     1      45.658   9.112  12.508  0.00  0.00    +0.000 A 
ATOM      4  C   UNL     1      45.250   7.779  12.579  0.00  0.00    +0.000 A 
ATOM      5  C   UNL     1      46.160   6.739  12.369  0.00  0.00    +0.000 A 
ATOM      6  C   UNL     1      47.498   7.094  12.093  0.00  0.00    +0.000 A 
ENDROOT
BRANCH   1  11
ATOM      7  C   UNL     1      51.545   8.022  10.825  0.00  0.00    +0.000 A 
ATOM      8  C   UNL     1      52.060   9.299  11.046  0.00  0.00    +0.000 A 
ATOM      9  C   UNL     1      51.239  10.293  11.570  0.00  0.00    +0.000 A 
ATOM     10  C   UNL     1      49.901  10.009  11.865  0.00  0.00    +0.000 A 
ATOM     11  C   UNL     1      49.353   8.731  11.654  0.00  0.00    +0.000 A 
ATOM     12  C   UNL     1      50.205   7.742  11.136  0.00  0.00    +0.000 A 
BRANCH   7  14
ATOM     13  N   UNL     1      53.061   6.151   9.865  0.00  0.00    +0.000 NA
ATOM     14  C   UNL     1      52.381   6.989  10.292  0.00  0.00    +0.000 C 
ENDBRANCH   7  14
ENDBRANCH   1  11
BRANCH   5  15
ATOM     15  C   UNL     1      45.778   5.267  12.438  0.00  0.00    +0.000 C 
ATOM     16  C   UNL     1      45.602   4.736  13.860  0.00  0.00    +0.000 C 
ATOM     17  C   UNL     1      46.707   4.216  13.006  0.00  0.00    +0.000 C 
BRANCH  15  18
ATOM     18  N   UNL     1      44.783   4.871  11.415  0.00  0.00    +0.000 N 
ATOM     19  H   UNL     1      43.949   5.456  11.399  0.00  0.00    +0.000 HD
BRANCH  18  20
ATOM     20  C   UNL     1      45.156   4.475  10.117  0.00  0.00    +0.000 A 
ATOM     21  C   UNL     1      45.866   5.241   9.209  0.00  0.00    +0.000 A 
ATOM     22  N   UNL     1      46.284   4.818   7.993  0.00  0.00    +0.000 NA
ATOM     23  C   UNL     1      45.992   3.540   7.691  0.00  0.00    +0.000 A 
ATOM     24  N   UNL     1      45.342   2.676   8.491  0.00  0.00    +0.000 NA
ATOM     25  C   UNL     1      44.953   3.170   9.688  0.00  0.00    +0.000 A 
BRANCH  23  26
ATOM     26  C   UNL     1      46.423   3.052   6.407  0.00  0.00    +0.000 C 
ATOM     27  N   UNL     1      46.772   2.653   5.369  0.00  0.00    +0.000 NA
ENDBRANCH  23  26
ENDBRANCH  18  20
ENDBRANCH  15  18
ENDBRANCH   5  15
TORSDOF 6
ENDMDL
MODEL 9
REMARK VINA RESULT:    -6.393      4.231      7.725
REMARK INTER + INTRA:          -9.475
REMARK INTER:                  -8.606
REMARK INTRA:                  -0.869
REMARK UNBOUND:                -0.840
REMARK  Name = 
REMARK  6 active torsions:
REMARK  status: ('A' for Active; 'I' for Inactive)
REMARK    1  A    between atoms: C_2  and  C_3
REMARK    2  A    between atoms: C_7  and  C_8
REMARK    3  A    between atoms: C_12  and  C_13
REMARK    4  A    between atoms: C_13  and  N_14
REMARK    5  A    between atoms: N_14  and  C_15
REMARK    6  A    between atoms: C_18  and  C_19
REMARK                            x       y       z     vdW  Elec       q    Type
REMARK                         _______ _______ _______ _____ _____    ______ ____
ROOT
ATOM      1  C   UNL     1      47.220   6.741  12.458  0.00  0.00    +0.000 A 
ATOM      2  C   UNL     1      48.219   7.090  11.538  0.00  0.00    +0.000 A 
ATOM      3  C   UNL     1      49.377   7.762  11.944  0.00  0.00    +0.000 A 
ATOM      4  C   UNL     1      49.562   8.097  13.285  0.00  0.00    +0.000 A 
ATOM      5  C   UNL     1      48.599   7.770  14.245  0.00  0.00    +0.000 A 
ATOM      6  C   UNL     1      47.449   7.084  13.802  0.00  0.00    +0.000 A 
ENDROOT
BRANCH   1  11
ATOM      7  C   UNL     1      44.658   4.821  10.394  0.00  0.00    +0.000 A 
ATOM      8  C   UNL     1      43.552   4.820  11.243  0.00  0.00    +0.000 A 
ATOM      9  C   UNL     1      43.637   5.437  12.488  0.00  0.00    +0.000 A 
ATOM     10  C   UNL     1      44.832   6.047  12.883  0.00  0.00    +0.000 A 
ATOM     11  C   UNL     1      45.965   6.065  12.049  0.00  0.00    +0.000 A 
ATOM     12  C   UNL     1      45.850   5.447  10.793  0.00  0.00    +0.000 A 
BRANCH   7  14
ATOM     13  N   UNL     1      44.524   3.687   8.066  0.00  0.00    +0.000 NA
ATOM     14  C   UNL     1      44.581   4.195   9.108  0.00  0.00    +0.000 C 
ENDBRANCH   7  14
ENDBRANCH   1  11
BRANCH   5  15
ATOM     15  C   UNL     1      48.746   8.104  15.723  0.00  0.00    +0.000 C 
ATOM     16  C   UNL     1      48.374   9.544  16.076  0.00  0.00    +0.000 C 
ATOM     17  C   UNL     1      49.781   9.081  16.233  0.00  0.00    +0.000 C 
BRANCH  15  18
ATOM     18  N   UNL     1      48.275   7.022  16.618  0.00  0.00    +0.000 N 
ATOM     19  H   UNL     1      47.265   6.893  16.619  0.00  0.00    +0.000 HD
BRANCH  18  20
ATOM     20  C   UNL     1      48.948   5.790  16.727  0.00  0.00    +0.000 A 
ATOM     21  C   UNL     1      50.275   5.621  17.082  0.00  0.00    +0.000 A 
ATOM     22  N   UNL     1      50.888   4.426  17.258  0.00  0.00    +0.000 NA
ATOM     23  C   UNL     1      50.106   3.343  17.094  0.00  0.00    +0.000 A 
ATOM     24  N   UNL     1      48.797   3.363  16.785  0.00  0.00    +0.000 NA
ATOM     25  C   UNL     1      48.256   4.591  16.622  0.00  0.00    +0.000 A 
BRANCH  23  26
ATOM     26  C   UNL     1      50.720   2.055  17.276  0.00  0.00    +0.000 C 
ATOM     27  N   UNL     1      51.214   1.009  17.422  0.00  0.00    +0.000 NA
ENDBRANCH  23  26
ENDBRANCH  18  20
ENDBRANCH  15  18
ENDBRANCH   5  15
TORSDOF 6
ENDMDL
