MODEL 1
REMARK VINA RESULT:    -6.189      0.000      0.000
REMARK INTER + INTRA:          -9.244
REMARK INTER:                  -8.360
REMARK INTRA:                  -0.884
REMARK UNBOUND:                -0.884
REMARK  Name = 
REMARK  6 active torsions:
REMARK  status: ('A' for Active; 'I' for Inactive)
REMARK    1  A    between atoms: C_2  and  C_20
REMARK    2  A    between atoms: N_3  and  C_4
REMARK    3  A    between atoms: C_4  and  C_5
REMARK    4  A    between atoms: C_8  and  C_9
REMARK    5  A    between atoms: C_10  and  C_11
REMARK    6  A    between atoms: C_11  and  N_12
REMARK                            x       y       z     vdW  Elec       q    Type
REMARK                         _______ _______ _______ _____ _____    ______ ____
ROOT
ATOM      1  C   UNL     1      46.264   8.201  12.941  0.00  0.00    +0.000 C 
ENDROOT
BRANCH   1   2
ATOM      2  C   UNL     1      47.658   8.357  12.407  0.00  0.00    +0.000 A 
ATOM      3  C   UNL     1      48.531   7.260  12.389  0.00  0.00    +0.000 A 
ATOM      4  C   UNL     1      49.822   7.397  11.885  0.00  0.00    +0.000 A 
ATOM      5  C   UNL     1      50.251   8.633  11.406  0.00  0.00    +0.000 A 
ATOM      6  C   UNL     1      49.409   9.745  11.463  0.00  0.00    +0.000 A 
ATOM      7  C   UNL     1      48.116   9.607  11.967  0.00  0.00    +0.000 A 
BRANCH   5   8
ATOM      8  C   UNL     1      51.549   8.758  10.833  0.00  0.00    +0.000 C 
ATOM      9  C   UNL     1      52.625   8.902  10.324  0.00  0.00    +0.000 C 
BRANCH   9  10
ATOM     10  C   UNL     1      53.905   9.067   9.640  0.00  0.00    +0.000 C 
BRANCH  10  11
ATOM     11  N   UNL     1      53.853  10.089   8.580  0.00  0.00    +0.000 NA
ATOM     12  C   UNL     1      52.837   9.811   7.537  0.00  0.00    +0.000 C 
ATOM     13  C   UNL     1      53.165   8.591   6.664  0.00  0.00    +0.000 C 
ATOM     14  O   UNL     1      54.461   8.704   6.061  0.00  0.00    +0.000 OA
ATOM     15  C   UNL     1      55.482   8.940   7.037  0.00  0.00    +0.000 C 
ATOM     16  C   UNL     1      55.165  10.177   7.898  0.00  0.00    +0.000 C 
ENDBRANCH  10  11
ENDBRANCH   9  10
ENDBRANCH   5   8
ENDBRANCH   1   2
BRANCH   1  19
ATOM     17  O   UNL     1      44.320   7.576  11.074  0.00  0.00    +0.000 OA
ATOM     18  C   UNL     1      44.855   6.656  11.687  0.00  0.00    +0.000 C 
ATOM     19  N   UNL     1      45.771   6.876  12.679  0.00  0.00    +0.000 N 
ATOM     20  H   UNL     1      46.337   6.104  13.015  0.00  0.00    +0.000 HD
BRANCH  18  21
ATOM     21  C   UNL     1      44.506   5.257  11.431  0.00  0.00    +0.000 A 
ATOM     22  C   UNL     1      43.710   4.570  12.339  0.00  0.00    +0.000 A 
ATOM     23  S   UNL     1      43.423   2.948  11.896  0.00  0.00    +0.000 S 
ATOM     24  C   UNL     1      44.310   3.125  10.457  0.00  0.00    +0.000 A 
ATOM     25  N   UNL     1      44.435   2.090   9.580  0.00  0.00    +0.000 NA
ATOM     26  C   UNL     1      45.104   2.376   8.510  0.00  0.00    +0.000 A 
ATOM     27  N   UNL     1      45.664   3.597   8.242  0.00  0.00    +0.000 N 
ATOM     28  C   UNL     1      45.599   4.659   9.114  0.00  0.00    +0.000 A 
ATOM     29  O   UNL     1      46.162   5.718   8.872  0.00  0.00    +0.000 OA
ATOM     30  C   UNL     1      44.838   4.397  10.325  0.00  0.00    +0.000 A 
ATOM     31  H   UNL     1      46.187   3.751   7.392  0.00  0.00    +0.000 HD
ENDBRANCH  18  21
ENDBRANCH   1  19
TORSDOF 6
ENDMDL
MODEL 2
REMARK VINA RESULT:    -6.120      7.259      8.713
REMARK INTER + INTRA:          -9.150
REMARK INTER:                  -8.254
REMARK INTRA:                  -0.897
REMARK UNBOUND:                -0.884
REMARK  Name = 
REMARK  6 active torsions:
REMARK  status: ('A' for Active; 'I' for Inactive)
REMARK    1  A    between atoms: C_2  and  C_20
REMARK    2  A    between atoms: N_3  and  C_4
REMARK    3  A    between atoms: C_4  and  C_5
REMARK    4  A    between atoms: C_8  and  C_9
REMARK    5  A    between atoms: C_10  and  C_11
REMARK    6  A    between atoms: C_11  and  N_12
REMARK                            x       y       z     vdW  Elec       q    Type
REMARK                         _______ _______ _______ _____ _____    ______ ____
ROOT
ATOM      1  C   UNL     1      48.910   7.171  16.590  0.00  0.00    +0.000 C 
ENDROOT
BRANCH   1   2
ATOM      2  C   UNL     1      49.657   5.908  16.908  0.00  0.00    +0.000 A 
ATOM      3  C   UNL     1      48.954   4.726  17.179  0.00  0.00    +0.000 A 
ATOM      4  C   UNL     1      49.642   3.549  17.465  0.00  0.00    +0.000 A 
ATOM      5  C   UNL     1      51.036   3.550  17.490  0.00  0.00    +0.000 A 
ATOM      6  C   UNL     1      51.746   4.731  17.271  0.00  0.00    +0.000 A 
ATOM      7  C   UNL     1      51.057   5.909  16.984  0.00  0.00    +0.000 A 
BRANCH   5   8
ATOM      8  C   UNL     1      51.740   2.333  17.720  0.00  0.00    +0.000 C 
ATOM      9  C   UNL     1      52.339   1.304  17.863  0.00  0.00    +0.000 C 
BRANCH   9  10
ATOM     10  C   UNL     1      53.019   0.019  17.997  0.00  0.00    +0.000 C 
BRANCH  10  11
ATOM     11  N   UNL     1      54.484   0.156  18.051  0.00  0.00    +0.000 NA
ATOM     12  C   UNL     1      55.136   0.086  16.722  0.00  0.00    +0.000 C 
ATOM     13  C   UNL     1      55.059  -1.301  16.067  0.00  0.00    +0.000 C 
ATOM     14  O   UNL     1      55.593  -2.321  16.924  0.00  0.00    +0.000 OA
ATOM     15  C   UNL     1      54.968  -2.312  18.213  0.00  0.00    +0.000 C 
ATOM     16  C   UNL     1      55.065  -0.927  18.878  0.00  0.00    +0.000 C 
ENDBRANCH  10  11
ENDBRANCH   9  10
ENDBRANCH   5   8
ENDBRANCH   1   2
BRANCH   1  19
ATOM     17  O   UNL     1      49.328   7.461  13.870  0.00  0.00    +0.000 OA
ATOM     18  C   UNL     1      48.240   7.033  14.250  0.00  0.00    +0.000 C 
ATOM     19  N   UNL     1      47.920   6.927  15.576  0.00  0.00    +0.000 N 
ATOM     20  H   UNL     1      47.108   6.385  15.852  0.00  0.00    +0.000 HD
BRANCH  18  21
ATOM     21  C   UNL     1      47.190   6.655  13.302  0.00  0.00    +0.000 A 
ATOM     22  C   UNL     1      46.654   7.613  12.451  0.00  0.00    +0.000 A 
ATOM     23  S   UNL     1      45.429   7.006  11.433  0.00  0.00    +0.000 S 
ATOM     24  C   UNL     1      45.608   5.435  12.059  0.00  0.00    +0.000 A 
ATOM     25  N   UNL     1      44.858   4.402  11.584  0.00  0.00    +0.000 NA
ATOM     26  C   UNL     1      45.125   3.258  12.124  0.00  0.00    +0.000 A 
ATOM     27  N   UNL     1      46.068   3.054  13.098  0.00  0.00    +0.000 N 
ATOM     28  C   UNL     1      46.821   4.072  13.637  0.00  0.00    +0.000 A 
ATOM     29  O   UNL     1      47.610   3.866  14.548  0.00  0.00    +0.000 OA
ATOM     30  C   UNL     1      46.574   5.378  13.048  0.00  0.00    +0.000 A 
ATOM     31  H   UNL     1      46.218   2.135  13.488  0.00  0.00    +0.000 HD
ENDBRANCH  18  21
ENDBRANCH   1  19
TORSDOF 6
ENDMDL
MODEL 3
REMARK VINA RESULT:    -6.013      6.468      9.777
REMARK INTER + INTRA:          -9.006
REMARK INTER:                  -8.303
REMARK INTRA:                  -0.702
REMARK UNBOUND:                -0.884
REMARK  Name = 
REMARK  6 active torsions:
REMARK  status: ('A' for Active; 'I' for Inactive)
REMARK    1  A    between atoms: C_2  and  C_20
REMARK    2  A    between atoms: N_3  and  C_4
REMARK    3  A    between atoms: C_4  and  C_5
REMARK    4  A    between atoms: C_8  and  C_9
REMARK    5  A    between atoms: C_10  and  C_11
REMARK    6  A    between atoms: C_11  and  N_12
REMARK                            x       y       z     vdW  Elec       q    Type
REMARK                         _______ _______ _______ _____ _____    ______ ____
ROOT
ATOM      1  C   UNL     1      51.404   7.607  16.586  0.00  0.00    +0.000 C 
ENDROOT
BRANCH   1   2
ATOM      2  C   UNL     1      50.367   7.337  15.535  0.00  0.00    +0.000 A 
ATOM      3  C   UNL     1      50.547   7.818  14.230  0.00  0.00    +0.000 A 
ATOM      4  C   UNL     1      49.592   7.561  13.248  0.00  0.00    +0.000 A 
ATOM      5  C   UNL     1      48.448   6.831  13.568  0.00  0.00    +0.000 A 
ATOM      6  C   UNL     1      48.234   6.389  14.874  0.00  0.00    +0.000 A 
ATOM      7  C   UNL     1      49.190   6.645  15.857  0.00  0.00    +0.000 A 
BRANCH   5   8
ATOM      8  C   UNL     1      47.504   6.516  12.550  0.00  0.00    +0.000 C 
ATOM      9  C   UNL     1      46.671   6.262  11.725  0.00  0.00    +0.000 C 
BRANCH   9  10
ATOM     10  C   UNL     1      45.631   5.903  10.766  0.00  0.00    +0.000 C 
BRANCH  10  11
ATOM     11  N   UNL     1      44.283   5.920  11.359  0.00  0.00    +0.000 NA
ATOM     12  C   UNL     1      44.256   5.516  12.784  0.00  0.00    +0.000 C 
ATOM     13  C   UNL     1      44.589   4.034  13.013  0.00  0.00    +0.000 C 
ATOM     14  O   UNL     1      43.732   3.174  12.249  0.00  0.00    +0.000 OA
ATOM     15  C   UNL     1      43.751   3.508  10.856  0.00  0.00    +0.000 C 
ATOM     16  C   UNL     1      43.395   4.988  10.625  0.00  0.00    +0.000 C 
ENDBRANCH  10  11
ENDBRANCH   9  10
ENDBRANCH   5   8
ENDBRANCH   1   2
BRANCH   1  19
ATOM     17  O   UNL     1      51.742   6.664  19.166  0.00  0.00    +0.000 OA
ATOM     18  C   UNL     1      52.151   5.974  18.236  0.00  0.00    +0.000 C 
ATOM     19  N   UNL     1      52.093   6.393  16.935  0.00  0.00    +0.000 N 
ATOM     20  H   UNL     1      52.245   5.724  16.187  0.00  0.00    +0.000 HD
BRANCH  18  21
ATOM     21  C   UNL     1      52.779   4.670  18.464  0.00  0.00    +0.000 A 
ATOM     22  C   UNL     1      53.998   4.601  19.127  0.00  0.00    +0.000 A 
ATOM     23  S   UNL     1      54.593   3.011  19.286  0.00  0.00    +0.000 S 
ATOM     24  C   UNL     1      53.222   2.361  18.519  0.00  0.00    +0.000 A 
ATOM     25  N   UNL     1      53.084   1.016  18.356  0.00  0.00    +0.000 NA
ATOM     26  C   UNL     1      51.976   0.659  17.791  0.00  0.00    +0.000 A 
ATOM     27  N   UNL     1      50.999   1.524  17.371  0.00  0.00    +0.000 N 
ATOM     28  C   UNL     1      51.111   2.891  17.479  0.00  0.00    +0.000 A 
ATOM     29  O   UNL     1      50.249   3.637  17.038  0.00  0.00    +0.000 OA
ATOM     30  C   UNL     1      52.331   3.344  18.127  0.00  0.00    +0.000 A 
ATOM     31  H   UNL     1      50.162   1.179  16.924  0.00  0.00    +0.000 HD
ENDBRANCH  18  21
ENDBRANCH   1  19
TORSDOF 6
ENDMDL
MODEL 4
REMARK VINA RESULT:    -5.940      4.108      5.513
REMARK INTER + INTRA:          -8.907
REMARK INTER:                  -8.257
REMARK INTRA:                  -0.650
REMARK UNBOUND:                -0.884
REMARK  Name = 
REMARK  6 active torsions:
REMARK  status: ('A' for Active; 'I' for Inactive)
REMARK    1  A    between atoms: C_2  and  C_20
REMARK    2  A    between atoms: N_3  and  C_4
REMARK    3  A    between atoms: C_4  and  C_5
REMARK    4  A    between atoms: C_8  and  C_9
REMARK    5  A    between atoms: C_10  and  C_11
REMARK    6  A    between atoms: C_11  and  N_12
REMARK                            x       y       z     vdW  Elec       q    Type
REMARK                         _______ _______ _______ _____ _____    ______ ____
ROOT
ATOM      1  C   UNL     1      43.793   3.317  11.810  0.00  0.00    +0.000 C 
ENDROOT
BRANCH   1   2
ATOM      2  C   UNL     1      44.613   4.502  12.230  0.00  0.00    +0.000 A 
ATOM      3  C   UNL     1      45.832   4.312  12.898  0.00  0.00    +0.000 A 
ATOM      4  C   UNL     1      46.602   5.408  13.281  0.00  0.00    +0.000 A 
ATOM      5  C   UNL     1      46.153   6.699  13.007  0.00  0.00    +0.000 A 
ATOM      6  C   UNL     1      44.919   6.902  12.387  0.00  0.00    +0.000 A 
ATOM      7  C   UNL     1      44.149   5.805  12.003  0.00  0.00    +0.000 A 
BRANCH   5   8
ATOM      8  C   UNL     1      46.970   7.817  13.342  0.00  0.00    +0.000 C 
ATOM      9  C   UNL     1      47.675   8.758  13.577  0.00  0.00    +0.000 C 
BRANCH   9  10
ATOM     10  C   UNL     1      48.591   9.863  13.846  0.00  0.00    +0.000 C 
BRANCH  10  11
ATOM     11  N   UNL     1      49.827   9.782  13.049  0.00  0.00    +0.000 NA
ATOM     12  C   UNL     1      50.598   8.537  13.276  0.00  0.00    +0.000 C 
ATOM     13  C   UNL     1      51.221   8.441  14.677  0.00  0.00    +0.000 C 
ATOM     14  O   UNL     1      52.042   9.581  14.970  0.00  0.00    +0.000 OA
ATOM     15  C   UNL     1      51.326  10.809  14.795  0.00  0.00    +0.000 C 
ATOM     16  C   UNL     1      50.720  10.915  13.383  0.00  0.00    +0.000 C 
ENDBRANCH  10  11
ENDBRANCH   9  10
ENDBRANCH   5   8
ENDBRANCH   1   2
BRANCH   1  19
ATOM     17  O   UNL     1      43.951   3.859   9.101  0.00  0.00    +0.000 OA
ATOM     18  C   UNL     1      44.590   2.907   9.542  0.00  0.00    +0.000 C 
ATOM     19  N   UNL     1      44.514   2.522  10.852  0.00  0.00    +0.000 N 
ATOM     20  H   UNL     1      45.201   1.874  11.223  0.00  0.00    +0.000 HD
BRANCH  18  21
ATOM     21  C   UNL     1      45.440   2.086   8.678  0.00  0.00    +0.000 A 
ATOM     22  C   UNL     1      45.333   0.702   8.722  0.00  0.00    +0.000 A 
ATOM     23  S   UNL     1      46.411  -0.095   7.669  0.00  0.00    +0.000 S 
ATOM     24  C   UNL     1      47.021   1.380   7.086  0.00  0.00    +0.000 A 
ATOM     25  N   UNL     1      47.978   1.407   6.116  0.00  0.00    +0.000 NA
ATOM     26  C   UNL     1      48.322   2.596   5.741  0.00  0.00    +0.000 A 
ATOM     27  N   UNL     1      47.802   3.758   6.250  0.00  0.00    +0.000 N 
ATOM     28  C   UNL     1      46.864   3.781   7.257  0.00  0.00    +0.000 A 
ATOM     29  O   UNL     1      46.466   4.835   7.732  0.00  0.00    +0.000 OA
ATOM     30  C   UNL     1      46.427   2.468   7.701  0.00  0.00    +0.000 A 
ATOM     31  H   UNL     1      48.125   4.656   5.922  0.00  0.00    +0.000 HD
ENDBRANCH  18  21
ENDBRANCH   1  19
TORSDOF 6
ENDMDL
MODEL 5
REMARK VINA RESULT:    -5.858      6.542      8.042
REMARK INTER + INTRA:          -8.797
REMARK INTER:                  -8.016
REMARK INTRA:                  -0.781
REMARK UNBOUND:                -0.884
REMARK  Name = 
REMARK  6 active torsions:
REMARK  status: ('A' for Active; 'I' for Inactive)
REMARK    1  A    between atoms: C_2  and  C_20
REMARK    2  A    between atoms: N_3  and  C_4
REMARK    3  A    between atoms: C_4  and  C_5
REMARK    4  A    between atoms: C_8  and  C_9
REMARK    5  A    between atoms: C_10  and  C_11
REMARK    6  A    between atoms: C_11  and  N_12
REMARK                            x       y       z     vdW  Elec       q    Type
REMARK                         _______ _______ _______ _____ _____    ______ ____
ROOT
ATOM      1  C   UNL     1      48.685   7.828  15.030  0.00  0.00    +0.000 C 
ENDROOT
BRANCH   1   2
ATOM      2  C   UNL     1      49.589   6.935  15.830  0.00  0.00    +0.000 A 
ATOM      3  C   UNL     1      49.048   5.892  16.596  0.00  0.00    +0.000 A 
ATOM      4  C   UNL     1      49.884   5.055  17.331  0.00  0.00    +0.000 A 
ATOM      5  C   UNL     1      51.262   5.261  17.314  0.00  0.00    +0.000 A 
ATOM      6  C   UNL     1      51.808   6.326  16.595  0.00  0.00    +0.000 A 
ATOM      7  C   UNL     1      50.972   7.164  15.858  0.00  0.00    +0.000 A 
BRANCH   5   8
ATOM      8  C   UNL     1      52.120   4.367  18.016  0.00  0.00    +0.000 C 
ATOM      9  C   UNL     1      52.842   3.584  18.566  0.00  0.00    +0.000 C 
BRANCH   9  10
ATOM     10  C   UNL     1      53.671   2.580  19.227  0.00  0.00    +0.000 C 
BRANCH  10  11
ATOM     11  N   UNL     1      54.840   2.190  18.421  0.00  0.00    +0.000 NA
ATOM     12  C   UNL     1      54.492   1.419  17.205  0.00  0.00    +0.000 C 
ATOM     13  C   UNL     1      53.939   0.016  17.499  0.00  0.00    +0.000 C 
ATOM     14  O   UNL     1      54.837  -0.747  18.317  0.00  0.00    +0.000 OA
ATOM     15  C   UNL     1      55.176  -0.052  19.523  0.00  0.00    +0.000 C 
ATOM     16  C   UNL     1      55.752   1.345  19.227  0.00  0.00    +0.000 C 
ENDBRANCH  10  11
ENDBRANCH   9  10
ENDBRANCH   5   8
ENDBRANCH   1   2
BRANCH   1  19
ATOM     17  O   UNL     1      48.875   6.258  12.760  0.00  0.00    +0.000 OA
ATOM     18  C   UNL     1      47.811   6.267  13.373  0.00  0.00    +0.000 C 
ATOM     19  N   UNL     1      47.603   7.068  14.462  0.00  0.00    +0.000 N 
ATOM     20  H   UNL     1      46.801   6.901  15.060  0.00  0.00    +0.000 HD
BRANCH  18  21
ATOM     21  C   UNL     1      46.671   5.453  12.946  0.00  0.00    +0.000 A 
ATOM     22  C   UNL     1      46.679   4.084  13.178  0.00  0.00    +0.000 A 
ATOM     23  S   UNL     1      45.286   3.290  12.597  0.00  0.00    +0.000 S 
ATOM     24  C   UNL     1      44.606   4.754  12.062  0.00  0.00    +0.000 A 
ATOM     25  N   UNL     1      43.374   4.783  11.481  0.00  0.00    +0.000 NA
ATOM     26  C   UNL     1      42.966   5.967  11.158  0.00  0.00    +0.000 A 
ATOM     27  N   UNL     1      43.679   7.121  11.355  0.00  0.00    +0.000 N 
ATOM     28  C   UNL     1      44.942   7.137  11.901  0.00  0.00    +0.000 A 
ATOM     29  O   UNL     1      45.576   8.178  12.007  0.00  0.00    +0.000 OA
ATOM     30  C   UNL     1      45.440   5.832  12.303  0.00  0.00    +0.000 A 
ATOM     31  H   UNL     1      43.307   8.014  11.066  0.00  0.00    +0.000 HD
ENDBRANCH  18  21
ENDBRANCH   1  19
TORSDOF 6
ENDMDL
MODEL 6
REMARK VINA RESULT:    -5.644      6.298      7.687
REMARK INTER + INTRA:          -8.508
REMARK INTER:                  -7.506
REMARK INTRA:                  -1.002
REMARK UNBOUND:                -0.884
REMARK  Name = 
REMARK  6 active torsions:
REMARK  status: ('A' for Active; 'I' for Inactive)
REMARK    1  A    between atoms: C_2  and  C_20
REMARK    2  A    between atoms: N_3  and  C_4
REMARK    3  A    between atoms: C_4  and  C_5
REMARK    4  A    between atoms: C_8  and  C_9
REMARK    5  A    between atoms: C_10  and  C_11
REMARK    6  A    between atoms: C_11  and  N_12
REMARK                            x       y       z     vdW  Elec       q    Type
REMARK                         _______ _______ _______ _____ _____    ______ ____
ROOT
ATOM      1  C   UNL     1      48.393   8.309  14.765  0.00  0.00    +0.000 C 
ENDROOT
BRANCH   1   2
ATOM      2  C   UNL     1      49.264   7.363  15.541  0.00  0.00    +0.000 A 
ATOM      3  C   UNL     1      48.684   6.353  16.321  0.00  0.00    +0.000 A 
ATOM      4  C   UNL     1      49.488   5.467  17.035  0.00  0.00    +0.000 A 
ATOM      5  C   UNL     1      50.875   5.592  16.980  0.00  0.00    +0.000 A 
ATOM      6  C   UNL     1      51.463   6.624  16.247  0.00  0.00    +0.000 A 
ATOM      7  C   UNL     1      50.658   7.510  15.532  0.00  0.00    +0.000 A 
BRANCH   5   8
ATOM      8  C   UNL     1      51.697   4.648  17.659  0.00  0.00    +0.000 C 
ATOM      9  C   UNL     1      52.374   3.818  18.198  0.00  0.00    +0.000 C 
BRANCH   9  10
ATOM     10  C   UNL     1      53.140   2.769  18.866  0.00  0.00    +0.000 C 
BRANCH  10  11
ATOM     11  N   UNL     1      54.578   2.833  18.556  0.00  0.00    +0.000 NA
ATOM     12  C   UNL     1      54.911   2.376  17.187  0.00  0.00    +0.000 C 
ATOM     13  C   UNL     1      54.696   0.871  16.966  0.00  0.00    +0.000 C 
ATOM     14  O   UNL     1      55.415   0.087  17.928  0.00  0.00    +0.000 OA
ATOM     15  C   UNL     1      55.099   0.472  19.271  0.00  0.00    +0.000 C 
ATOM     16  C   UNL     1      55.337   1.977  19.497  0.00  0.00    +0.000 C 
ENDBRANCH  10  11
ENDBRANCH   9  10
ENDBRANCH   5   8
ENDBRANCH   1   2
BRANCH   1  19
ATOM     17  O   UNL     1      47.463   8.527  12.168  0.00  0.00    +0.000 OA
ATOM     18  C   UNL     1      46.900   7.738  12.923  0.00  0.00    +0.000 C 
ATOM     19  N   UNL     1      47.245   7.618  14.242  0.00  0.00    +0.000 N 
ATOM     20  H   UNL     1      46.908   6.824  14.776  0.00  0.00    +0.000 HD
BRANCH  18  21
ATOM     21  C   UNL     1      45.783   6.906  12.472  0.00  0.00    +0.000 A 
ATOM     22  C   UNL     1      44.712   7.493  11.810  0.00  0.00    +0.000 A 
ATOM     23  S   UNL     1      43.492   6.383  11.377  0.00  0.00    +0.000 S 
ATOM     24  C   UNL     1      44.375   5.078  12.015  0.00  0.00    +0.000 A 
ATOM     25  N   UNL     1      43.895   3.805  11.941  0.00  0.00    +0.000 NA
ATOM     26  C   UNL     1      44.687   2.908  12.431  0.00  0.00    +0.000 A 
ATOM     27  N   UNL     1      45.909   3.168  12.994  0.00  0.00    +0.000 N 
ATOM     28  C   UNL     1      46.418   4.439  13.127  0.00  0.00    +0.000 A 
ATOM     29  O   UNL     1      47.485   4.642  13.690  0.00  0.00    +0.000 OA
ATOM     30  C   UNL     1      45.575   5.485  12.571  0.00  0.00    +0.000 A 
ATOM     31  H   UNL     1      46.473   2.420  13.372  0.00  0.00    +0.000 HD
ENDBRANCH  18  21
ENDBRANCH   1  19
TORSDOF 6
ENDMDL
MODEL 7
REMARK VINA RESULT:    -5.421      4.951      6.762
REMARK INTER + INTRA:          -8.207
REMARK INTER:                  -7.393
REMARK INTRA:                  -0.814
REMARK UNBOUND:                -0.884
REMARK  Name = 
REMARK  6 active torsions:
REMARK  status: ('A' for Active; 'I' for Inactive)
REMARK    1  A    between atoms: C_2  and  C_20
REMARK    2  A    between atoms: N_3  and  C_4
REMARK    3  A    between atoms: C_4  and  C_5
REMARK    4  A    between atoms: C_8  and  C_9
REMARK    5  A    between atoms: C_10  and  C_11
REMARK    6  A    between atoms: C_11  and  N_12
REMARK                            x       y       z     vdW  Elec       q    Type
REMARK                         _______ _______ _______ _____ _____    ______ ____
ROOT
ATOM      1  C   UNL     1      47.295   7.794  12.043  0.00  0.00    +0.000 C 
ENDROOT
BRANCH   1   2
ATOM      2  C   UNL     1      47.877   7.821  13.427  0.00  0.00    +0.000 A 
ATOM      3  C   UNL     1      48.262   6.626  14.051  0.00  0.00    +0.000 A 
ATOM      4  C   UNL     1      48.813   6.647  15.330  0.00  0.00    +0.000 A 
ATOM      5  C   UNL     1      48.973   7.861  15.996  0.00  0.00    +0.000 A 
ATOM      6  C   UNL     1      48.549   9.052  15.405  0.00  0.00    +0.000 A 
ATOM      7  C   UNL     1      47.998   9.031  14.124  0.00  0.00    +0.000 A 
BRANCH   5   8
ATOM      8  C   UNL     1      49.593   7.887  17.278  0.00  0.00    +0.000 C 
ATOM      9  C   UNL     1      50.161   7.905  18.334  0.00  0.00    +0.000 C 
BRANCH   9  10
ATOM     10  C   UNL     1      50.878   7.861  19.605  0.00  0.00    +0.000 C 
BRANCH  10  11
ATOM     11  N   UNL     1      52.321   7.621  19.433  0.00  0.00    +0.000 NA
ATOM     12  C   UNL     1      52.634   6.576  18.431  0.00  0.00    +0.000 C 
ATOM     13  C   UNL     1      52.215   5.161  18.860  0.00  0.00    +0.000 C 
ATOM     14  O   UNL     1      52.782   4.803  20.128  0.00  0.00    +0.000 OA
ATOM     15  C   UNL     1      52.478   5.771  21.139  0.00  0.00    +0.000 C 
ATOM     16  C   UNL     1      52.918   7.185  20.717  0.00  0.00    +0.000 C 
ENDBRANCH  10  11
ENDBRANCH   9  10
ENDBRANCH   5   8
ENDBRANCH   1   2
BRANCH   1  19
ATOM     17  O   UNL     1      44.585   7.297  12.305  0.00  0.00    +0.000 OA
ATOM     18  C   UNL     1      45.304   6.395  11.883  0.00  0.00    +0.000 C 
ATOM     19  N   UNL     1      46.663   6.527  11.790  0.00  0.00    +0.000 N 
ATOM     20  H   UNL     1      47.195   5.852  11.251  0.00  0.00    +0.000 HD
BRANCH  18  21
ATOM     21  C   UNL     1      44.757   5.093  11.496  0.00  0.00    +0.000 A 
ATOM     22  C   UNL     1      43.936   4.402  12.379  0.00  0.00    +0.000 A 
ATOM     23  S   UNL     1      43.408   2.897  11.776  0.00  0.00    +0.000 S 
ATOM     24  C   UNL     1      44.216   3.141  10.300  0.00  0.00    +0.000 A 
ATOM     25  N   UNL     1      44.144   2.216   9.302  0.00  0.00    +0.000 NA
ATOM     26  C   UNL     1      44.775   2.548   8.223  0.00  0.00    +0.000 A 
ATOM     27  N   UNL     1      45.475   3.714   8.054  0.00  0.00    +0.000 N 
ATOM     28  C   UNL     1      45.608   4.658   9.045  0.00  0.00    +0.000 A 
ATOM     29  O   UNL     1      46.291   5.660   8.882  0.00  0.00    +0.000 OA
ATOM     30  C   UNL     1      44.899   4.344  10.274  0.00  0.00    +0.000 A 
ATOM     31  H   UNL     1      45.957   3.906   7.188  0.00  0.00    +0.000 HD
ENDBRANCH  18  21
ENDBRANCH   1  19
TORSDOF 6
ENDMDL
MODEL 8
REMARK VINA RESULT:    -5.246      5.174      6.487
REMARK INTER + INTRA:          -7.970
REMARK INTER:                  -7.028
REMARK INTRA:                  -0.942
REMARK UNBOUND:                -0.884
REMARK  Name = 
REMARK  6 active torsions:
REMARK  status: ('A' for Active; 'I' for Inactive)
REMARK    1  A    between atoms: C_2  and  C_20
REMARK    2  A    between atoms: N_3  and  C_4
REMARK    3  A    between atoms: C_4  and  C_5
REMARK    4  A    between atoms: C_8  and  C_9
REMARK    5  A    between atoms: C_10  and  C_11
REMARK    6  A    between atoms: C_11  and  N_12
REMARK                            x       y       z     vdW  Elec       q    Type
REMARK                         _______ _______ _______ _____ _____    ______ ____
ROOT
ATOM      1  C   UNL     1      47.692   7.887  11.805  0.00  0.00    +0.000 C 
ENDROOT
BRANCH   1   2
ATOM      2  C   UNL     1      48.301   8.049  13.168  0.00  0.00    +0.000 A 
ATOM      3  C   UNL     1      48.533   6.925  13.972  0.00  0.00    +0.000 A 
ATOM      4  C   UNL     1      49.107   7.069  15.233  0.00  0.00    +0.000 A 
ATOM      5  C   UNL     1      49.444   8.338  15.700  0.00  0.00    +0.000 A 
ATOM      6  C   UNL     1      49.173   9.470  14.929  0.00  0.00    +0.000 A 
ATOM      7  C   UNL     1      48.599   9.325  13.666  0.00  0.00    +0.000 A 
BRANCH   5   8
ATOM      8  C   UNL     1      50.088   8.479  16.963  0.00  0.00    +0.000 C 
ATOM      9  C   UNL     1      50.675   8.595  18.001  0.00  0.00    +0.000 C 
BRANCH   9  10
ATOM     10  C   UNL     1      51.421   8.672  19.255  0.00  0.00    +0.000 C 
BRANCH  10  11
ATOM     11  N   UNL     1      52.859   8.411  19.075  0.00  0.00    +0.000 NA
ATOM     12  C   UNL     1      53.609   8.320  20.350  0.00  0.00    +0.000 C 
ATOM     13  C   UNL     1      53.711   9.655  21.104  0.00  0.00    +0.000 C 
ATOM     14  O   UNL     1      54.274  10.686  20.281  0.00  0.00    +0.000 OA
ATOM     15  C   UNL     1      53.559  10.832  19.049  0.00  0.00    +0.000 C 
ATOM     16  C   UNL     1      53.477   9.499  18.283  0.00  0.00    +0.000 C 
ENDBRANCH  10  11
ENDBRANCH   9  10
ENDBRANCH   5   8
ENDBRANCH   1   2
BRANCH   1  19
ATOM     17  O   UNL     1      44.938   7.650  11.923  0.00  0.00    +0.000 OA
ATOM     18  C   UNL     1      45.601   6.635  11.724  0.00  0.00    +0.000 C 
ATOM     19  N   UNL     1      46.969   6.646  11.723  0.00  0.00    +0.000 N 
ATOM     20  H   UNL     1      47.475   5.847  11.356  0.00  0.00    +0.000 HD
BRANCH  18  21
ATOM     21  C   UNL     1      44.968   5.330  11.524  0.00  0.00    +0.000 A 
ATOM     22  C   UNL     1      44.206   4.772  12.543  0.00  0.00    +0.000 A 
ATOM     23  S   UNL     1      43.564   3.243  12.149  0.00  0.00    +0.000 S 
ATOM     24  C   UNL     1      44.241   3.297  10.591  0.00  0.00    +0.000 A 
ATOM     25  N   UNL     1      44.040   2.282   9.705  0.00  0.00    +0.000 NA
ATOM     26  C   UNL     1      44.580   2.473   8.545  0.00  0.00    +0.000 A 
ATOM     27  N   UNL     1      45.308   3.580   8.195  0.00  0.00    +0.000 N 
ATOM     28  C   UNL     1      45.570   4.611   9.067  0.00  0.00    +0.000 A 
ATOM     29  O   UNL     1      46.275   5.556   8.741  0.00  0.00    +0.000 OA
ATOM     30  C   UNL     1      44.966   4.456  10.379  0.00  0.00    +0.000 A 
ATOM     31  H   UNL     1      45.715   3.660   7.274  0.00  0.00    +0.000 HD
ENDBRANCH  18  21
ENDBRANCH   1  19
TORSDOF 6
ENDMDL
MODEL 9
REMARK VINA RESULT:    -5.140      5.845      9.951
REMARK INTER + INTRA:          -7.826
REMARK INTER:                  -6.996
REMARK INTRA:                  -0.830
REMARK UNBOUND:                -0.884
REMARK  Name = 
REMARK  6 active torsions:
REMARK  status: ('A' for Active; 'I' for Inactive)
REMARK    1  A    between atoms: C_2  and  C_20
REMARK    2  A    between atoms: N_3  and  C_4
REMARK    3  A    between atoms: C_4  and  C_5
REMARK    4  A    between atoms: C_8  and  C_9
REMARK    5  A    between atoms: C_10  and  C_11
REMARK    6  A    between atoms: C_11  and  N_12
REMARK                            x       y       z     vdW  Elec       q    Type
REMARK                         _______ _______ _______ _____ _____    ______ ____
ROOT
ATOM      1  C   UNL     1      51.956   8.991  14.350  0.00  0.00    +0.000 C 
ENDROOT
BRANCH   1   2
ATOM      2  C   UNL     1      50.759   8.396  13.667  0.00  0.00    +0.000 A 
ATOM      3  C   UNL     1      49.716   7.848  14.427  0.00  0.00    +0.000 A 
ATOM      4  C   UNL     1      48.599   7.303  13.798  0.00  0.00    +0.000 A 
ATOM      5  C   UNL     1      48.523   7.294  12.406  0.00  0.00    +0.000 A 
ATOM      6  C   UNL     1      49.577   7.791  11.638  0.00  0.00    +0.000 A 
ATOM      7  C   UNL     1      50.695   8.338  12.268  0.00  0.00    +0.000 A 
BRANCH   5   8
ATOM      8  C   UNL     1      47.354   6.794  11.765  0.00  0.00    +0.000 C 
ATOM      9  C   UNL     1      46.357   6.350  11.268  0.00  0.00    +0.000 C 
BRANCH   9  10
ATOM     10  C   UNL     1      45.167   5.743  10.678  0.00  0.00    +0.000 C 
BRANCH  10  11
ATOM     11  N   UNL     1      43.993   5.823  11.564  0.00  0.00    +0.000 NA
ATOM     12  C   UNL     1      44.307   5.578  12.990  0.00  0.00    +0.000 C 
ATOM     13  C   UNL     1      44.725   4.130  13.293  0.00  0.00    +0.000 C 
ATOM     14  O   UNL     1      43.738   3.190  12.845  0.00  0.00    +0.000 OA
ATOM     15  C   UNL     1      43.425   3.369  11.458  0.00  0.00    +0.000 C 
ATOM     16  C   UNL     1      42.985   4.814  11.160  0.00  0.00    +0.000 C 
ENDBRANCH  10  11
ENDBRANCH   9  10
ENDBRANCH   5   8
ENDBRANCH   1   2
BRANCH   1  19
ATOM     17  O   UNL     1      53.989   7.151  14.720  0.00  0.00    +0.000 OA
ATOM     18  C   UNL     1      53.297   7.455  15.688  0.00  0.00    +0.000 C 
ATOM     19  N   UNL     1      52.226   8.300  15.583  0.00  0.00    +0.000 N 
ATOM     20  H   UNL     1      51.811   8.688  16.423  0.00  0.00    +0.000 HD
BRANCH  18  21
ATOM     21  C   UNL     1      53.544   6.891  17.017  0.00  0.00    +0.000 A 
ATOM     22  C   UNL     1      54.717   7.206  17.690  0.00  0.00    +0.000 A 
ATOM     23  S   UNL     1      54.851   6.446  19.210  0.00  0.00    +0.000 S 
ATOM     24  C   UNL     1      53.326   5.713  19.041  0.00  0.00    +0.000 A 
ATOM     25  N   UNL     1      52.813   4.930  20.030  0.00  0.00    +0.000 NA
ATOM     26  C   UNL     1      51.630   4.468  19.783  0.00  0.00    +0.000 A 
ATOM     27  N   UNL     1      50.919   4.712  18.637  0.00  0.00    +0.000 N 
ATOM     28  C   UNL     1      51.412   5.463  17.595  0.00  0.00    +0.000 A 
ATOM     29  O   UNL     1      50.777   5.611  16.560  0.00  0.00    +0.000 OA
ATOM     30  C   UNL     1      52.731   6.025  17.831  0.00  0.00    +0.000 A 
ATOM     31  H   UNL     1      50.003   4.309  18.501  0.00  0.00    +0.000 HD
ENDBRANCH  18  21
ENDBRANCH   1  19
TORSDOF 6
ENDMDL
