MODEL 1
REMARK VINA RESULT:    -8.183      0.000      0.000
REMARK INTER + INTRA:         -11.180
REMARK INTER:                 -10.575
REMARK INTRA:                  -0.605
REMARK UNBOUND:                -0.605
REMARK  Name = 
REMARK  6 active torsions:
REMARK  status: ('A' for Active; 'I' for Inactive)
REMARK    1  A    between atoms: C_1  and  C_2
REMARK    2  A    between atoms: C_4  and  C_5
REMARK    3  A    between atoms: C_10  and  O_11
REMARK    4  A    between atoms: O_11  and  C_12
REMARK    5  A    between atoms: C_12  and  C_13
REMARK    6  A    between atoms: C_16  and  C_17
REMARK                            x       y       z     vdW  Elec       q    Type
REMARK                         _______ _______ _______ _____ _____    ______ ____
ROOT
ATOM      1  C   UNL     1      44.121   2.199  10.305  0.00  0.00    +0.000 C 
ATOM      2  C   UNL     1      45.020   2.889   9.327  0.00  0.00    +0.000 A 
ATOM      3  C   UNL     1      45.750   2.097   8.418  0.00  0.00    +0.000 A 
ATOM      4  C   UNL     1      46.605   2.678   7.480  0.00  0.00    +0.000 A 
ATOM      5  C   UNL     1      46.701   4.055   7.484  0.00  0.00    +0.000 A 
ATOM      6  N   UNL     1      46.021   4.853   8.339  0.00  0.00    +0.000 NA
ATOM      7  C   UNL     1      45.195   4.273   9.245  0.00  0.00    +0.000 A 
ENDROOT
BRANCH   4   8
ATOM      8  C   UNL     1      47.353   1.812   6.543  0.00  0.00    +0.000 C 
ATOM      9  N   UNL     1      48.308   2.361   5.738  0.00  0.00    +0.000 N 
ATOM     10  O   UNL     1      47.125   0.605   6.482  0.00  0.00    +0.000 OA
ATOM     11  H   UNL     1      48.576   3.332   5.702  0.00  0.00    +0.000 HD
ATOM     12  H   UNL     1      48.789   1.722   5.116  0.00  0.00    +0.000 HD
ENDBRANCH   4   8
BRANCH   7  13
ATOM     13  O   UNL     1      44.514   5.120  10.107  0.00  0.00    +0.000 OA
BRANCH  13  14
ATOM     14  C   UNL     1      45.416   6.069  10.715  0.00  0.00    +0.000 C 
BRANCH  14  15
ATOM     15  C   UNL     1      46.005   5.631  12.035  0.00  0.00    +0.000 A 
ATOM     16  C   UNL     1      47.074   6.263  12.657  0.00  0.00    +0.000 A 
ATOM     17  C   UNL     1      47.544   5.788  13.884  0.00  0.00    +0.000 A 
ATOM     18  C   UNL     1      46.930   4.678  14.475  0.00  0.00    +0.000 A 
ATOM     19  N   UNL     1      45.885   4.044  13.878  0.00  0.00    +0.000 NA
ATOM     20  C   UNL     1      45.453   4.530  12.688  0.00  0.00    +0.000 A 
BRANCH  18  21
ATOM     21  C   UNL     1      47.436   4.158  15.820  0.00  0.00    +0.000 C 
ATOM     22  F   UNL     1      48.522   4.845  16.286  0.00  0.00    +0.000 F 
ATOM     23  F   UNL     1      46.503   4.243  16.812  0.00  0.00    +0.000 F 
ATOM     24  F   UNL     1      47.826   2.853  15.778  0.00  0.00    +0.000 F 
ENDBRANCH  18  21
ENDBRANCH  14  15
ENDBRANCH  13  14
ENDBRANCH   7  13
TORSDOF 5
ENDMDL
MODEL 2
REMARK VINA RESULT:    -8.101      4.194      7.176
REMARK INTER + INTRA:         -11.075
REMARK INTER:                 -10.268
REMARK INTRA:                  -0.806
REMARK UNBOUND:                -0.605
REMARK  Name = 
REMARK  6 active torsions:
REMARK  status: ('A' for Active; 'I' for Inactive)
REMARK    1  A    between atoms: C_1  and  C_2
REMARK    2  A    between atoms: C_4  and  C_5
REMARK    3  A    between atoms: C_10  and  O_11
REMARK    4  A    between atoms: O_11  and  C_12
REMARK    5  A    between atoms: C_12  and  C_13
REMARK    6  A    between atoms: C_16  and  C_17
REMARK                            x       y       z     vdW  Elec       q    Type
REMARK                         _______ _______ _______ _____ _____    ______ ____
ROOT
ATOM      1  C   UNL     1      46.642   3.555  13.353  0.00  0.00    +0.000 C 
ATOM      2  C   UNL     1      46.070   4.893  13.000  0.00  0.00    +0.000 A 
ATOM      3  C   UNL     1      46.842   6.040  13.269  0.00  0.00    +0.000 A 
ATOM      4  C   UNL     1      46.368   7.317  12.964  0.00  0.00    +0.000 A 
ATOM      5  C   UNL     1      45.116   7.403  12.389  0.00  0.00    +0.000 A 
ATOM      6  N   UNL     1      44.340   6.328  12.115  0.00  0.00    +0.000 NA
ATOM      7  C   UNL     1      44.815   5.094  12.419  0.00  0.00    +0.000 A 
ENDROOT
BRANCH   4   8
ATOM      8  C   UNL     1      47.209   8.497  13.261  0.00  0.00    +0.000 C 
ATOM      9  N   UNL     1      47.324   8.932  14.549  0.00  0.00    +0.000 N 
ATOM     10  O   UNL     1      47.805   9.088  12.362  0.00  0.00    +0.000 OA
ATOM     11  H   UNL     1      46.883   8.529  15.360  0.00  0.00    +0.000 HD
ATOM     12  H   UNL     1      47.912   9.744  14.695  0.00  0.00    +0.000 HD
ENDBRANCH   4   8
BRANCH   7  13
ATOM     13  O   UNL     1      43.994   4.016  12.126  0.00  0.00    +0.000 OA
BRANCH  13  14
ATOM     14  C   UNL     1      43.500   4.098  10.773  0.00  0.00    +0.000 C 
BRANCH  14  15
ATOM     15  C   UNL     1      44.442   3.568   9.718  0.00  0.00    +0.000 A 
ATOM     16  C   UNL     1      44.787   2.229   9.586  0.00  0.00    +0.000 A 
ATOM     17  C   UNL     1      45.663   1.833   8.572  0.00  0.00    +0.000 A 
ATOM     18  C   UNL     1      46.184   2.792   7.698  0.00  0.00    +0.000 A 
ATOM     19  N   UNL     1      45.860   4.109   7.815  0.00  0.00    +0.000 NA
ATOM     20  C   UNL     1      45.008   4.460   8.809  0.00  0.00    +0.000 A 
BRANCH  18  21
ATOM     21  C   UNL     1      47.137   2.365   6.582  0.00  0.00    +0.000 C 
ATOM     22  F   UNL     1      46.806   2.890   5.364  0.00  0.00    +0.000 F 
ATOM     23  F   UNL     1      48.427   2.751   6.802  0.00  0.00    +0.000 F 
ATOM     24  F   UNL     1      47.172   1.015   6.394  0.00  0.00    +0.000 F 
ENDBRANCH  18  21
ENDBRANCH  14  15
ENDBRANCH  13  14
ENDBRANCH   7  13
TORSDOF 5
ENDMDL
MODEL 3
REMARK VINA RESULT:    -7.972      4.097      7.009
REMARK INTER + INTRA:         -10.908
REMARK INTER:                 -10.047
REMARK INTRA:                  -0.861
REMARK UNBOUND:                -0.605
REMARK  Name = 
REMARK  6 active torsions:
REMARK  status: ('A' for Active; 'I' for Inactive)
REMARK    1  A    between atoms: C_1  and  C_2
REMARK    2  A    between atoms: C_4  and  C_5
REMARK    3  A    between atoms: C_10  and  O_11
REMARK    4  A    between atoms: O_11  and  C_12
REMARK    5  A    between atoms: C_12  and  C_13
REMARK    6  A    between atoms: C_16  and  C_17
REMARK                            x       y       z     vdW  Elec       q    Type
REMARK                         _______ _______ _______ _____ _____    ______ ____
ROOT
ATOM      1  C   UNL     1      47.213   6.973  11.319  0.00  0.00    +0.000 C 
ATOM      2  C   UNL     1      46.513   6.023  12.242  0.00  0.00    +0.000 A 
ATOM      3  C   UNL     1      47.212   5.553  13.370  0.00  0.00    +0.000 A 
ATOM      4  C   UNL     1      46.617   4.667  14.270  0.00  0.00    +0.000 A 
ATOM      5  C   UNL     1      45.321   4.276  14.004  0.00  0.00    +0.000 A 
ATOM      6  N   UNL     1      44.613   4.702  12.931  0.00  0.00    +0.000 NA
ATOM      7  C   UNL     1      45.206   5.561  12.066  0.00  0.00    +0.000 A 
ENDROOT
BRANCH   4   8
ATOM      8  C   UNL     1      47.385   4.196  15.443  0.00  0.00    +0.000 C 
ATOM      9  N   UNL     1      47.516   5.009  16.531  0.00  0.00    +0.000 N 
ATOM     10  O   UNL     1      47.904   3.081  15.450  0.00  0.00    +0.000 OA
ATOM     11  H   UNL     1      47.137   5.937  16.635  0.00  0.00    +0.000 HD
ATOM     12  H   UNL     1      48.052   4.636  17.305  0.00  0.00    +0.000 HD
ENDBRANCH   4   8
BRANCH   7  13
ATOM     13  O   UNL     1      44.453   5.976  10.978  0.00  0.00    +0.000 OA
BRANCH  13  14
ATOM     14  C   UNL     1      43.774   4.859  10.365  0.00  0.00    +0.000 C 
BRANCH  14  15
ATOM     15  C   UNL     1      44.639   4.000   9.474  0.00  0.00    +0.000 A 
ATOM     16  C   UNL     1      45.516   4.505   8.522  0.00  0.00    +0.000 A 
ATOM     17  C   UNL     1      46.281   3.629   7.748  0.00  0.00    +0.000 A 
ATOM     18  C   UNL     1      46.157   2.249   7.942  0.00  0.00    +0.000 A 
ATOM     19  N   UNL     1      45.301   1.737   8.868  0.00  0.00    +0.000 NA
ATOM     20  C   UNL     1      44.573   2.614   9.601  0.00  0.00    +0.000 A 
BRANCH  18  21
ATOM     21  C   UNL     1      46.997   1.286   7.104  0.00  0.00    +0.000 C 
ATOM     22  F   UNL     1      48.343   1.470   7.265  0.00  0.00    +0.000 F 
ATOM     23  F   UNL     1      46.775  -0.025   7.410  0.00  0.00    +0.000 F 
ATOM     24  F   UNL     1      46.775   1.406   5.765  0.00  0.00    +0.000 F 
ENDBRANCH  18  21
ENDBRANCH  14  15
ENDBRANCH  13  14
ENDBRANCH   7  13
TORSDOF 5
ENDMDL
MODEL 4
REMARK VINA RESULT:    -7.709      4.151      7.124
REMARK INTER + INTRA:         -10.568
REMARK INTER:                  -9.763
REMARK INTRA:                  -0.804
REMARK UNBOUND:                -0.605
REMARK  Name = 
REMARK  6 active torsions:
REMARK  status: ('A' for Active; 'I' for Inactive)
REMARK    1  A    between atoms: C_1  and  C_2
REMARK    2  A    between atoms: C_4  and  C_5
REMARK    3  A    between atoms: C_10  and  O_11
REMARK    4  A    between atoms: O_11  and  C_12
REMARK    5  A    between atoms: C_12  and  C_13
REMARK    6  A    between atoms: C_16  and  C_17
REMARK                            x       y       z     vdW  Elec       q    Type
REMARK                         _______ _______ _______ _____ _____    ______ ____
ROOT
ATOM      1  C   UNL     1      44.899   7.314  11.113  0.00  0.00    +0.000 C 
ATOM      2  C   UNL     1      45.242   6.246  12.105  0.00  0.00    +0.000 A 
ATOM      3  C   UNL     1      46.375   6.434  12.922  0.00  0.00    +0.000 A 
ATOM      4  C   UNL     1      46.749   5.477  13.868  0.00  0.00    +0.000 A 
ATOM      5  C   UNL     1      45.962   4.347  13.964  0.00  0.00    +0.000 A 
ATOM      6  N   UNL     1      44.868   4.126  13.199  0.00  0.00    +0.000 NA
ATOM      7  C   UNL     1      44.519   5.064  12.284  0.00  0.00    +0.000 A 
ENDROOT
BRANCH   4   8
ATOM      8  C   UNL     1      47.944   5.711  14.706  0.00  0.00    +0.000 C 
ATOM      9  N   UNL     1      47.940   5.310  16.010  0.00  0.00    +0.000 N 
ATOM     10  O   UNL     1      48.942   6.262  14.242  0.00  0.00    +0.000 OA
ATOM     11  H   UNL     1      47.182   4.853  16.494  0.00  0.00    +0.000 HD
ATOM     12  H   UNL     1      48.784   5.495  16.538  0.00  0.00    +0.000 HD
ENDBRANCH   4   8
BRANCH   7  13
ATOM     13  O   UNL     1      43.393   4.805  11.517  0.00  0.00    +0.000 OA
BRANCH  13  14
ATOM     14  C   UNL     1      43.433   3.466  10.980  0.00  0.00    +0.000 C 
BRANCH  14  15
ATOM     15  C   UNL     1      44.364   3.279   9.806  0.00  0.00    +0.000 A 
ATOM     16  C   UNL     1      44.729   4.296   8.933  0.00  0.00    +0.000 A 
ATOM     17  C   UNL     1      45.603   4.026   7.878  0.00  0.00    +0.000 A 
ATOM     18  C   UNL     1      46.105   2.731   7.711  0.00  0.00    +0.000 A 
ATOM     19  N   UNL     1      45.755   1.721   8.554  0.00  0.00    +0.000 NA
ATOM     20  C   UNL     1      44.905   2.016   9.567  0.00  0.00    +0.000 A 
BRANCH  18  21
ATOM     21  C   UNL     1      47.067   2.432   6.562  0.00  0.00    +0.000 C 
ATOM     22  F   UNL     1      46.964   1.150   6.097  0.00  0.00    +0.000 F 
ATOM     23  F   UNL     1      46.865   3.227   5.473  0.00  0.00    +0.000 F 
ATOM     24  F   UNL     1      48.377   2.585   6.906  0.00  0.00    +0.000 F 
ENDBRANCH  18  21
ENDBRANCH  14  15
ENDBRANCH  13  14
ENDBRANCH   7  13
TORSDOF 5
ENDMDL
MODEL 5
REMARK VINA RESULT:    -7.212      1.936      2.631
REMARK INTER + INTRA:          -9.925
REMARK INTER:                  -9.006
REMARK INTRA:                  -0.920
REMARK UNBOUND:                -0.605
REMARK  Name = 
REMARK  6 active torsions:
REMARK  status: ('A' for Active; 'I' for Inactive)
REMARK    1  A    between atoms: C_1  and  C_2
REMARK    2  A    between atoms: C_4  and  C_5
REMARK    3  A    between atoms: C_10  and  O_11
REMARK    4  A    between atoms: O_11  and  C_12
REMARK    5  A    between atoms: C_12  and  C_13
REMARK    6  A    between atoms: C_16  and  C_17
REMARK                            x       y       z     vdW  Elec       q    Type
REMARK                         _______ _______ _______ _____ _____    ______ ____
ROOT
ATOM      1  C   UNL     1      46.023   5.513   8.769  0.00  0.00    +0.000 C 
ATOM      2  C   UNL     1      45.596   4.077   8.802  0.00  0.00    +0.000 A 
ATOM      3  C   UNL     1      46.409   3.126   8.155  0.00  0.00    +0.000 A 
ATOM      4  C   UNL     1      46.069   1.772   8.149  0.00  0.00    +0.000 A 
ATOM      5  C   UNL     1      44.908   1.412   8.803  0.00  0.00    +0.000 A 
ATOM      6  N   UNL     1      44.098   2.293   9.436  0.00  0.00    +0.000 NA
ATOM      7  C   UNL     1      44.441   3.605   9.431  0.00  0.00    +0.000 A 
ENDROOT
BRANCH   4   8
ATOM      8  C   UNL     1      46.948   0.803   7.459  0.00  0.00    +0.000 C 
ATOM      9  N   UNL     1      46.758  -0.534   7.653  0.00  0.00    +0.000 N 
ATOM     10  O   UNL     1      47.847   1.189   6.714  0.00  0.00    +0.000 OA
ATOM     11  H   UNL     1      46.058  -0.961   8.239  0.00  0.00    +0.000 HD
ATOM     12  H   UNL     1      47.388  -1.152   7.156  0.00  0.00    +0.000 HD
ENDBRANCH   4   8
BRANCH   7  13
ATOM     13  O   UNL     1      43.589   4.480  10.087  0.00  0.00    +0.000 OA
BRANCH  13  14
ATOM     14  C   UNL     1      43.600   4.240  11.510  0.00  0.00    +0.000 C 
BRANCH  14  15
ATOM     15  C   UNL     1      44.801   4.794  12.239  0.00  0.00    +0.000 A 
ATOM     16  C   UNL     1      45.744   4.010  12.891  0.00  0.00    +0.000 A 
ATOM     17  C   UNL     1      46.828   4.616  13.533  0.00  0.00    +0.000 A 
ATOM     18  C   UNL     1      46.952   6.009  13.510  0.00  0.00    +0.000 A 
ATOM     19  N   UNL     1      46.035   6.793  12.880  0.00  0.00    +0.000 NA
ATOM     20  C   UNL     1      44.996   6.174  12.268  0.00  0.00    +0.000 A 
BRANCH  18  21
ATOM     21  C   UNL     1      48.138   6.676  14.204  0.00  0.00    +0.000 C 
ATOM     22  F   UNL     1      47.902   7.983  14.531  0.00  0.00    +0.000 F 
ATOM     23  F   UNL     1      48.484   6.070  15.376  0.00  0.00    +0.000 F 
ATOM     24  F   UNL     1      49.266   6.695  13.440  0.00  0.00    +0.000 F 
ENDBRANCH  18  21
ENDBRANCH  14  15
ENDBRANCH  13  14
ENDBRANCH   7  13
TORSDOF 5
ENDMDL
MODEL 6
REMARK VINA RESULT:    -6.332      4.817      8.050
REMARK INTER + INTRA:          -8.788
REMARK INTER:                  -8.400
REMARK INTRA:                  -0.388
REMARK UNBOUND:                -0.605
REMARK  Name = 
REMARK  6 active torsions:
REMARK  status: ('A' for Active; 'I' for Inactive)
REMARK    1  A    between atoms: C_1  and  C_2
REMARK    2  A    between atoms: C_4  and  C_5
REMARK    3  A    between atoms: C_10  and  O_11
REMARK    4  A    between atoms: O_11  and  C_12
REMARK    5  A    between atoms: C_12  and  C_13
REMARK    6  A    between atoms: C_16  and  C_17
REMARK                            x       y       z     vdW  Elec       q    Type
REMARK                         _______ _______ _______ _____ _____    ______ ____
ROOT
ATOM      1  C   UNL     1      49.534   6.009  17.820  0.00  0.00    +0.000 C 
ATOM      2  C   UNL     1      49.534   4.582  17.366  0.00  0.00    +0.000 A 
ATOM      3  C   UNL     1      50.620   3.765  17.735  0.00  0.00    +0.000 A 
ATOM      4  C   UNL     1      50.681   2.426  17.346  0.00  0.00    +0.000 A 
ATOM      5  C   UNL     1      49.633   1.943  16.588  0.00  0.00    +0.000 A 
ATOM      6  N   UNL     1      48.571   2.693  16.210  0.00  0.00    +0.000 NA
ATOM      7  C   UNL     1      48.528   3.993  16.596  0.00  0.00    +0.000 A 
ENDROOT
BRANCH   4   8
ATOM      8  C   UNL     1      51.838   1.600  17.753  0.00  0.00    +0.000 C 
ATOM      9  N   UNL     1      51.646   0.292  18.087  0.00  0.00    +0.000 N 
ATOM     10  O   UNL     1      52.970   2.080  17.794  0.00  0.00    +0.000 OA
ATOM     11  H   UNL     1      50.768  -0.203  18.092  0.00  0.00    +0.000 HD
ATOM     12  H   UNL     1      52.473  -0.226  18.359  0.00  0.00    +0.000 HD
ENDBRANCH   4   8
BRANCH   7  13
ATOM     13  O   UNL     1      47.427   4.732  16.190  0.00  0.00    +0.000 OA
BRANCH  13  14
ATOM     14  C   UNL     1      47.714   5.458  14.976  0.00  0.00    +0.000 C 
BRANCH  14  15
ATOM     15  C   UNL     1      46.824   5.115  13.805  0.00  0.00    +0.000 A 
ATOM     16  C   UNL     1      46.452   6.020  12.819  0.00  0.00    +0.000 A 
ATOM     17  C   UNL     1      45.631   5.605  11.769  0.00  0.00    +0.000 A 
ATOM     18  C   UNL     1      45.191   4.278  11.719  0.00  0.00    +0.000 A 
ATOM     19  N   UNL     1      45.542   3.378  12.678  0.00  0.00    +0.000 NA
ATOM     20  C   UNL     1      46.340   3.813  13.684  0.00  0.00    +0.000 A 
BRANCH  18  21
ATOM     21  C   UNL     1      44.297   3.817  10.569  0.00  0.00    +0.000 C 
ATOM     22  F   UNL     1      43.416   4.778  10.157  0.00  0.00    +0.000 F 
ATOM     23  F   UNL     1      44.999   3.469   9.452  0.00  0.00    +0.000 F 
ATOM     24  F   UNL     1      43.529   2.736  10.886  0.00  0.00    +0.000 F 
ENDBRANCH  18  21
ENDBRANCH  14  15
ENDBRANCH  13  14
ENDBRANCH   7  13
TORSDOF 5
ENDMDL
MODEL 7
REMARK VINA RESULT:    -6.275      3.634      5.748
REMARK INTER + INTRA:          -8.714
REMARK INTER:                  -8.205
REMARK INTRA:                  -0.509
REMARK UNBOUND:                -0.605
REMARK  Name = 
REMARK  6 active torsions:
REMARK  status: ('A' for Active; 'I' for Inactive)
REMARK    1  A    between atoms: C_1  and  C_2
REMARK    2  A    between atoms: C_4  and  C_5
REMARK    3  A    between atoms: C_10  and  O_11
REMARK    4  A    between atoms: O_11  and  C_12
REMARK    5  A    between atoms: C_12  and  C_13
REMARK    6  A    between atoms: C_16  and  C_17
REMARK                            x       y       z     vdW  Elec       q    Type
REMARK                         _______ _______ _______ _____ _____    ______ ____
ROOT
ATOM      1  C   UNL     1      46.898   7.290  13.201  0.00  0.00    +0.000 C 
ATOM      2  C   UNL     1      46.506   5.849  13.096  0.00  0.00    +0.000 A 
ATOM      3  C   UNL     1      45.713   5.452  12.001  0.00  0.00    +0.000 A 
ATOM      4  C   UNL     1      45.314   4.123  11.843  0.00  0.00    +0.000 A 
ATOM      5  C   UNL     1      45.730   3.223  12.803  0.00  0.00    +0.000 A 
ATOM      6  N   UNL     1      46.490   3.562  13.871  0.00  0.00    +0.000 NA
ATOM      7  C   UNL     1      46.868   4.856  14.010  0.00  0.00    +0.000 A 
ENDROOT
BRANCH   4   8
ATOM      8  C   UNL     1      44.482   3.746  10.680  0.00  0.00    +0.000 C 
ATOM      9  N   UNL     1      44.212   2.430  10.445  0.00  0.00    +0.000 N 
ATOM     10  O   UNL     1      44.031   4.605   9.923  0.00  0.00    +0.000 OA
ATOM     11  H   UNL     1      44.529   1.646  10.994  0.00  0.00    +0.000 HD
ATOM     12  H   UNL     1      43.638   2.229   9.635  0.00  0.00    +0.000 HD
ENDBRANCH   4   8
BRANCH   7  13
ATOM     13  O   UNL     1      47.646   5.168  15.116  0.00  0.00    +0.000 OA
BRANCH  13  14
ATOM     14  C   UNL     1      47.492   4.173  16.150  0.00  0.00    +0.000 C 
BRANCH  14  15
ATOM     15  C   UNL     1      48.780   3.539  16.619  0.00  0.00    +0.000 A 
ATOM     16  C   UNL     1      49.742   4.200  17.373  0.00  0.00    +0.000 A 
ATOM     17  C   UNL     1      50.900   3.526  17.767  0.00  0.00    +0.000 A 
ATOM     18  C   UNL     1      51.080   2.189  17.397  0.00  0.00    +0.000 A 
ATOM     19  N   UNL     1      50.151   1.527  16.655  0.00  0.00    +0.000 NA
ATOM     20  C   UNL     1      49.038   2.210  16.289  0.00  0.00    +0.000 A 
BRANCH  18  21
ATOM     21  C   UNL     1      52.342   1.444  17.831  0.00  0.00    +0.000 C 
ATOM     22  F   UNL     1      53.278   1.354  16.838  0.00  0.00    +0.000 F 
ATOM     23  F   UNL     1      52.983   2.041  18.877  0.00  0.00    +0.000 F 
ATOM     24  F   UNL     1      52.101   0.159  18.216  0.00  0.00    +0.000 F 
ENDBRANCH  18  21
ENDBRANCH  14  15
ENDBRANCH  13  14
ENDBRANCH   7  13
TORSDOF 5
ENDMDL
MODEL 8
REMARK VINA RESULT:    -5.960      4.665      8.620
REMARK INTER + INTRA:          -8.307
REMARK INTER:                  -7.720
REMARK INTRA:                  -0.587
REMARK UNBOUND:                -0.605
REMARK  Name = 
REMARK  6 active torsions:
REMARK  status: ('A' for Active; 'I' for Inactive)
REMARK    1  A    between atoms: C_1  and  C_2
REMARK    2  A    between atoms: C_4  and  C_5
REMARK    3  A    between atoms: C_10  and  O_11
REMARK    4  A    between atoms: O_11  and  C_12
REMARK    5  A    between atoms: C_12  and  C_13
REMARK    6  A    between atoms: C_16  and  C_17
REMARK                            x       y       z     vdW  Elec       q    Type
REMARK                         _______ _______ _______ _____ _____    ______ ____
ROOT
ATOM      1  C   UNL     1      47.831   3.451  16.312  0.00  0.00    +0.000 C 
ATOM      2  C   UNL     1      48.064   4.829  16.851  0.00  0.00    +0.000 A 
ATOM      3  C   UNL     1      47.868   5.048  18.228  0.00  0.00    +0.000 A 
ATOM      4  C   UNL     1      48.069   6.308  18.794  0.00  0.00    +0.000 A 
ATOM      5  C   UNL     1      48.465   7.322  17.946  0.00  0.00    +0.000 A 
ATOM      6  N   UNL     1      48.663   7.157  16.617  0.00  0.00    +0.000 NA
ATOM      7  C   UNL     1      48.463   5.926  16.083  0.00  0.00    +0.000 A 
ENDROOT
BRANCH   4   8
ATOM      8  C   UNL     1      47.853   6.498  20.245  0.00  0.00    +0.000 C 
ATOM      9  N   UNL     1      47.037   5.640  20.921  0.00  0.00    +0.000 N 
ATOM     10  O   UNL     1      48.401   7.420  20.848  0.00  0.00    +0.000 OA
ATOM     11  H   UNL     1      46.538   4.855  20.532  0.00  0.00    +0.000 HD
ATOM     12  H   UNL     1      46.925   5.816  21.912  0.00  0.00    +0.000 HD
ENDBRANCH   4   8
BRANCH   7  13
ATOM     13  O   UNL     1      48.673   5.792  14.719  0.00  0.00    +0.000 OA
BRANCH  13  14
ATOM     14  C   UNL     1      47.801   6.669  13.975  0.00  0.00    +0.000 C 
BRANCH  14  15
ATOM     15  C   UNL     1      46.872   5.972  13.008  0.00  0.00    +0.000 A 
ATOM     16  C   UNL     1      46.600   6.429  11.726  0.00  0.00    +0.000 A 
ATOM     17  C   UNL     1      45.731   5.711  10.901  0.00  0.00    +0.000 A 
ATOM     18  C   UNL     1      45.144   4.534  11.377  0.00  0.00    +0.000 A 
ATOM     19  N   UNL     1      45.396   4.073  12.633  0.00  0.00    +0.000 NA
ATOM     20  C   UNL     1      46.243   4.794  13.407  0.00  0.00    +0.000 A 
BRANCH  18  21
ATOM     21  C   UNL     1      44.198   3.739  10.477  0.00  0.00    +0.000 C 
ATOM     22  F   UNL     1      44.734   2.556  10.050  0.00  0.00    +0.000 F 
ATOM     23  F   UNL     1      43.029   3.403  11.094  0.00  0.00    +0.000 F 
ATOM     24  F   UNL     1      43.850   4.408   9.342  0.00  0.00    +0.000 F 
ENDBRANCH  18  21
ENDBRANCH  14  15
ENDBRANCH  13  14
ENDBRANCH   7  13
TORSDOF 5
ENDMDL
MODEL 9
REMARK VINA RESULT:    -5.943      2.398      3.360
REMARK INTER + INTRA:          -8.285
REMARK INTER:                  -7.573
REMARK INTRA:                  -0.712
REMARK UNBOUND:                -0.605
REMARK  Name = 
REMARK  6 active torsions:
REMARK  status: ('A' for Active; 'I' for Inactive)
REMARK    1  A    between atoms: C_1  and  C_2
REMARK    2  A    between atoms: C_4  and  C_5
REMARK    3  A    between atoms: C_10  and  O_11
REMARK    4  A    between atoms: O_11  and  C_12
REMARK    5  A    between atoms: C_12  and  C_13
REMARK    6  A    between atoms: C_16  and  C_17
REMARK                            x       y       z     vdW  Elec       q    Type
REMARK                         _______ _______ _______ _____ _____    ______ ____
ROOT
ATOM      1  C   UNL     1      43.882   4.203  13.080  0.00  0.00    +0.000 C 
ATOM      2  C   UNL     1      44.662   4.723  11.912  0.00  0.00    +0.000 A 
ATOM      3  C   UNL     1      44.549   4.047  10.681  0.00  0.00    +0.000 A 
ATOM      4  C   UNL     1      45.248   4.480   9.553  0.00  0.00    +0.000 A 
ATOM      5  C   UNL     1      46.049   5.594   9.699  0.00  0.00    +0.000 A 
ATOM      6  N   UNL     1      46.187   6.273  10.863  0.00  0.00    +0.000 NA
ATOM      7  C   UNL     1      45.503   5.838  11.949  0.00  0.00    +0.000 A 
ENDROOT
BRANCH   4   8
ATOM      8  C   UNL     1      45.103   3.743   8.279  0.00  0.00    +0.000 C 
ATOM      9  N   UNL     1      44.282   2.655   8.221  0.00  0.00    +0.000 N 
ATOM     10  O   UNL     1      45.713   4.100   7.272  0.00  0.00    +0.000 OA
ATOM     11  H   UNL     1      43.738   2.274   8.979  0.00  0.00    +0.000 HD
ATOM     12  H   UNL     1      44.221   2.189   7.324  0.00  0.00    +0.000 HD
ENDBRANCH   4   8
BRANCH   7  13
ATOM     13  O   UNL     1      45.669   6.555  13.125  0.00  0.00    +0.000 OA
BRANCH  13  14
ATOM     14  C   UNL     1      47.068   6.684  13.456  0.00  0.00    +0.000 C 
BRANCH  14  15
ATOM     15  C   UNL     1      47.521   5.856  14.634  0.00  0.00    +0.000 A 
ATOM     16  C   UNL     1      46.937   4.653  15.009  0.00  0.00    +0.000 A 
ATOM     17  C   UNL     1      47.433   3.953  16.112  0.00  0.00    +0.000 A 
ATOM     18  C   UNL     1      48.516   4.473  16.829  0.00  0.00    +0.000 A 
ATOM     19  N   UNL     1      49.098   5.653  16.478  0.00  0.00    +0.000 NA
ATOM     20  C   UNL     1      48.593   6.306  15.404  0.00  0.00    +0.000 A 
BRANCH  18  21
ATOM     21  C   UNL     1      49.067   3.710  18.032  0.00  0.00    +0.000 C 
ATOM     22  F   UNL     1      49.248   4.502  19.132  0.00  0.00    +0.000 F 
ATOM     23  F   UNL     1      48.249   2.700  18.447  0.00  0.00    +0.000 F 
ATOM     24  F   UNL     1      50.282   3.140  17.796  0.00  0.00    +0.000 F 
ENDBRANCH  18  21
ENDBRANCH  14  15
ENDBRANCH  13  14
ENDBRANCH   7  13
TORSDOF 5
ENDMDL
