MODEL 1
REMARK VINA RESULT:    -9.032      0.000      0.000
REMARK INTER + INTRA:         -12.871
REMARK INTER:                 -11.672
REMARK INTRA:                  -1.199
REMARK UNBOUND:                -1.199
REMARK  Name = 
REMARK  5 active torsions:
REMARK  status: ('A' for Active; 'I' for Inactive)
REMARK    1  A    between atoms: C_2  and  C_4
REMARK    2  A    between atoms: C_7  and  N_8
REMARK    3  A    between atoms: N_8  and  C_9
REMARK    4  A    between atoms: C_9  and  C_10
REMARK    5  A    between atoms: C_14  and  C_15
REMARK                            x       y       z     vdW  Elec       q    Type
REMARK                         _______ _______ _______ _____ _____    ______ ____
ROOT
ATOM      1  C   UNL     1      43.586   4.527  11.408  0.00  0.00    +0.000 C 
ENDROOT
BRANCH   1   2
ATOM      2  C   UNL     1      44.860   4.849  12.141  0.00  0.00    +0.000 A 
ATOM      3  C   UNL     1      45.540   3.874  12.876  0.00  0.00    +0.000 A 
ATOM      4  C   UNL     1      46.729   4.196  13.524  0.00  0.00    +0.000 A 
ATOM      5  C   UNL     1      47.262   5.485  13.416  0.00  0.00    +0.000 A 
ATOM      6  C   UNL     1      46.633   6.476  12.642  0.00  0.00    +0.000 A 
ATOM      7  C   UNL     1      45.414   6.134  12.031  0.00  0.00    +0.000 A 
BRANCH   6   8
ATOM      8  C   UNL     1      47.263   7.791  12.377  0.00  0.00    +0.000 A 
ATOM      9  C   UNL     1      48.545   7.865  11.797  0.00  0.00    +0.000 A 
ATOM     10  C   UNL     1      49.104   9.086  11.410  0.00  0.00    +0.000 A 
ATOM     11  C   UNL     1      48.392  10.269  11.587  0.00  0.00    +0.000 A 
ATOM     12  C   UNL     1      47.138  10.232  12.185  0.00  0.00    +0.000 A 
ATOM     13  C   UNL     1      46.592   9.010  12.583  0.00  0.00    +0.000 A 
ATOM     14  F   UNL     1      45.378   9.036  13.158  0.00  0.00    +0.000 F 
ENDBRANCH   6   8
ENDBRANCH   1   2
BRANCH   1  15
ATOM     15  N   UNL     1      43.772   4.767   9.987  0.00  0.00    +0.000 N 
ATOM     16  H   UNL     1      42.954   5.138   9.510  0.00  0.00    +0.000 HD
BRANCH  15  20
ATOM     17  C   UNL     1      46.348   2.270   7.782  0.00  0.00    +0.000 A 
ATOM     18  C   UNL     1      45.428   1.701   8.663  0.00  0.00    +0.000 A 
ATOM     19  C   UNL     1      44.546   2.519   9.374  0.00  0.00    +0.000 A 
ATOM     20  C   UNL     1      44.542   3.910   9.209  0.00  0.00    +0.000 A 
ATOM     21  C   UNL     1      45.475   4.462   8.323  0.00  0.00    +0.000 A 
ATOM     22  C   UNL     1      46.375   3.655   7.615  0.00  0.00    +0.000 A 
BRANCH  17  24
ATOM     23  N   UNL     1      48.452   2.072   6.569  0.00  0.00    +0.000 N 
ATOM     24  C   UNL     1      47.345   1.438   7.059  0.00  0.00    +0.000 C 
ATOM     25  O   UNL     1      47.201   0.230   6.926  0.00  0.00    +0.000 OA
ATOM     26  H   UNL     1      49.160   1.482   6.154  0.00  0.00    +0.000 HD
ATOM     27  H   UNL     1      48.723   3.000   6.863  0.00  0.00    +0.000 HD
ENDBRANCH  17  24
ENDBRANCH  15  20
ENDBRANCH   1  15
TORSDOF 5
ENDMDL
MODEL 2
REMARK VINA RESULT:    -8.204      1.945      3.607
REMARK INTER + INTRA:         -11.800
REMARK INTER:                 -11.187
REMARK INTRA:                  -0.614
REMARK UNBOUND:                -1.199
REMARK  Name = 
REMARK  5 active torsions:
REMARK  status: ('A' for Active; 'I' for Inactive)
REMARK    1  A    between atoms: C_2  and  C_4
REMARK    2  A    between atoms: C_7  and  N_8
REMARK    3  A    between atoms: N_8  and  C_9
REMARK    4  A    between atoms: C_9  and  C_10
REMARK    5  A    between atoms: C_14  and  C_15
REMARK                            x       y       z     vdW  Elec       q    Type
REMARK                         _______ _______ _______ _____ _____    ______ ____
ROOT
ATOM      1  C   UNL     1      43.897   4.299  11.783  0.00  0.00    +0.000 C 
ENDROOT
BRANCH   1   2
ATOM      2  C   UNL     1      45.083   5.091  12.265  0.00  0.00    +0.000 A 
ATOM      3  C   UNL     1      45.440   6.300  11.662  0.00  0.00    +0.000 A 
ATOM      4  C   UNL     1      46.527   7.023  12.145  0.00  0.00    +0.000 A 
ATOM      5  C   UNL     1      47.243   6.559  13.254  0.00  0.00    +0.000 A 
ATOM      6  C   UNL     1      46.880   5.374  13.917  0.00  0.00    +0.000 A 
ATOM      7  C   UNL     1      45.803   4.645  13.384  0.00  0.00    +0.000 A 
BRANCH   6   8
ATOM      8  C   UNL     1      47.516   4.952  15.188  0.00  0.00    +0.000 A 
ATOM      9  C   UNL     1      47.348   3.639  15.669  0.00  0.00    +0.000 A 
ATOM     10  C   UNL     1      48.046   3.175  16.789  0.00  0.00    +0.000 A 
ATOM     11  C   UNL     1      48.937   4.012  17.455  0.00  0.00    +0.000 A 
ATOM     12  C   UNL     1      49.100   5.323  17.022  0.00  0.00    +0.000 A 
ATOM     13  C   UNL     1      48.389   5.785  15.912  0.00  0.00    +0.000 A 
ATOM     14  F   UNL     1      48.584   7.061  15.543  0.00  0.00    +0.000 F 
ENDBRANCH   6   8
ENDBRANCH   1   2
BRANCH   1  15
ATOM     15  N   UNL     1      43.744   4.482  10.349  0.00  0.00    +0.000 N 
ATOM     16  H   UNL     1      42.786   4.636  10.043  0.00  0.00    +0.000 HD
BRANCH  15  20
ATOM     17  C   UNL     1      46.339   2.421   7.751  0.00  0.00    +0.000 A 
ATOM     18  C   UNL     1      45.575   1.702   8.671  0.00  0.00    +0.000 A 
ATOM     19  C   UNL     1      44.687   2.373   9.516  0.00  0.00    +0.000 A 
ATOM     20  C   UNL     1      44.519   3.762   9.448  0.00  0.00    +0.000 A 
ATOM     21  C   UNL     1      45.297   4.466   8.519  0.00  0.00    +0.000 A 
ATOM     22  C   UNL     1      46.202   3.807   7.678  0.00  0.00    +0.000 A 
BRANCH  17  24
ATOM     23  N   UNL     1      48.434   2.480   6.509  0.00  0.00    +0.000 N 
ATOM     24  C   UNL     1      47.342   1.750   6.884  0.00  0.00    +0.000 C 
ATOM     25  O   UNL     1      47.215   0.582   6.536  0.00  0.00    +0.000 OA
ATOM     26  H   UNL     1      49.148   1.985   5.990  0.00  0.00    +0.000 HD
ATOM     27  H   UNL     1      48.694   3.344   6.963  0.00  0.00    +0.000 HD
ENDBRANCH  17  24
ENDBRANCH  15  20
ENDBRANCH   1  15
TORSDOF 5
ENDMDL
MODEL 3
REMARK VINA RESULT:    -7.862      1.710      2.468
REMARK INTER + INTRA:         -11.359
REMARK INTER:                 -10.292
REMARK INTRA:                  -1.067
REMARK UNBOUND:                -1.199
REMARK  Name = 
REMARK  5 active torsions:
REMARK  status: ('A' for Active; 'I' for Inactive)
REMARK    1  A    between atoms: C_2  and  C_4
REMARK    2  A    between atoms: C_7  and  N_8
REMARK    3  A    between atoms: N_8  and  C_9
REMARK    4  A    between atoms: C_9  and  C_10
REMARK    5  A    between atoms: C_14  and  C_15
REMARK                            x       y       z     vdW  Elec       q    Type
REMARK                         _______ _______ _______ _____ _____    ______ ____
ROOT
ATOM      1  C   UNL     1      44.495   4.275  11.693  0.00  0.00    +0.000 C 
ENDROOT
BRANCH   1   2
ATOM      2  C   UNL     1      44.985   5.696  11.770  0.00  0.00    +0.000 A 
ATOM      3  C   UNL     1      44.159   6.767  11.418  0.00  0.00    +0.000 A 
ATOM      4  C   UNL     1      44.631   8.072  11.522  0.00  0.00    +0.000 A 
ATOM      5  C   UNL     1      45.920   8.317  12.009  0.00  0.00    +0.000 A 
ATOM      6  C   UNL     1      46.759   7.267  12.422  0.00  0.00    +0.000 A 
ATOM      7  C   UNL     1      46.270   5.958  12.269  0.00  0.00    +0.000 A 
BRANCH   6   8
ATOM      8  C   UNL     1      48.057   7.510  13.095  0.00  0.00    +0.000 A 
ATOM      9  C   UNL     1      48.244   7.138  14.441  0.00  0.00    +0.000 A 
ATOM     10  C   UNL     1      49.495   7.228  15.059  0.00  0.00    +0.000 A 
ATOM     11  C   UNL     1      50.597   7.689  14.343  0.00  0.00    +0.000 A 
ATOM     12  C   UNL     1      50.437   8.093  13.022  0.00  0.00    +0.000 A 
ATOM     13  C   UNL     1      49.181   8.013  12.416  0.00  0.00    +0.000 A 
ATOM     14  F   UNL     1      49.087   8.421  11.140  0.00  0.00    +0.000 F 
ENDBRANCH   6   8
ENDBRANCH   1   2
BRANCH   1  15
ATOM     15  N   UNL     1      43.954   4.021  10.368  0.00  0.00    +0.000 N 
ATOM     16  H   UNL     1      43.002   3.664  10.362  0.00  0.00    +0.000 HD
BRANCH  15  20
ATOM     17  C   UNL     1      46.623   2.624   7.424  0.00  0.00    +0.000 A 
ATOM     18  C   UNL     1      46.006   1.711   8.281  0.00  0.00    +0.000 A 
ATOM     19  C   UNL     1      45.094   2.161   9.240  0.00  0.00    +0.000 A 
ATOM     20  C   UNL     1      44.757   3.516   9.352  0.00  0.00    +0.000 A 
ATOM     21  C   UNL     1      45.388   4.416   8.485  0.00  0.00    +0.000 A 
ATOM     22  C   UNL     1      46.316   3.981   7.530  0.00  0.00    +0.000 A 
BRANCH  17  24
ATOM     23  N   UNL     1      47.876   3.016   5.372  0.00  0.00    +0.000 N 
ATOM     24  C   UNL     1      47.646   2.192   6.438  0.00  0.00    +0.000 C 
ATOM     25  O   UNL     1      48.281   1.155   6.581  0.00  0.00    +0.000 OA
ATOM     26  H   UNL     1      48.633   2.751   4.755  0.00  0.00    +0.000 HD
ATOM     27  H   UNL     1      47.560   3.975   5.346  0.00  0.00    +0.000 HD
ENDBRANCH  17  24
ENDBRANCH  15  20
ENDBRANCH   1  15
TORSDOF 5
ENDMDL
MODEL 4
REMARK VINA RESULT:    -7.464      3.867      7.303
REMARK INTER + INTRA:         -10.844
REMARK INTER:                 -10.022
REMARK INTRA:                  -0.823
REMARK UNBOUND:                -1.199
REMARK  Name = 
REMARK  5 active torsions:
REMARK  status: ('A' for Active; 'I' for Inactive)
REMARK    1  A    between atoms: C_2  and  C_4
REMARK    2  A    between atoms: C_7  and  N_8
REMARK    3  A    between atoms: N_8  and  C_9
REMARK    4  A    between atoms: C_9  and  C_10
REMARK    5  A    between atoms: C_14  and  C_15
REMARK                            x       y       z     vdW  Elec       q    Type
REMARK                         _______ _______ _______ _____ _____    ______ ____
ROOT
ATOM      1  C   UNL     1      46.145   7.418  12.087  0.00  0.00    +0.000 C 
ENDROOT
BRANCH   1   2
ATOM      2  C   UNL     1      45.232   6.412  11.438  0.00  0.00    +0.000 A 
ATOM      3  C   UNL     1      43.853   6.435  11.662  0.00  0.00    +0.000 A 
ATOM      4  C   UNL     1      43.031   5.507  11.029  0.00  0.00    +0.000 A 
ATOM      5  C   UNL     1      43.578   4.571  10.145  0.00  0.00    +0.000 A 
ATOM      6  C   UNL     1      44.954   4.553   9.856  0.00  0.00    +0.000 A 
ATOM      7  C   UNL     1      45.764   5.476  10.539  0.00  0.00    +0.000 A 
BRANCH   6   8
ATOM      8  C   UNL     1      45.529   3.685   8.800  0.00  0.00    +0.000 A 
ATOM      9  C   UNL     1      46.304   4.240   7.764  0.00  0.00    +0.000 A 
ATOM     10  C   UNL     1      46.972   3.434   6.836  0.00  0.00    +0.000 A 
ATOM     11  C   UNL     1      46.885   2.048   6.924  0.00  0.00    +0.000 A 
ATOM     12  C   UNL     1      46.102   1.471   7.918  0.00  0.00    +0.000 A 
ATOM     13  C   UNL     1      45.427   2.283   8.832  0.00  0.00    +0.000 A 
ATOM     14  F   UNL     1      44.683   1.669   9.767  0.00  0.00    +0.000 F 
ENDBRANCH   6   8
ENDBRANCH   1   2
BRANCH   1  15
ATOM     15  N   UNL     1      47.420   6.789  12.389  0.00  0.00    +0.000 N 
ATOM     16  H   UNL     1      47.890   6.379  11.586  0.00  0.00    +0.000 HD
BRANCH  15  20
ATOM     17  C   UNL     1      47.859   4.903  16.129  0.00  0.00    +0.000 A 
ATOM     18  C   UNL     1      47.037   4.325  15.160  0.00  0.00    +0.000 A 
ATOM     19  C   UNL     1      46.911   4.925  13.905  0.00  0.00    +0.000 A 
ATOM     20  C   UNL     1      47.613   6.092  13.576  0.00  0.00    +0.000 A 
ATOM     21  C   UNL     1      48.429   6.659  14.563  0.00  0.00    +0.000 A 
ATOM     22  C   UNL     1      48.553   6.076  15.831  0.00  0.00    +0.000 A 
BRANCH  17  24
ATOM     23  N   UNL     1      47.086   4.787  18.437  0.00  0.00    +0.000 N 
ATOM     24  C   UNL     1      47.966   4.332  17.496  0.00  0.00    +0.000 C 
ATOM     25  O   UNL     1      48.789   3.468  17.770  0.00  0.00    +0.000 OA
ATOM     26  H   UNL     1      47.115   4.329  19.338  0.00  0.00    +0.000 HD
ATOM     27  H   UNL     1      46.252   5.305  18.197  0.00  0.00    +0.000 HD
ENDBRANCH  17  24
ENDBRANCH  15  20
ENDBRANCH   1  15
TORSDOF 5
ENDMDL
MODEL 5
REMARK VINA RESULT:    -7.429      3.603      6.802
REMARK INTER + INTRA:         -10.800
REMARK INTER:                 -10.041
REMARK INTRA:                  -0.759
REMARK UNBOUND:                -1.199
REMARK  Name = 
REMARK  5 active torsions:
REMARK  status: ('A' for Active; 'I' for Inactive)
REMARK    1  A    between atoms: C_2  and  C_4
REMARK    2  A    between atoms: C_7  and  N_8
REMARK    3  A    between atoms: N_8  and  C_9
REMARK    4  A    between atoms: C_9  and  C_10
REMARK    5  A    between atoms: C_14  and  C_15
REMARK                            x       y       z     vdW  Elec       q    Type
REMARK                         _______ _______ _______ _____ _____    ______ ____
ROOT
ATOM      1  C   UNL     1      43.988   6.605  11.505  0.00  0.00    +0.000 C 
ENDROOT
BRANCH   1   2
ATOM      2  C   UNL     1      44.075   5.151  11.123  0.00  0.00    +0.000 A 
ATOM      3  C   UNL     1      43.289   4.187  11.760  0.00  0.00    +0.000 A 
ATOM      4  C   UNL     1      43.374   2.853  11.369  0.00  0.00    +0.000 A 
ATOM      5  C   UNL     1      44.220   2.481  10.319  0.00  0.00    +0.000 A 
ATOM      6  C   UNL     1      44.985   3.432   9.622  0.00  0.00    +0.000 A 
ATOM      7  C   UNL     1      44.909   4.764  10.064  0.00  0.00    +0.000 A 
BRANCH   6   8
ATOM      8  C   UNL     1      45.756   3.087   8.404  0.00  0.00    +0.000 A 
ATOM      9  C   UNL     1      46.285   4.101   7.583  0.00  0.00    +0.000 A 
ATOM     10  C   UNL     1      47.131   3.808   6.508  0.00  0.00    +0.000 A 
ATOM     11  C   UNL     1      47.474   2.488   6.229  0.00  0.00    +0.000 A 
ATOM     12  C   UNL     1      46.942   1.462   7.002  0.00  0.00    +0.000 A 
ATOM     13  C   UNL     1      46.087   1.762   8.065  0.00  0.00    +0.000 A 
ATOM     14  F   UNL     1      45.602   0.730   8.775  0.00  0.00    +0.000 F 
ENDBRANCH   6   8
ENDBRANCH   1   2
BRANCH   1  15
ATOM     15  N   UNL     1      44.756   6.833  12.717  0.00  0.00    +0.000 N 
ATOM     16  H   UNL     1      44.229   7.250  13.480  0.00  0.00    +0.000 HD
BRANCH  15  20
ATOM     17  C   UNL     1      48.813   7.885  12.292  0.00  0.00    +0.000 A 
ATOM     18  C   UNL     1      47.827   8.849  12.079  0.00  0.00    +0.000 A 
ATOM     19  C   UNL     1      46.479   8.519  12.250  0.00  0.00    +0.000 A 
ATOM     20  C   UNL     1      46.085   7.239  12.657  0.00  0.00    +0.000 A 
ATOM     21  C   UNL     1      47.088   6.284  12.863  0.00  0.00    +0.000 A 
ATOM     22  C   UNL     1      48.441   6.597  12.681  0.00  0.00    +0.000 A 
BRANCH  17  24
ATOM     23  N   UNL     1      50.997   7.209  11.451  0.00  0.00    +0.000 N 
ATOM     24  C   UNL     1      50.249   8.180  12.057  0.00  0.00    +0.000 C 
ATOM     25  O   UNL     1      50.745   9.256  12.366  0.00  0.00    +0.000 OA
ATOM     26  H   UNL     1      51.951   7.456  11.221  0.00  0.00    +0.000 HD
ATOM     27  H   UNL     1      50.583   6.424  10.969  0.00  0.00    +0.000 HD
ENDBRANCH  17  24
ENDBRANCH  15  20
ENDBRANCH   1  15
TORSDOF 5
ENDMDL
MODEL 6
REMARK VINA RESULT:    -6.905      4.788      7.960
REMARK INTER + INTRA:         -10.122
REMARK INTER:                  -9.364
REMARK INTRA:                  -0.758
REMARK UNBOUND:                -1.199
REMARK  Name = 
REMARK  5 active torsions:
REMARK  status: ('A' for Active; 'I' for Inactive)
REMARK    1  A    between atoms: C_2  and  C_4
REMARK    2  A    between atoms: C_7  and  N_8
REMARK    3  A    between atoms: N_8  and  C_9
REMARK    4  A    between atoms: C_9  and  C_10
REMARK    5  A    between atoms: C_14  and  C_15
REMARK                            x       y       z     vdW  Elec       q    Type
REMARK                         _______ _______ _______ _____ _____    ______ ____
ROOT
ATOM      1  C   UNL     1      46.184   5.505  13.848  0.00  0.00    +0.000 C 
ENDROOT
BRANCH   1   2
ATOM      2  C   UNL     1      45.182   5.158  12.779  0.00  0.00    +0.000 A 
ATOM      3  C   UNL     1      43.833   5.496  12.913  0.00  0.00    +0.000 A 
ATOM      4  C   UNL     1      42.934   5.183  11.897  0.00  0.00    +0.000 A 
ATOM      5  C   UNL     1      43.384   4.559  10.728  0.00  0.00    +0.000 A 
ATOM      6  C   UNL     1      44.743   4.252  10.537  0.00  0.00    +0.000 A 
ATOM      7  C   UNL     1      45.620   4.545  11.595  0.00  0.00    +0.000 A 
BRANCH   6   8
ATOM      8  C   UNL     1      45.266   3.749   9.245  0.00  0.00    +0.000 A 
ATOM      9  C   UNL     1      45.990   4.599   8.387  0.00  0.00    +0.000 A 
ATOM     10  C   UNL     1      46.612   4.117   7.231  0.00  0.00    +0.000 A 
ATOM     11  C   UNL     1      46.529   2.766   6.904  0.00  0.00    +0.000 A 
ATOM     12  C   UNL     1      45.794   1.908   7.714  0.00  0.00    +0.000 A 
ATOM     13  C   UNL     1      45.164   2.399   8.860  0.00  0.00    +0.000 A 
ATOM     14  F   UNL     1      44.466   1.524   9.602  0.00  0.00    +0.000 F 
ENDBRANCH   6   8
ENDBRANCH   1   2
BRANCH   1  15
ATOM     15  N   UNL     1      46.256   4.421  14.813  0.00  0.00    +0.000 N 
ATOM     16  H   UNL     1      45.356   4.114  15.172  0.00  0.00    +0.000 HD
BRANCH  15  20
ATOM     17  C   UNL     1      49.247   4.441  17.779  0.00  0.00    +0.000 A 
ATOM     18  C   UNL     1      48.426   3.321  17.638  0.00  0.00    +0.000 A 
ATOM     19  C   UNL     1      47.452   3.291  16.636  0.00  0.00    +0.000 A 
ATOM     20  C   UNL     1      47.290   4.356  15.740  0.00  0.00    +0.000 A 
ATOM     21  C   UNL     1      48.121   5.472  15.899  0.00  0.00    +0.000 A 
ATOM     22  C   UNL     1      49.090   5.521  16.910  0.00  0.00    +0.000 A 
BRANCH  17  24
ATOM     23  N   UNL     1      49.808   4.297  20.145  0.00  0.00    +0.000 N 
ATOM     24  C   UNL     1      50.246   4.537  18.874  0.00  0.00    +0.000 C 
ATOM     25  O   UNL     1      51.423   4.794  18.651  0.00  0.00    +0.000 OA
ATOM     26  H   UNL     1      50.515   4.284  20.868  0.00  0.00    +0.000 HD
ATOM     27  H   UNL     1      48.923   3.852  20.342  0.00  0.00    +0.000 HD
ENDBRANCH  17  24
ENDBRANCH  15  20
ENDBRANCH   1  15
TORSDOF 5
ENDMDL
MODEL 7
REMARK VINA RESULT:    -6.828      3.461      6.674
REMARK INTER + INTRA:         -10.023
REMARK INTER:                  -8.878
REMARK INTRA:                  -1.145
REMARK UNBOUND:                -1.199
REMARK  Name = 
REMARK  5 active torsions:
REMARK  status: ('A' for Active; 'I' for Inactive)
REMARK    1  A    between atoms: C_2  and  C_4
REMARK    2  A    between atoms: C_7  and  N_8
REMARK    3  A    between atoms: N_8  and  C_9
REMARK    4  A    between atoms: C_9  and  C_10
REMARK    5  A    between atoms: C_14  and  C_15
REMARK                            x       y       z     vdW  Elec       q    Type
REMARK                         _______ _______ _______ _____ _____    ______ ____
ROOT
ATOM      1  C   UNL     1      45.855   4.623  13.882  0.00  0.00    +0.000 C 
ENDROOT
BRANCH   1   2
ATOM      2  C   UNL     1      45.026   4.351  12.655  0.00  0.00    +0.000 A 
ATOM      3  C   UNL     1      43.673   4.694  12.605  0.00  0.00    +0.000 A 
ATOM      4  C   UNL     1      42.937   4.452  11.448  0.00  0.00    +0.000 A 
ATOM      5  C   UNL     1      43.558   3.896  10.324  0.00  0.00    +0.000 A 
ATOM      6  C   UNL     1      44.930   3.587  10.322  0.00  0.00    +0.000 A 
ATOM      7  C   UNL     1      45.637   3.806  11.516  0.00  0.00    +0.000 A 
BRANCH   6   8
ATOM      8  C   UNL     1      45.641   3.157   9.095  0.00  0.00    +0.000 A 
ATOM      9  C   UNL     1      45.753   1.789   8.777  0.00  0.00    +0.000 A 
ATOM     10  C   UNL     1      46.295   1.362   7.561  0.00  0.00    +0.000 A 
ATOM     11  C   UNL     1      46.737   2.294   6.626  0.00  0.00    +0.000 A 
ATOM     12  C   UNL     1      46.669   3.650   6.925  0.00  0.00    +0.000 A 
ATOM     13  C   UNL     1      46.139   4.069   8.147  0.00  0.00    +0.000 A 
ATOM     14  F   UNL     1      46.102   5.391   8.381  0.00  0.00    +0.000 F 
ENDBRANCH   6   8
ENDBRANCH   1   2
BRANCH   1  15
ATOM     15  N   UNL     1      46.188   6.036  13.937  0.00  0.00    +0.000 N 
ATOM     16  H   UNL     1      45.394   6.663  13.834  0.00  0.00    +0.000 HD
BRANCH  15  20
ATOM     17  C   UNL     1      49.621   7.761  12.212  0.00  0.00    +0.000 A 
ATOM     18  C   UNL     1      49.650   7.363  13.549  0.00  0.00    +0.000 A 
ATOM     19  C   UNL     1      48.528   6.760  14.122  0.00  0.00    +0.000 A 
ATOM     20  C   UNL     1      47.366   6.517  13.378  0.00  0.00    +0.000 A 
ATOM     21  C   UNL     1      47.355   6.926  12.038  0.00  0.00    +0.000 A 
ATOM     22  C   UNL     1      48.468   7.546  11.456  0.00  0.00    +0.000 A 
BRANCH  17  24
ATOM     23  N   UNL     1      51.921   7.751  11.410  0.00  0.00    +0.000 N 
ATOM     24  C   UNL     1      50.770   8.466  11.587  0.00  0.00    +0.000 C 
ATOM     25  O   UNL     1      50.689   9.631  11.220  0.00  0.00    +0.000 OA
ATOM     26  H   UNL     1      52.666   8.218  10.908  0.00  0.00    +0.000 HD
ATOM     27  H   UNL     1      51.952   6.744  11.471  0.00  0.00    +0.000 HD
ENDBRANCH  17  24
ENDBRANCH  15  20
ENDBRANCH   1  15
TORSDOF 5
ENDMDL
MODEL 8
REMARK VINA RESULT:    -6.788      4.023      7.301
REMARK INTER + INTRA:          -9.971
REMARK INTER:                  -9.346
REMARK INTRA:                  -0.625
REMARK UNBOUND:                -1.199
REMARK  Name = 
REMARK  5 active torsions:
REMARK  status: ('A' for Active; 'I' for Inactive)
REMARK    1  A    between atoms: C_2  and  C_4
REMARK    2  A    between atoms: C_7  and  N_8
REMARK    3  A    between atoms: N_8  and  C_9
REMARK    4  A    between atoms: C_9  and  C_10
REMARK    5  A    between atoms: C_14  and  C_15
REMARK                            x       y       z     vdW  Elec       q    Type
REMARK                         _______ _______ _______ _____ _____    ______ ____
ROOT
ATOM      1  C   UNL     1      48.648   7.675  12.789  0.00  0.00    +0.000 C 
ENDROOT
BRANCH   1   2
ATOM      2  C   UNL     1      47.234   7.563  12.285  0.00  0.00    +0.000 A 
ATOM      3  C   UNL     1      46.333   8.623  12.415  0.00  0.00    +0.000 A 
ATOM      4  C   UNL     1      45.039   8.500  11.919  0.00  0.00    +0.000 A 
ATOM      5  C   UNL     1      44.647   7.329  11.260  0.00  0.00    +0.000 A 
ATOM      6  C   UNL     1      45.543   6.263  11.065  0.00  0.00    +0.000 A 
ATOM      7  C   UNL     1      46.830   6.401  11.612  0.00  0.00    +0.000 A 
BRANCH   6   8
ATOM      8  C   UNL     1      45.203   5.088  10.229  0.00  0.00    +0.000 A 
ATOM      9  C   UNL     1      45.723   4.965   8.926  0.00  0.00    +0.000 A 
ATOM     10  C   UNL     1      45.532   3.805   8.167  0.00  0.00    +0.000 A 
ATOM     11  C   UNL     1      44.819   2.733   8.696  0.00  0.00    +0.000 A 
ATOM     12  C   UNL     1      44.268   2.837   9.968  0.00  0.00    +0.000 A 
ATOM     13  C   UNL     1      44.450   4.003  10.714  0.00  0.00    +0.000 A 
ATOM     14  F   UNL     1      43.891   4.047  11.934  0.00  0.00    +0.000 F 
ENDBRANCH   6   8
ENDBRANCH   1   2
BRANCH   1  15
ATOM     15  N   UNL     1      48.642   7.724  14.241  0.00  0.00    +0.000 N 
ATOM     16  H   UNL     1      49.294   8.392  14.645  0.00  0.00    +0.000 HD
BRANCH  15  20
ATOM     17  C   UNL     1      47.978   4.392  16.731  0.00  0.00    +0.000 A 
ATOM     18  C   UNL     1      47.367   4.446  15.478  0.00  0.00    +0.000 A 
ATOM     19  C   UNL     1      47.606   5.531  14.630  0.00  0.00    +0.000 A 
ATOM     20  C   UNL     1      48.473   6.569  14.996  0.00  0.00    +0.000 A 
ATOM     21  C   UNL     1      49.075   6.498  16.259  0.00  0.00    +0.000 A 
ATOM     22  C   UNL     1      48.831   5.424  17.124  0.00  0.00    +0.000 A 
BRANCH  17  24
ATOM     23  N   UNL     1      48.650   3.011  18.621  0.00  0.00    +0.000 N 
ATOM     24  C   UNL     1      47.695   3.289  17.685  0.00  0.00    +0.000 C 
ATOM     25  O   UNL     1      46.641   2.667  17.656  0.00  0.00    +0.000 OA
ATOM     26  H   UNL     1      48.409   2.315  19.315  0.00  0.00    +0.000 HD
ATOM     27  H   UNL     1      49.408   3.644  18.832  0.00  0.00    +0.000 HD
ENDBRANCH  17  24
ENDBRANCH  15  20
ENDBRANCH   1  15
TORSDOF 5
ENDMDL
MODEL 9
REMARK VINA RESULT:    -6.479      4.889      7.980
REMARK INTER + INTRA:          -9.572
REMARK INTER:                  -8.799
REMARK INTRA:                  -0.773
REMARK UNBOUND:                -1.199
REMARK  Name = 
REMARK  5 active torsions:
REMARK  status: ('A' for Active; 'I' for Inactive)
REMARK    1  A    between atoms: C_2  and  C_4
REMARK    2  A    between atoms: C_7  and  N_8
REMARK    3  A    between atoms: N_8  and  C_9
REMARK    4  A    between atoms: C_9  and  C_10
REMARK    5  A    between atoms: C_14  and  C_15
REMARK                            x       y       z     vdW  Elec       q    Type
REMARK                         _______ _______ _______ _____ _____    ______ ____
ROOT
ATOM      1  C   UNL     1      48.426   7.149  13.837  0.00  0.00    +0.000 C 
ENDROOT
BRANCH   1   2
ATOM      2  C   UNL     1      47.154   7.267  13.043  0.00  0.00    +0.000 A 
ATOM      3  C   UNL     1      46.438   8.466  12.996  0.00  0.00    +0.000 A 
ATOM      4  C   UNL     1      45.276   8.552  12.233  0.00  0.00    +0.000 A 
ATOM      5  C   UNL     1      44.842   7.451  11.487  0.00  0.00    +0.000 A 
ATOM      6  C   UNL     1      45.566   6.246  11.469  0.00  0.00    +0.000 A 
ATOM      7  C   UNL     1      46.712   6.176  12.279  0.00  0.00    +0.000 A 
BRANCH   6   8
ATOM      8  C   UNL     1      45.219   5.128  10.559  0.00  0.00    +0.000 A 
ATOM      9  C   UNL     1      45.655   5.136   9.220  0.00  0.00    +0.000 A 
ATOM     10  C   UNL     1      45.461   4.034   8.381  0.00  0.00    +0.000 A 
ATOM     11  C   UNL     1      44.829   2.892   8.861  0.00  0.00    +0.000 A 
ATOM     12  C   UNL     1      44.359   2.866  10.170  0.00  0.00    +0.000 A 
ATOM     13  C   UNL     1      44.543   3.975  10.998  0.00  0.00    +0.000 A 
ATOM     14  F   UNL     1      44.065   3.894  12.251  0.00  0.00    +0.000 F 
ENDBRANCH   6   8
ENDBRANCH   1   2
BRANCH   1  15
ATOM     15  N   UNL     1      48.104   6.944  15.240  0.00  0.00    +0.000 N 
ATOM     16  H   UNL     1      47.633   7.729  15.684  0.00  0.00    +0.000 HD
BRANCH  15  20
ATOM     17  C   UNL     1      50.721   4.620  17.582  0.00  0.00    +0.000 A 
ATOM     18  C   UNL     1      51.181   5.809  17.013  0.00  0.00    +0.000 A 
ATOM     19  C   UNL     1      50.311   6.604  16.261  0.00  0.00    +0.000 A 
ATOM     20  C   UNL     1      48.968   6.251  16.080  0.00  0.00    +0.000 A 
ATOM     21  C   UNL     1      48.527   5.053  16.656  0.00  0.00    +0.000 A 
ATOM     22  C   UNL     1      49.392   4.239  17.398  0.00  0.00    +0.000 A 
BRANCH  17  24
ATOM     23  N   UNL     1      51.878   4.018  19.639  0.00  0.00    +0.000 N 
ATOM     24  C   UNL     1      51.633   3.716  18.330  0.00  0.00    +0.000 C 
ATOM     25  O   UNL     1      52.127   2.724  17.808  0.00  0.00    +0.000 OA
ATOM     26  H   UNL     1      52.432   3.349  20.158  0.00  0.00    +0.000 HD
ATOM     27  H   UNL     1      51.312   4.669  20.164  0.00  0.00    +0.000 HD
ENDBRANCH  17  24
ENDBRANCH  15  20
ENDBRANCH   1  15
TORSDOF 5
ENDMDL
