MODEL 1
REMARK VINA RESULT:    -8.508      0.000      0.000
REMARK INTER + INTRA:         -10.806
REMARK INTER:                 -10.498
REMARK INTRA:                  -0.308
REMARK UNBOUND:                -0.308
REMARK  Name = 
REMARK  5 active torsions:
REMARK  status: ('A' for Active; 'I' for Inactive)
REMARK    1  A    between atoms: C_1  and  C_2
REMARK    2  A    between atoms: C_4  and  O_5
REMARK    3  A    between atoms: O_5  and  C_6
REMARK    4  A    between atoms: C_6  and  C_7
REMARK    5  A    between atoms: C_17  and  C_18
REMARK                            x       y       z     vdW  Elec       q    Type
REMARK                         _______ _______ _______ _____ _____    ______ ____
ROOT
ATOM      1  C   UNL     1      46.761   0.305   7.649  0.00  0.00    +0.000 C 
ATOM      2  C   UNL     1      46.158   1.642   7.983  0.00  0.00    +0.000 A 
ATOM      3  C   UNL     1      45.266   1.713   9.068  0.00  0.00    +0.000 A 
ATOM      4  C   UNL     1      44.619   2.906   9.384  0.00  0.00    +0.000 A 
ATOM      5  C   UNL     1      44.908   4.064   8.670  0.00  0.00    +0.000 A 
ATOM      6  C   UNL     1      45.807   4.020   7.601  0.00  0.00    +0.000 A 
ATOM      7  C   UNL     1      46.434   2.812   7.245  0.00  0.00    +0.000 A 
ENDROOT
BRANCH   7   8
ATOM      8  C   UNL     1      47.349   2.784   6.059  0.00  0.00    +0.000 C 
ATOM      9  N   UNL     1      48.687   2.652   6.303  0.00  0.00    +0.000 N 
ATOM     10  O   UNL     1      46.940   2.863   4.911  0.00  0.00    +0.000 OA
ATOM     11  H   UNL     1      49.065   2.383   7.201  0.00  0.00    +0.000 HD
ATOM     12  H   UNL     1      49.279   2.549   5.490  0.00  0.00    +0.000 HD
ENDBRANCH   7   8
BRANCH   4  13
ATOM     13  O   UNL     1      43.723   3.010  10.411  0.00  0.00    +0.000 OA
BRANCH  13  14
ATOM     14  C   UNL     1      43.640   4.323  10.985  0.00  0.00    +0.000 C 
BRANCH  14  15
ATOM     15  C   UNL     1      44.879   4.699  11.772  0.00  0.00    +0.000 A 
ATOM     16  C   UNL     1      45.358   6.020  11.804  0.00  0.00    +0.000 A 
ATOM     17  C   UNL     1      46.392   6.382  12.674  0.00  0.00    +0.000 A 
ATOM     18  C   UNL     1      46.953   5.425  13.511  0.00  0.00    +0.000 A 
ATOM     19  F   UNL     1      47.904   5.789  14.382  0.00  0.00    +0.000 F 
ATOM     20  C   UNL     1      46.517   4.109  13.460  0.00  0.00    +0.000 A 
ATOM     21  F   UNL     1      47.059   3.185  14.268  0.00  0.00    +0.000 F 
ATOM     22  C   UNL     1      45.488   3.739  12.597  0.00  0.00    +0.000 A 
ENDBRANCH  14  15
ENDBRANCH  13  14
ENDBRANCH   4  13
TORSDOF 4
ENDMDL
MODEL 2
REMARK VINA RESULT:    -8.245      3.799      6.325
REMARK INTER + INTRA:         -10.481
REMARK INTER:                  -9.916
REMARK INTRA:                  -0.565
REMARK UNBOUND:                -0.308
REMARK  Name = 
REMARK  5 active torsions:
REMARK  status: ('A' for Active; 'I' for Inactive)
REMARK    1  A    between atoms: C_1  and  C_2
REMARK    2  A    between atoms: C_4  and  O_5
REMARK    3  A    between atoms: O_5  and  C_6
REMARK    4  A    between atoms: C_6  and  C_7
REMARK    5  A    between atoms: C_17  and  C_18
REMARK                            x       y       z     vdW  Elec       q    Type
REMARK                         _______ _______ _______ _____ _____    ______ ____
ROOT
ATOM      1  C   UNL     1      46.729   4.185  14.413  0.00  0.00    +0.000 C 
ATOM      2  C   UNL     1      46.336   4.975  13.194  0.00  0.00    +0.000 A 
ATOM      3  C   UNL     1      45.371   4.424  12.331  0.00  0.00    +0.000 A 
ATOM      4  C   UNL     1      45.018   5.071  11.149  0.00  0.00    +0.000 A 
ATOM      5  C   UNL     1      45.565   6.313  10.845  0.00  0.00    +0.000 A 
ATOM      6  C   UNL     1      46.510   6.887  11.699  0.00  0.00    +0.000 A 
ATOM      7  C   UNL     1      46.908   6.224  12.873  0.00  0.00    +0.000 A 
ENDROOT
BRANCH   7   8
ATOM      8  C   UNL     1      47.965   6.839  13.740  0.00  0.00    +0.000 C 
ATOM      9  N   UNL     1      47.585   7.860  14.564  0.00  0.00    +0.000 N 
ATOM     10  O   UNL     1      49.123   6.452  13.737  0.00  0.00    +0.000 OA
ATOM     11  H   UNL     1      46.619   8.087  14.758  0.00  0.00    +0.000 HD
ATOM     12  H   UNL     1      48.290   8.203  15.200  0.00  0.00    +0.000 HD
ENDBRANCH   7   8
BRANCH   4  13
ATOM     13  O   UNL     1      44.107   4.555  10.269  0.00  0.00    +0.000 OA
BRANCH  13  14
ATOM     14  C   UNL     1      44.273   3.154  10.009  0.00  0.00    +0.000 C 
BRANCH  14  15
ATOM     15  C   UNL     1      45.191   2.879   8.835  0.00  0.00    +0.000 A 
ATOM     16  C   UNL     1      45.666   3.915   8.013  0.00  0.00    +0.000 A 
ATOM     17  C   UNL     1      46.649   3.667   7.050  0.00  0.00    +0.000 A 
ATOM     18  C   UNL     1      47.158   2.382   6.902  0.00  0.00    +0.000 A 
ATOM     19  F   UNL     1      48.140   2.162   6.016  0.00  0.00    +0.000 F 
ATOM     20  C   UNL     1      46.669   1.342   7.678  0.00  0.00    +0.000 A 
ATOM     21  F   UNL     1      47.160   0.103   7.534  0.00  0.00    +0.000 F 
ATOM     22  C   UNL     1      45.689   1.580   8.640  0.00  0.00    +0.000 A 
ENDBRANCH  14  15
ENDBRANCH  13  14
ENDBRANCH   4  13
TORSDOF 4
ENDMDL
MODEL 3
REMARK VINA RESULT:    -8.104      3.732      6.348
REMARK INTER + INTRA:         -10.308
REMARK INTER:                  -9.740
REMARK INTRA:                  -0.568
REMARK UNBOUND:                -0.308
REMARK  Name = 
REMARK  5 active torsions:
REMARK  status: ('A' for Active; 'I' for Inactive)
REMARK    1  A    between atoms: C_1  and  C_2
REMARK    2  A    between atoms: C_4  and  O_5
REMARK    3  A    between atoms: O_5  and  C_6
REMARK    4  A    between atoms: C_6  and  C_7
REMARK    5  A    between atoms: C_17  and  C_18
REMARK                            x       y       z     vdW  Elec       q    Type
REMARK                         _______ _______ _______ _____ _____    ______ ____
ROOT
ATOM      1  C   UNL     1      46.501   7.501  11.935  0.00  0.00    +0.000 C 
ATOM      2  C   UNL     1      46.364   6.039  12.262  0.00  0.00    +0.000 A 
ATOM      3  C   UNL     1      45.432   5.282  11.530  0.00  0.00    +0.000 A 
ATOM      4  C   UNL     1      45.205   3.941  11.834  0.00  0.00    +0.000 A 
ATOM      5  C   UNL     1      45.957   3.314  12.822  0.00  0.00    +0.000 A 
ATOM      6  C   UNL     1      46.903   4.044  13.547  0.00  0.00    +0.000 A 
ATOM      7  C   UNL     1      47.110   5.409  13.280  0.00  0.00    +0.000 A 
ENDROOT
BRANCH   7   8
ATOM      8  C   UNL     1      48.090   6.178  14.112  0.00  0.00    +0.000 C 
ATOM      9  N   UNL     1      47.838   6.272  15.452  0.00  0.00    +0.000 N 
ATOM     10  O   UNL     1      49.089   6.699  13.639  0.00  0.00    +0.000 OA
ATOM     11  H   UNL     1      47.152   5.704  15.929  0.00  0.00    +0.000 HD
ATOM     12  H   UNL     1      48.553   6.720  16.009  0.00  0.00    +0.000 HD
ENDBRANCH   7   8
BRANCH   4  13
ATOM     13  O   UNL     1      44.288   3.178  11.166  0.00  0.00    +0.000 OA
BRANCH  13  14
ATOM     14  C   UNL     1      44.009   3.629   9.833  0.00  0.00    +0.000 C 
BRANCH  14  15
ATOM     15  C   UNL     1      45.029   3.142   8.823  0.00  0.00    +0.000 A 
ATOM     16  C   UNL     1      45.740   4.036   8.004  0.00  0.00    +0.000 A 
ATOM     17  C   UNL     1      46.799   3.586   7.209  0.00  0.00    +0.000 A 
ATOM     18  C   UNL     1      47.148   2.241   7.225  0.00  0.00    +0.000 A 
ATOM     19  F   UNL     1      48.199   1.825   6.505  0.00  0.00    +0.000 F 
ATOM     20  C   UNL     1      46.428   1.341   7.997  0.00  0.00    +0.000 A 
ATOM     21  F   UNL     1      46.764   0.043   8.013  0.00  0.00    +0.000 F 
ATOM     22  C   UNL     1      45.371   1.780   8.793  0.00  0.00    +0.000 A 
ENDBRANCH  14  15
ENDBRANCH  13  14
ENDBRANCH   4  13
TORSDOF 4
ENDMDL
MODEL 4
REMARK VINA RESULT:    -6.957      1.264      1.896
REMARK INTER + INTRA:          -8.892
REMARK INTER:                  -8.331
REMARK INTRA:                  -0.561
REMARK UNBOUND:                -0.308
REMARK  Name = 
REMARK  5 active torsions:
REMARK  status: ('A' for Active; 'I' for Inactive)
REMARK    1  A    between atoms: C_1  and  C_2
REMARK    2  A    between atoms: C_4  and  O_5
REMARK    3  A    between atoms: O_5  and  C_6
REMARK    4  A    between atoms: C_6  and  C_7
REMARK    5  A    between atoms: C_17  and  C_18
REMARK                            x       y       z     vdW  Elec       q    Type
REMARK                         _______ _______ _______ _____ _____    ______ ____
ROOT
ATOM      1  C   UNL     1      45.947   0.735   8.060  0.00  0.00    +0.000 C 
ATOM      2  C   UNL     1      45.905   2.220   8.299  0.00  0.00    +0.000 A 
ATOM      3  C   UNL     1      45.039   2.705   9.296  0.00  0.00    +0.000 A 
ATOM      4  C   UNL     1      44.900   4.073   9.516  0.00  0.00    +0.000 A 
ATOM      5  C   UNL     1      45.677   4.977   8.798  0.00  0.00    +0.000 A 
ATOM      6  C   UNL     1      46.558   4.514   7.817  0.00  0.00    +0.000 A 
ATOM      7  C   UNL     1      46.676   3.137   7.555  0.00  0.00    +0.000 A 
ENDROOT
BRANCH   7   8
ATOM      8  C   UNL     1      47.587   2.676   6.459  0.00  0.00    +0.000 C 
ATOM      9  N   UNL     1      47.181   2.893   5.172  0.00  0.00    +0.000 N 
ATOM     10  O   UNL     1      48.660   2.136   6.680  0.00  0.00    +0.000 OA
ATOM     11  H   UNL     1      46.414   3.505   4.928  0.00  0.00    +0.000 HD
ATOM     12  H   UNL     1      47.846   2.653   4.450  0.00  0.00    +0.000 HD
ENDBRANCH   7   8
BRANCH   4  13
ATOM     13  O   UNL     1      44.048   4.587  10.455  0.00  0.00    +0.000 OA
BRANCH  13  14
ATOM     14  C   UNL     1      44.450   5.863  10.974  0.00  0.00    +0.000 C 
BRANCH  14  15
ATOM     15  C   UNL     1      45.329   5.746  12.203  0.00  0.00    +0.000 A 
ATOM     16  C   UNL     1      45.343   4.582  12.991  0.00  0.00    +0.000 A 
ATOM     17  C   UNL     1      46.286   4.424  14.012  0.00  0.00    +0.000 A 
ATOM     18  C   UNL     1      47.214   5.430  14.253  0.00  0.00    +0.000 A 
ATOM     19  F   UNL     1      48.150   5.250  15.195  0.00  0.00    +0.000 F 
ATOM     20  C   UNL     1      47.184   6.602  13.511  0.00  0.00    +0.000 A 
ATOM     21  F   UNL     1      48.079   7.573  13.744  0.00  0.00    +0.000 F 
ATOM     22  C   UNL     1      46.249   6.768  12.491  0.00  0.00    +0.000 A 
ENDBRANCH  14  15
ENDBRANCH  13  14
ENDBRANCH   4  13
TORSDOF 4
ENDMDL
MODEL 5
REMARK VINA RESULT:    -6.427      4.312      6.924
REMARK INTER + INTRA:          -8.238
REMARK INTER:                  -7.612
REMARK INTRA:                  -0.626
REMARK UNBOUND:                -0.308
REMARK  Name = 
REMARK  5 active torsions:
REMARK  status: ('A' for Active; 'I' for Inactive)
REMARK    1  A    between atoms: C_1  and  C_2
REMARK    2  A    between atoms: C_4  and  O_5
REMARK    3  A    between atoms: O_5  and  C_6
REMARK    4  A    between atoms: C_6  and  C_7
REMARK    5  A    between atoms: C_17  and  C_18
REMARK                            x       y       z     vdW  Elec       q    Type
REMARK                         _______ _______ _______ _____ _____    ______ ____
ROOT
ATOM      1  C   UNL     1      45.817   9.750  11.921  0.00  0.00    +0.000 C 
ATOM      2  C   UNL     1      46.522   8.479  12.308  0.00  0.00    +0.000 A 
ATOM      3  C   UNL     1      45.845   7.261  12.113  0.00  0.00    +0.000 A 
ATOM      4  C   UNL     1      46.414   6.055  12.518  0.00  0.00    +0.000 A 
ATOM      5  C   UNL     1      47.697   6.036  13.054  0.00  0.00    +0.000 A 
ATOM      6  C   UNL     1      48.395   7.233  13.237  0.00  0.00    +0.000 A 
ATOM      7  C   UNL     1      47.815   8.461  12.873  0.00  0.00    +0.000 A 
ENDROOT
BRANCH   7   8
ATOM      8  C   UNL     1      48.565   9.731  13.133  0.00  0.00    +0.000 C 
ATOM      9  N   UNL     1      48.439  10.292  14.372  0.00  0.00    +0.000 N 
ATOM     10  O   UNL     1      49.277  10.258  12.292  0.00  0.00    +0.000 OA
ATOM     11  H   UNL     1      48.035   9.808  15.162  0.00  0.00    +0.000 HD
ATOM     12  H   UNL     1      49.018  11.099  14.556  0.00  0.00    +0.000 HD
ENDBRANCH   7   8
BRANCH   4  13
ATOM     13  O   UNL     1      45.777   4.854  12.374  0.00  0.00    +0.000 OA
BRANCH  13  14
ATOM     14  C   UNL     1      44.673   4.882  11.458  0.00  0.00    +0.000 C 
BRANCH  14  15
ATOM     15  C   UNL     1      44.998   4.231  10.128  0.00  0.00    +0.000 A 
ATOM     16  C   UNL     1      45.588   4.955   9.078  0.00  0.00    +0.000 A 
ATOM     17  C   UNL     1      46.041   4.301   7.928  0.00  0.00    +0.000 A 
ATOM     18  C   UNL     1      45.903   2.922   7.821  0.00  0.00    +0.000 A 
ATOM     19  F   UNL     1      46.391   2.294   6.742  0.00  0.00    +0.000 F 
ATOM     20  C   UNL     1      45.286   2.201   8.833  0.00  0.00    +0.000 A 
ATOM     21  F   UNL     1      45.152   0.871   8.729  0.00  0.00    +0.000 F 
ATOM     22  C   UNL     1      44.830   2.844   9.982  0.00  0.00    +0.000 A 
ENDBRANCH  14  15
ENDBRANCH  13  14
ENDBRANCH   4  13
TORSDOF 4
ENDMDL
MODEL 6
REMARK VINA RESULT:    -6.204      4.246      6.156
REMARK INTER + INTRA:          -7.964
REMARK INTER:                  -7.497
REMARK INTRA:                  -0.467
REMARK UNBOUND:                -0.308
REMARK  Name = 
REMARK  5 active torsions:
REMARK  status: ('A' for Active; 'I' for Inactive)
REMARK    1  A    between atoms: C_1  and  C_2
REMARK    2  A    between atoms: C_4  and  O_5
REMARK    3  A    between atoms: O_5  and  C_6
REMARK    4  A    between atoms: C_6  and  C_7
REMARK    5  A    between atoms: C_17  and  C_18
REMARK                            x       y       z     vdW  Elec       q    Type
REMARK                         _______ _______ _______ _____ _____    ______ ____
ROOT
ATOM      1  C   UNL     1      44.710   7.733  11.390  0.00  0.00    +0.000 C 
ATOM      2  C   UNL     1      45.283   6.493  12.019  0.00  0.00    +0.000 A 
ATOM      3  C   UNL     1      46.491   6.610  12.730  0.00  0.00    +0.000 A 
ATOM      4  C   UNL     1      47.111   5.487  13.274  0.00  0.00    +0.000 A 
ATOM      5  C   UNL     1      46.499   4.241  13.182  0.00  0.00    +0.000 A 
ATOM      6  C   UNL     1      45.288   4.107  12.498  0.00  0.00    +0.000 A 
ATOM      7  C   UNL     1      44.674   5.225  11.907  0.00  0.00    +0.000 A 
ENDROOT
BRANCH   7   8
ATOM      8  C   UNL     1      43.406   5.040  11.131  0.00  0.00    +0.000 C 
ATOM      9  N   UNL     1      42.228   5.196  11.807  0.00  0.00    +0.000 N 
ATOM     10  O   UNL     1      43.397   4.771   9.940  0.00  0.00    +0.000 OA
ATOM     11  H   UNL     1      42.167   5.610  12.727  0.00  0.00    +0.000 HD
ATOM     12  H   UNL     1      41.387   5.152  11.250  0.00  0.00    +0.000 HD
ENDBRANCH   7   8
BRANCH   4  13
ATOM     13  O   UNL     1      48.300   5.553  13.946  0.00  0.00    +0.000 OA
BRANCH  13  14
ATOM     14  C   UNL     1      48.229   6.260  15.192  0.00  0.00    +0.000 C 
BRANCH  14  15
ATOM     15  C   UNL     1      48.419   5.355  16.393  0.00  0.00    +0.000 A 
ATOM     16  C   UNL     1      49.261   5.713  17.460  0.00  0.00    +0.000 A 
ATOM     17  C   UNL     1      49.286   4.954  18.634  0.00  0.00    +0.000 A 
ATOM     18  C   UNL     1      48.473   3.832  18.745  0.00  0.00    +0.000 A 
ATOM     19  F   UNL     1      48.459   3.141  19.894  0.00  0.00    +0.000 F 
ATOM     20  C   UNL     1      47.667   3.444  17.684  0.00  0.00    +0.000 A 
ATOM     21  F   UNL     1      46.884   2.361  17.791  0.00  0.00    +0.000 F 
ATOM     22  C   UNL     1      47.637   4.195  16.511  0.00  0.00    +0.000 A 
ENDBRANCH  14  15
ENDBRANCH  13  14
ENDBRANCH   4  13
TORSDOF 4
ENDMDL
MODEL 7
REMARK VINA RESULT:    -6.182      4.119      6.711
REMARK INTER + INTRA:          -7.936
REMARK INTER:                  -7.190
REMARK INTRA:                  -0.746
REMARK UNBOUND:                -0.308
REMARK  Name = 
REMARK  5 active torsions:
REMARK  status: ('A' for Active; 'I' for Inactive)
REMARK    1  A    between atoms: C_1  and  C_2
REMARK    2  A    between atoms: C_4  and  O_5
REMARK    3  A    between atoms: O_5  and  C_6
REMARK    4  A    between atoms: C_6  and  C_7
REMARK    5  A    between atoms: C_17  and  C_18
REMARK                            x       y       z     vdW  Elec       q    Type
REMARK                         _______ _______ _______ _____ _____    ______ ____
ROOT
ATOM      1  C   UNL     1      48.543  10.005  11.508  0.00  0.00    +0.000 C 
ATOM      2  C   UNL     1      48.192   8.662  12.087  0.00  0.00    +0.000 A 
ATOM      3  C   UNL     1      46.838   8.282  12.105  0.00  0.00    +0.000 A 
ATOM      4  C   UNL     1      46.440   7.084  12.694  0.00  0.00    +0.000 A 
ATOM      5  C   UNL     1      47.394   6.210  13.207  0.00  0.00    +0.000 A 
ATOM      6  C   UNL     1      48.746   6.559  13.180  0.00  0.00    +0.000 A 
ATOM      7  C   UNL     1      49.157   7.786  12.628  0.00  0.00    +0.000 A 
ENDROOT
BRANCH   7   8
ATOM      8  C   UNL     1      50.608   8.157  12.665  0.00  0.00    +0.000 C 
ATOM      9  N   UNL     1      51.385   7.759  11.613  0.00  0.00    +0.000 N 
ATOM     10  O   UNL     1      51.099   8.798  13.581  0.00  0.00    +0.000 OA
ATOM     11  H   UNL     1      51.005   7.409  10.744  0.00  0.00    +0.000 HD
ATOM     12  H   UNL     1      52.339   8.092  11.615  0.00  0.00    +0.000 HD
ENDBRANCH   7   8
BRANCH   4  13
ATOM     13  O   UNL     1      45.132   6.691  12.759  0.00  0.00    +0.000 OA
BRANCH  13  14
ATOM     14  C   UNL     1      44.489   6.584  11.480  0.00  0.00    +0.000 C 
BRANCH  14  15
ATOM     15  C   UNL     1      44.670   5.220  10.845  0.00  0.00    +0.000 A 
ATOM     16  C   UNL     1      44.102   4.064  11.408  0.00  0.00    +0.000 A 
ATOM     17  C   UNL     1      44.128   2.848  10.717  0.00  0.00    +0.000 A 
ATOM     18  C   UNL     1      44.724   2.782   9.463  0.00  0.00    +0.000 A 
ATOM     19  F   UNL     1      44.696   1.628   8.782  0.00  0.00    +0.000 F 
ATOM     20  C   UNL     1      45.324   3.906   8.914  0.00  0.00    +0.000 A 
ATOM     21  F   UNL     1      45.901   3.841   7.705  0.00  0.00    +0.000 F 
ATOM     22  C   UNL     1      45.304   5.121   9.596  0.00  0.00    +0.000 A 
ENDBRANCH  14  15
ENDBRANCH  13  14
ENDBRANCH   4  13
TORSDOF 4
ENDMDL
MODEL 8
REMARK VINA RESULT:    -6.079      4.398      6.469
REMARK INTER + INTRA:          -7.809
REMARK INTER:                  -7.604
REMARK INTRA:                  -0.206
REMARK UNBOUND:                -0.308
REMARK  Name = 
REMARK  5 active torsions:
REMARK  status: ('A' for Active; 'I' for Inactive)
REMARK    1  A    between atoms: C_1  and  C_2
REMARK    2  A    between atoms: C_4  and  O_5
REMARK    3  A    between atoms: O_5  and  C_6
REMARK    4  A    between atoms: C_6  and  C_7
REMARK    5  A    between atoms: C_17  and  C_18
REMARK                            x       y       z     vdW  Elec       q    Type
REMARK                         _______ _______ _______ _____ _____    ______ ____
ROOT
ATOM      1  C   UNL     1      45.114   7.281  12.608  0.00  0.00    +0.000 C 
ATOM      2  C   UNL     1      45.256   5.789  12.741  0.00  0.00    +0.000 A 
ATOM      3  C   UNL     1      46.285   5.293  13.562  0.00  0.00    +0.000 A 
ATOM      4  C   UNL     1      46.514   3.923  13.669  0.00  0.00    +0.000 A 
ATOM      5  C   UNL     1      45.674   3.024  13.019  0.00  0.00    +0.000 A 
ATOM      6  C   UNL     1      44.633   3.496  12.216  0.00  0.00    +0.000 A 
ATOM      7  C   UNL     1      44.418   4.878  12.065  0.00  0.00    +0.000 A 
ENDROOT
BRANCH   7   8
ATOM      8  C   UNL     1      43.330   5.354  11.152  0.00  0.00    +0.000 C 
ATOM      9  N   UNL     1      42.273   6.005  11.722  0.00  0.00    +0.000 N 
ATOM     10  O   UNL     1      43.368   5.190   9.942  0.00  0.00    +0.000 OA
ATOM     11  H   UNL     1      42.278   6.346  12.673  0.00  0.00    +0.000 HD
ATOM     12  H   UNL     1      41.593   6.393  11.083  0.00  0.00    +0.000 HD
ENDBRANCH   7   8
BRANCH   4  13
ATOM     13  O   UNL     1      47.521   3.400  14.431  0.00  0.00    +0.000 OA
BRANCH  13  14
ATOM     14  C   UNL     1      47.386   3.658  15.837  0.00  0.00    +0.000 C 
BRANCH  14  15
ATOM     15  C   UNL     1      48.667   3.407  16.606  0.00  0.00    +0.000 A 
ATOM     16  C   UNL     1      49.281   2.142  16.622  0.00  0.00    +0.000 A 
ATOM     17  C   UNL     1      50.550   1.973  17.186  0.00  0.00    +0.000 A 
ATOM     18  C   UNL     1      51.208   3.065  17.739  0.00  0.00    +0.000 A 
ATOM     19  F   UNL     1      52.446   2.909  18.227  0.00  0.00    +0.000 F 
ATOM     20  C   UNL     1      50.596   4.310  17.766  0.00  0.00    +0.000 A 
ATOM     21  F   UNL     1      51.231   5.363  18.301  0.00  0.00    +0.000 F 
ATOM     22  C   UNL     1      49.332   4.488  17.207  0.00  0.00    +0.000 A 
ENDBRANCH  14  15
ENDBRANCH  13  14
ENDBRANCH   4  13
TORSDOF 4
ENDMDL
MODEL 9
REMARK VINA RESULT:    -5.892      5.733      8.765
REMARK INTER + INTRA:          -7.579
REMARK INTER:                  -7.147
REMARK INTRA:                  -0.432
REMARK UNBOUND:                -0.308
REMARK  Name = 
REMARK  5 active torsions:
REMARK  status: ('A' for Active; 'I' for Inactive)
REMARK    1  A    between atoms: C_1  and  C_2
REMARK    2  A    between atoms: C_4  and  O_5
REMARK    3  A    between atoms: O_5  and  C_6
REMARK    4  A    between atoms: C_6  and  C_7
REMARK    5  A    between atoms: C_17  and  C_18
REMARK                            x       y       z     vdW  Elec       q    Type
REMARK                         _______ _______ _______ _____ _____    ______ ____
ROOT
ATOM      1  C   UNL     1      48.419   6.853  18.002  0.00  0.00    +0.000 C 
ATOM      2  C   UNL     1      48.319   5.420  17.555  0.00  0.00    +0.000 A 
ATOM      3  C   UNL     1      47.768   5.160  16.287  0.00  0.00    +0.000 A 
ATOM      4  C   UNL     1      47.581   3.852  15.844  0.00  0.00    +0.000 A 
ATOM      5  C   UNL     1      48.009   2.784  16.627  0.00  0.00    +0.000 A 
ATOM      6  C   UNL     1      48.577   3.022  17.881  0.00  0.00    +0.000 A 
ATOM      7  C   UNL     1      48.731   4.336  18.358  0.00  0.00    +0.000 A 
ENDROOT
BRANCH   7   8
ATOM      8  C   UNL     1      49.292   4.556  19.730  0.00  0.00    +0.000 C 
ATOM      9  N   UNL     1      48.526   4.164  20.791  0.00  0.00    +0.000 N 
ATOM     10  O   UNL     1      50.391   5.054  19.918  0.00  0.00    +0.000 OA
ATOM     11  H   UNL     1      47.712   3.573  20.700  0.00  0.00    +0.000 HD
ATOM     12  H   UNL     1      48.956   4.242  21.702  0.00  0.00    +0.000 HD
ENDBRANCH   7   8
BRANCH   4  13
ATOM     13  O   UNL     1      47.022   3.556  14.632  0.00  0.00    +0.000 OA
BRANCH  13  14
ATOM     14  C   UNL     1      47.124   4.612  13.667  0.00  0.00    +0.000 C 
BRANCH  14  15
ATOM     15  C   UNL     1      45.809   4.899  12.969  0.00  0.00    +0.000 A 
ATOM     16  C   UNL     1      44.724   4.010  13.049  0.00  0.00    +0.000 A 
ATOM     17  C   UNL     1      43.468   4.372  12.552  0.00  0.00    +0.000 A 
ATOM     18  C   UNL     1      43.293   5.622  11.969  0.00  0.00    +0.000 A 
ATOM     19  F   UNL     1      42.074   5.986  11.546  0.00  0.00    +0.000 F 
ATOM     20  C   UNL     1      44.365   6.493  11.848  0.00  0.00    +0.000 A 
ATOM     21  F   UNL     1      44.197   7.698  11.285  0.00  0.00    +0.000 F 
ATOM     22  C   UNL     1      45.621   6.140  12.340  0.00  0.00    +0.000 A 
ENDBRANCH  14  15
ENDBRANCH  13  14
ENDBRANCH   4  13
TORSDOF 4
ENDMDL
