MODEL 1
REMARK VINA RESULT:    -7.992      0.000      0.000
REMARK INTER + INTRA:         -11.435
REMARK INTER:                 -10.795
REMARK INTRA:                  -0.640
REMARK UNBOUND:                -0.640
REMARK  Name = 
REMARK  7 active torsions:
REMARK  status: ('A' for Active; 'I' for Inactive)
REMARK    1  A    between atoms: C_1  and  O_2
REMARK    2  A    between atoms: O_2  and  C_3
REMARK    3  A    between atoms: C_5  and  C_6
REMARK    4  A    between atoms: C_11  and  O_12
REMARK    5  A    between atoms: O_12  and  C_13
REMARK    6  A    between atoms: C_13  and  C_14
REMARK    7  A    between atoms: C_18  and  C_19
REMARK                            x       y       z     vdW  Elec       q    Type
REMARK                         _______ _______ _______ _____ _____    ______ ____
ROOT
ATOM      1  O   UNL     1      43.543   5.251  10.078  0.00  0.00    +0.000 OA
ENDROOT
BRANCH   1   7
ATOM      2  C   UNL     1      44.183   2.831   9.921  0.00  0.00    +0.000 A 
ATOM      3  C   UNL     1      45.026   1.909   9.282  0.00  0.00    +0.000 A 
ATOM      4  C   UNL     1      45.959   2.308   8.315  0.00  0.00    +0.000 A 
ATOM      5  C   UNL     1      46.038   3.659   7.972  0.00  0.00    +0.000 A 
ATOM      6  C   UNL     1      45.194   4.587   8.597  0.00  0.00    +0.000 A 
ATOM      7  C   UNL     1      44.266   4.193   9.573  0.00  0.00    +0.000 A 
BRANCH   4   8
ATOM      8  C   UNL     1      46.810   1.242   7.710  0.00  0.00    +0.000 C 
ATOM      9  N   UNL     1      47.901   1.606   6.974  0.00  0.00    +0.000 N 
ATOM     10  O   UNL     1      46.549   0.054   7.862  0.00  0.00    +0.000 OA
ATOM     11  H   UNL     1      48.180   2.549   6.772  0.00  0.00    +0.000 HD
ATOM     12  H   UNL     1      48.447   0.853   6.572  0.00  0.00    +0.000 HD
ENDBRANCH   4   8
BRANCH   2  14
ATOM     13  C   UNL     1      43.648   2.351  12.199  0.00  0.00    +0.000 C 
ATOM     14  O   UNL     1      43.246   2.433  10.836  0.00  0.00    +0.000 OA
ENDBRANCH   2  14
ENDBRANCH   1   7
BRANCH   1  15
ATOM     15  C   UNL     1      43.612   5.475  11.486  0.00  0.00    +0.000 C 
BRANCH  15  16
ATOM     16  C   UNL     1      44.988   5.913  11.944  0.00  0.00    +0.000 A 
ATOM     17  C   UNL     1      45.570   7.042  11.350  0.00  0.00    +0.000 A 
ATOM     18  C   UNL     1      46.777   7.545  11.822  0.00  0.00    +0.000 A 
ATOM     19  C   UNL     1      47.408   6.937  12.907  0.00  0.00    +0.000 A 
ATOM     20  C   UNL     1      46.845   5.819  13.552  0.00  0.00    +0.000 A 
ATOM     21  C   UNL     1      45.631   5.316  13.040  0.00  0.00    +0.000 A 
BRANCH  20  22
ATOM     22  C   UNL     1      47.478   5.233  14.752  0.00  0.00    +0.000 A 
ATOM     23  C   UNL     1      47.150   3.956  15.231  0.00  0.00    +0.000 A 
ATOM     24  C   UNL     1      47.751   3.454  16.387  0.00  0.00    +0.000 A 
ATOM     25  C   UNL     1      48.682   4.239  17.040  0.00  0.00    +0.000 A 
ATOM     26  N   UNL     1      49.041   5.469  16.624  0.00  0.00    +0.000 NA
ATOM     27  C   UNL     1      48.429   5.931  15.504  0.00  0.00    +0.000 A 
ENDBRANCH  20  22
ENDBRANCH  15  16
ENDBRANCH   1  15
TORSDOF 6
ENDMDL
MODEL 2
REMARK VINA RESULT:    -7.979      2.657      6.857
REMARK INTER + INTRA:         -11.417
REMARK INTER:                 -10.131
REMARK INTRA:                  -1.286
REMARK UNBOUND:                -0.640
REMARK  Name = 
REMARK  7 active torsions:
REMARK  status: ('A' for Active; 'I' for Inactive)
REMARK    1  A    between atoms: C_1  and  O_2
REMARK    2  A    between atoms: O_2  and  C_3
REMARK    3  A    between atoms: C_5  and  C_6
REMARK    4  A    between atoms: C_11  and  O_12
REMARK    5  A    between atoms: O_12  and  C_13
REMARK    6  A    between atoms: C_13  and  C_14
REMARK    7  A    between atoms: C_18  and  C_19
REMARK                            x       y       z     vdW  Elec       q    Type
REMARK                         _______ _______ _______ _____ _____    ______ ____
ROOT
ATOM      1  O   UNL     1      44.256   6.624  12.638  0.00  0.00    +0.000 OA
ENDROOT
BRANCH   1   7
ATOM      2  C   UNL     1      46.555   5.900  13.336  0.00  0.00    +0.000 A 
ATOM      3  C   UNL     1      47.916   6.238  13.317  0.00  0.00    +0.000 A 
ATOM      4  C   UNL     1      48.376   7.419  12.717  0.00  0.00    +0.000 A 
ATOM      5  C   UNL     1      47.450   8.272  12.113  0.00  0.00    +0.000 A 
ATOM      6  C   UNL     1      46.089   7.940  12.117  0.00  0.00    +0.000 A 
ATOM      7  C   UNL     1      45.624   6.763  12.726  0.00  0.00    +0.000 A 
BRANCH   4   8
ATOM      8  C   UNL     1      49.844   7.680  12.767  0.00  0.00    +0.000 C 
ATOM      9  N   UNL     1      50.617   7.315  11.704  0.00  0.00    +0.000 N 
ATOM     10  O   UNL     1      50.364   8.215  13.741  0.00  0.00    +0.000 OA
ATOM     11  H   UNL     1      50.289   6.850  10.876  0.00  0.00    +0.000 HD
ATOM     12  H   UNL     1      51.610   7.500  11.781  0.00  0.00    +0.000 HD
ENDBRANCH   4   8
BRANCH   2  14
ATOM     13  C   UNL     1      46.546   3.512  13.285  0.00  0.00    +0.000 C 
ATOM     14  O   UNL     1      46.113   4.727  13.887  0.00  0.00    +0.000 OA
ENDBRANCH   2  14
ENDBRANCH   1   7
BRANCH   1  15
ATOM     15  C   UNL     1      43.718   6.264  11.366  0.00  0.00    +0.000 C 
BRANCH  15  16
ATOM     16  C   UNL     1      43.967   4.812  11.013  0.00  0.00    +0.000 A 
ATOM     17  C   UNL     1      43.236   3.819  11.679  0.00  0.00    +0.000 A 
ATOM     18  C   UNL     1      43.349   2.486  11.303  0.00  0.00    +0.000 A 
ATOM     19  C   UNL     1      44.182   2.130  10.242  0.00  0.00    +0.000 A 
ATOM     20  C   UNL     1      44.913   3.098   9.526  0.00  0.00    +0.000 A 
ATOM     21  C   UNL     1      44.797   4.440   9.942  0.00  0.00    +0.000 A 
BRANCH  20  22
ATOM     22  C   UNL     1      45.728   2.722   8.351  0.00  0.00    +0.000 A 
ATOM     23  C   UNL     1      46.001   3.615   7.306  0.00  0.00    +0.000 A 
ATOM     24  C   UNL     1      46.750   3.208   6.199  0.00  0.00    +0.000 A 
ATOM     25  C   UNL     1      47.224   1.910   6.167  0.00  0.00    +0.000 A 
ATOM     26  N   UNL     1      46.999   1.011   7.143  0.00  0.00    +0.000 NA
ATOM     27  C   UNL     1      46.258   1.436   8.198  0.00  0.00    +0.000 A 
ENDBRANCH  20  22
ENDBRANCH  15  16
ENDBRANCH   1  15
TORSDOF 6
ENDMDL
MODEL 3
REMARK VINA RESULT:    -7.698      1.745      2.836
REMARK INTER + INTRA:         -11.039
REMARK INTER:                 -10.816
REMARK INTRA:                  -0.223
REMARK UNBOUND:                -0.640
REMARK  Name = 
REMARK  7 active torsions:
REMARK  status: ('A' for Active; 'I' for Inactive)
REMARK    1  A    between atoms: C_1  and  O_2
REMARK    2  A    between atoms: O_2  and  C_3
REMARK    3  A    between atoms: C_5  and  C_6
REMARK    4  A    between atoms: C_11  and  O_12
REMARK    5  A    between atoms: O_12  and  C_13
REMARK    6  A    between atoms: C_13  and  C_14
REMARK    7  A    between atoms: C_18  and  C_19
REMARK                            x       y       z     vdW  Elec       q    Type
REMARK                         _______ _______ _______ _____ _____    ______ ____
ROOT
ATOM      1  O   UNL     1      43.818   4.855  10.298  0.00  0.00    +0.000 OA
ENDROOT
BRANCH   1   7
ATOM      2  C   UNL     1      44.614   2.601   9.537  0.00  0.00    +0.000 A 
ATOM      3  C   UNL     1      45.512   1.928   8.695  0.00  0.00    +0.000 A 
ATOM      4  C   UNL     1      46.413   2.620   7.874  0.00  0.00    +0.000 A 
ATOM      5  C   UNL     1      46.404   4.016   7.889  0.00  0.00    +0.000 A 
ATOM      6  C   UNL     1      45.504   4.698   8.719  0.00  0.00    +0.000 A 
ATOM      7  C   UNL     1      44.607   4.009   9.550  0.00  0.00    +0.000 A 
BRANCH   4   8
ATOM      8  C   UNL     1      47.330   1.801   7.029  0.00  0.00    +0.000 C 
ATOM      9  N   UNL     1      48.390   2.409   6.421  0.00  0.00    +0.000 N 
ATOM     10  O   UNL     1      47.149   0.597   6.872  0.00  0.00    +0.000 OA
ATOM     11  H   UNL     1      48.605   3.389   6.467  0.00  0.00    +0.000 HD
ATOM     12  H   UNL     1      48.982   1.820   5.847  0.00  0.00    +0.000 HD
ENDBRANCH   4   8
BRANCH   2  14
ATOM     13  C   UNL     1      43.481   2.398  11.630  0.00  0.00    +0.000 C 
ATOM     14  O   UNL     1      43.707   1.924  10.308  0.00  0.00    +0.000 OA
ENDBRANCH   2  14
ENDBRANCH   1   7
BRANCH   1  15
ATOM     15  C   UNL     1      44.378   6.118  10.661  0.00  0.00    +0.000 C 
BRANCH  15  16
ATOM     16  C   UNL     1      45.371   6.014  11.800  0.00  0.00    +0.000 A 
ATOM     17  C   UNL     1      45.146   5.067  12.808  0.00  0.00    +0.000 A 
ATOM     18  C   UNL     1      46.091   4.859  13.806  0.00  0.00    +0.000 A 
ATOM     19  C   UNL     1      47.284   5.582  13.796  0.00  0.00    +0.000 A 
ATOM     20  C   UNL     1      47.565   6.522  12.786  0.00  0.00    +0.000 A 
ATOM     21  C   UNL     1      46.580   6.729  11.799  0.00  0.00    +0.000 A 
BRANCH  20  22
ATOM     22  C   UNL     1      48.865   7.223  12.737  0.00  0.00    +0.000 A 
ATOM     23  C   UNL     1      49.434   7.675  11.538  0.00  0.00    +0.000 A 
ATOM     24  C   UNL     1      50.680   8.305  11.534  0.00  0.00    +0.000 A 
ATOM     25  C   UNL     1      51.332   8.482  12.740  0.00  0.00    +0.000 A 
ATOM     26  N   UNL     1      50.833   8.075  13.923  0.00  0.00    +0.000 NA
ATOM     27  C   UNL     1      49.625   7.456  13.888  0.00  0.00    +0.000 A 
ENDBRANCH  20  22
ENDBRANCH  15  16
ENDBRANCH   1  15
TORSDOF 6
ENDMDL
MODEL 4
REMARK VINA RESULT:    -7.483      3.278      7.406
REMARK INTER + INTRA:         -10.748
REMARK INTER:                  -9.790
REMARK INTRA:                  -0.958
REMARK UNBOUND:                -0.640
REMARK  Name = 
REMARK  7 active torsions:
REMARK  status: ('A' for Active; 'I' for Inactive)
REMARK    1  A    between atoms: C_1  and  O_2
REMARK    2  A    between atoms: O_2  and  C_3
REMARK    3  A    between atoms: C_5  and  C_6
REMARK    4  A    between atoms: C_11  and  O_12
REMARK    5  A    between atoms: O_12  and  C_13
REMARK    6  A    between atoms: C_13  and  C_14
REMARK    7  A    between atoms: C_18  and  C_19
REMARK                            x       y       z     vdW  Elec       q    Type
REMARK                         _______ _______ _______ _____ _____    ______ ____
ROOT
ATOM      1  O   UNL     1      44.842   6.754  12.609  0.00  0.00    +0.000 OA
ENDROOT
BRANCH   1   7
ATOM      2  C   UNL     1      46.088   8.916  12.356  0.00  0.00    +0.000 A 
ATOM      3  C   UNL     1      47.351   9.493  12.157  0.00  0.00    +0.000 A 
ATOM      4  C   UNL     1      48.505   8.711  12.014  0.00  0.00    +0.000 A 
ATOM      5  C   UNL     1      48.391   7.321  12.085  0.00  0.00    +0.000 A 
ATOM      6  C   UNL     1      47.135   6.735  12.293  0.00  0.00    +0.000 A 
ATOM      7  C   UNL     1      45.976   7.514  12.427  0.00  0.00    +0.000 A 
BRANCH   4   8
ATOM      8  C   UNL     1      49.793   9.432  11.795  0.00  0.00    +0.000 C 
ATOM      9  N   UNL     1      49.959  10.670  12.346  0.00  0.00    +0.000 N 
ATOM     10  O   UNL     1      50.699   8.935  11.134  0.00  0.00    +0.000 OA
ATOM     11  H   UNL     1      49.269  11.169  12.879  0.00  0.00    +0.000 HD
ATOM     12  H   UNL     1      50.843  11.131  12.166  0.00  0.00    +0.000 HD
ENDBRANCH   4   8
BRANCH   2  14
ATOM     13  C   UNL     1      44.329  10.201  11.374  0.00  0.00    +0.000 C 
ATOM     14  O   UNL     1      44.968   9.684  12.536  0.00  0.00    +0.000 OA
ENDBRANCH   2  14
ENDBRANCH   1   7
BRANCH   1  15
ATOM     15  C   UNL     1      44.085   6.423  11.444  0.00  0.00    +0.000 C 
BRANCH  15  16
ATOM     16  C   UNL     1      44.208   4.962  11.061  0.00  0.00    +0.000 A 
ATOM     17  C   UNL     1      43.393   4.023  11.708  0.00  0.00    +0.000 A 
ATOM     18  C   UNL     1      43.391   2.693  11.304  0.00  0.00    +0.000 A 
ATOM     19  C   UNL     1      44.189   2.288  10.234  0.00  0.00    +0.000 A 
ATOM     20  C   UNL     1      45.001   3.204   9.536  0.00  0.00    +0.000 A 
ATOM     21  C   UNL     1      45.001   4.542   9.980  0.00  0.00    +0.000 A 
BRANCH  20  22
ATOM     22  C   UNL     1      45.780   2.784   8.352  0.00  0.00    +0.000 A 
ATOM     23  C   UNL     1      46.054   3.649   7.284  0.00  0.00    +0.000 A 
ATOM     24  C   UNL     1      46.767   3.201   6.170  0.00  0.00    +0.000 A 
ATOM     25  C   UNL     1      47.205   1.890   6.153  0.00  0.00    +0.000 A 
ATOM     26  N   UNL     1      46.977   1.015   7.151  0.00  0.00    +0.000 NA
ATOM     27  C   UNL     1      46.271   1.481   8.213  0.00  0.00    +0.000 A 
ENDBRANCH  20  22
ENDBRANCH  15  16
ENDBRANCH   1  15
TORSDOF 6
ENDMDL
MODEL 5
REMARK VINA RESULT:    -7.072      2.626      7.628
REMARK INTER + INTRA:         -10.193
REMARK INTER:                  -9.763
REMARK INTRA:                  -0.430
REMARK UNBOUND:                -0.640
REMARK  Name = 
REMARK  7 active torsions:
REMARK  status: ('A' for Active; 'I' for Inactive)
REMARK    1  A    between atoms: C_1  and  O_2
REMARK    2  A    between atoms: O_2  and  C_3
REMARK    3  A    between atoms: C_5  and  C_6
REMARK    4  A    between atoms: C_11  and  O_12
REMARK    5  A    between atoms: O_12  and  C_13
REMARK    6  A    between atoms: C_13  and  C_14
REMARK    7  A    between atoms: C_18  and  C_19
REMARK                            x       y       z     vdW  Elec       q    Type
REMARK                         _______ _______ _______ _____ _____    ______ ____
ROOT
ATOM      1  O   UNL     1      46.384   6.860  11.476  0.00  0.00    +0.000 OA
ENDROOT
BRANCH   1   7
ATOM      2  C   UNL     1      47.934   7.443  13.359  0.00  0.00    +0.000 A 
ATOM      3  C   UNL     1      48.425   7.031  14.607  0.00  0.00    +0.000 A 
ATOM      4  C   UNL     1      48.004   5.837  15.209  0.00  0.00    +0.000 A 
ATOM      5  C   UNL     1      47.060   5.047  14.549  0.00  0.00    +0.000 A 
ATOM      6  C   UNL     1      46.556   5.454  13.307  0.00  0.00    +0.000 A 
ATOM      7  C   UNL     1      46.983   6.643  12.697  0.00  0.00    +0.000 A 
BRANCH   4   8
ATOM      8  C   UNL     1      48.602   5.494  16.532  0.00  0.00    +0.000 C 
ATOM      9  N   UNL     1      47.817   5.550  17.647  0.00  0.00    +0.000 N 
ATOM     10  O   UNL     1      49.779   5.164  16.634  0.00  0.00    +0.000 OA
ATOM     11  H   UNL     1      46.853   5.833  17.668  0.00  0.00    +0.000 HD
ATOM     12  H   UNL     1      48.263   5.319  18.527  0.00  0.00    +0.000 HD
ENDBRANCH   4   8
BRANCH   2  14
ATOM     13  C   UNL     1      49.335   8.588  11.799  0.00  0.00    +0.000 C 
ATOM     14  O   UNL     1      48.317   8.630  12.793  0.00  0.00    +0.000 OA
ENDBRANCH   2  14
ENDBRANCH   1   7
BRANCH   1  15
ATOM     15  C   UNL     1      45.008   6.500  11.351  0.00  0.00    +0.000 C 
BRANCH  15  16
ATOM     16  C   UNL     1      44.815   5.071  10.886  0.00  0.00    +0.000 A 
ATOM     17  C   UNL     1      43.783   4.309  11.451  0.00  0.00    +0.000 A 
ATOM     18  C   UNL     1      43.499   3.037  10.969  0.00  0.00    +0.000 A 
ATOM     19  C   UNL     1      44.232   2.517   9.901  0.00  0.00    +0.000 A 
ATOM     20  C   UNL     1      45.258   3.258   9.285  0.00  0.00    +0.000 A 
ATOM     21  C   UNL     1      45.540   4.537   9.807  0.00  0.00    +0.000 A 
BRANCH  20  22
ATOM     22  C   UNL     1      45.972   2.733   8.102  0.00  0.00    +0.000 A 
ATOM     23  C   UNL     1      46.210   3.508   6.958  0.00  0.00    +0.000 A 
ATOM     24  C   UNL     1      46.862   2.962   5.851  0.00  0.00    +0.000 A 
ATOM     25  C   UNL     1      47.277   1.645   5.915  0.00  0.00    +0.000 A 
ATOM     26  N   UNL     1      47.082   0.854   6.988  0.00  0.00    +0.000 NA
ATOM     27  C   UNL     1      46.435   1.414   8.042  0.00  0.00    +0.000 A 
ENDBRANCH  20  22
ENDBRANCH  15  16
ENDBRANCH   1  15
TORSDOF 6
ENDMDL
MODEL 6
REMARK VINA RESULT:    -7.040      2.609      7.403
REMARK INTER + INTRA:         -10.149
REMARK INTER:                  -9.744
REMARK INTRA:                  -0.405
REMARK UNBOUND:                -0.640
REMARK  Name = 
REMARK  7 active torsions:
REMARK  status: ('A' for Active; 'I' for Inactive)
REMARK    1  A    between atoms: C_1  and  O_2
REMARK    2  A    between atoms: O_2  and  C_3
REMARK    3  A    between atoms: C_5  and  C_6
REMARK    4  A    between atoms: C_11  and  O_12
REMARK    5  A    between atoms: O_12  and  C_13
REMARK    6  A    between atoms: C_13  and  C_14
REMARK    7  A    between atoms: C_18  and  C_19
REMARK                            x       y       z     vdW  Elec       q    Type
REMARK                         _______ _______ _______ _____ _____    ______ ____
ROOT
ATOM      1  O   UNL     1      47.420   6.770  12.461  0.00  0.00    +0.000 OA
ENDROOT
BRANCH   1   7
ATOM      2  C   UNL     1      48.252   6.490  14.811  0.00  0.00    +0.000 A 
ATOM      3  C   UNL     1      48.233   5.658  15.940  0.00  0.00    +0.000 A 
ATOM      4  C   UNL     1      47.524   4.448  15.954  0.00  0.00    +0.000 A 
ATOM      5  C   UNL     1      46.808   4.074  14.816  0.00  0.00    +0.000 A 
ATOM      6  C   UNL     1      46.812   4.902  13.686  0.00  0.00    +0.000 A 
ATOM      7  C   UNL     1      47.529   6.109  13.664  0.00  0.00    +0.000 A 
BRANCH   4   8
ATOM      8  C   UNL     1      47.585   3.639  17.206  0.00  0.00    +0.000 C 
ATOM      9  N   UNL     1      48.706   3.704  17.982  0.00  0.00    +0.000 N 
ATOM     10  O   UNL     1      46.651   2.921  17.548  0.00  0.00    +0.000 OA
ATOM     11  H   UNL     1      49.529   4.240  17.773  0.00  0.00    +0.000 HD
ATOM     12  H   UNL     1      48.712   3.132  18.818  0.00  0.00    +0.000 HD
ENDBRANCH   4   8
BRANCH   2  14
ATOM     13  C   UNL     1      48.546   8.641  15.806  0.00  0.00    +0.000 C 
ATOM     14  O   UNL     1      48.912   7.689  14.814  0.00  0.00    +0.000 OA
ENDBRANCH   2  14
ENDBRANCH   1   7
BRANCH   1  15
ATOM     15  C   UNL     1      46.120   7.216  12.077  0.00  0.00    +0.000 C 
BRANCH  15  16
ATOM     16  C   UNL     1      45.312   6.139  11.381  0.00  0.00    +0.000 A 
ATOM     17  C   UNL     1      43.922   6.115  11.559  0.00  0.00    +0.000 A 
ATOM     18  C   UNL     1      43.134   5.219  10.847  0.00  0.00    +0.000 A 
ATOM     19  C   UNL     1      43.725   4.347   9.932  0.00  0.00    +0.000 A 
ATOM     20  C   UNL     1      45.114   4.356   9.700  0.00  0.00    +0.000 A 
ATOM     21  C   UNL     1      45.892   5.261  10.451  0.00  0.00    +0.000 A 
BRANCH  20  22
ATOM     22  C   UNL     1      45.720   3.488   8.669  0.00  0.00    +0.000 A 
ATOM     23  C   UNL     1      46.269   3.994   7.483  0.00  0.00    +0.000 A 
ATOM     24  C   UNL     1      46.804   3.134   6.522  0.00  0.00    +0.000 A 
ATOM     25  C   UNL     1      46.790   1.775   6.774  0.00  0.00    +0.000 A 
ATOM     26  N   UNL     1      46.283   1.231   7.897  0.00  0.00    +0.000 NA
ATOM     27  C   UNL     1      45.761   2.096   8.805  0.00  0.00    +0.000 A 
ENDBRANCH  20  22
ENDBRANCH  15  16
ENDBRANCH   1  15
TORSDOF 6
ENDMDL
MODEL 7
REMARK VINA RESULT:    -6.862      3.108      7.376
REMARK INTER + INTRA:          -9.910
REMARK INTER:                  -9.163
REMARK INTRA:                  -0.747
REMARK UNBOUND:                -0.640
REMARK  Name = 
REMARK  7 active torsions:
REMARK  status: ('A' for Active; 'I' for Inactive)
REMARK    1  A    between atoms: C_1  and  O_2
REMARK    2  A    between atoms: O_2  and  C_3
REMARK    3  A    between atoms: C_5  and  C_6
REMARK    4  A    between atoms: C_11  and  O_12
REMARK    5  A    between atoms: O_12  and  C_13
REMARK    6  A    between atoms: C_13  and  C_14
REMARK    7  A    between atoms: C_18  and  C_19
REMARK                            x       y       z     vdW  Elec       q    Type
REMARK                         _______ _______ _______ _____ _____    ______ ____
ROOT
ATOM      1  O   UNL     1      46.428   5.523  13.693  0.00  0.00    +0.000 OA
ENDROOT
BRANCH   1   7
ATOM      2  C   UNL     1      48.621   6.631  14.197  0.00  0.00    +0.000 A 
ATOM      3  C   UNL     1      49.614   7.485  13.696  0.00  0.00    +0.000 A 
ATOM      4  C   UNL     1      49.520   8.057  12.419  0.00  0.00    +0.000 A 
ATOM      5  C   UNL     1      48.413   7.753  11.625  0.00  0.00    +0.000 A 
ATOM      6  C   UNL     1      47.421   6.893  12.112  0.00  0.00    +0.000 A 
ATOM      7  C   UNL     1      47.506   6.326  13.393  0.00  0.00    +0.000 A 
BRANCH   4   8
ATOM      8  C   UNL     1      50.630   8.960  11.995  0.00  0.00    +0.000 C 
ATOM      9  N   UNL     1      51.864   8.800  12.556  0.00  0.00    +0.000 N 
ATOM     10  O   UNL     1      50.453   9.838  11.157  0.00  0.00    +0.000 OA
ATOM     11  H   UNL     1      52.099   8.130  13.266  0.00  0.00    +0.000 HD
ATOM     12  H   UNL     1      52.587   9.439  12.249  0.00  0.00    +0.000 HD
ENDBRANCH   4   8
BRANCH   2  14
ATOM     13  C   UNL     1      49.764   6.513  16.292  0.00  0.00    +0.000 C 
ATOM     14  O   UNL     1      48.735   6.042  15.428  0.00  0.00    +0.000 OA
ENDBRANCH   2  14
ENDBRANCH   1   7
BRANCH   1  15
ATOM     15  C   UNL     1      45.231   5.732  12.943  0.00  0.00    +0.000 C 
BRANCH  15  16
ATOM     16  C   UNL     1      44.844   4.529  12.108  0.00  0.00    +0.000 A 
ATOM     17  C   UNL     1      43.721   3.778  12.484  0.00  0.00    +0.000 A 
ATOM     18  C   UNL     1      43.265   2.740  11.680  0.00  0.00    +0.000 A 
ATOM     19  C   UNL     1      43.915   2.451  10.480  0.00  0.00    +0.000 A 
ATOM     20  C   UNL     1      45.028   3.198  10.049  0.00  0.00    +0.000 A 
ATOM     21  C   UNL     1      45.484   4.231  10.894  0.00  0.00    +0.000 A 
BRANCH  20  22
ATOM     22  C   UNL     1      45.659   2.939   8.738  0.00  0.00    +0.000 A 
ATOM     23  C   UNL     1      46.123   1.671   8.360  0.00  0.00    +0.000 A 
ATOM     24  C   UNL     1      46.740   1.479   7.123  0.00  0.00    +0.000 A 
ATOM     25  C   UNL     1      46.873   2.564   6.277  0.00  0.00    +0.000 A 
ATOM     26  N   UNL     1      46.442   3.803   6.582  0.00  0.00    +0.000 NA
ATOM     27  C   UNL     1      45.856   3.957   7.798  0.00  0.00    +0.000 A 
ENDBRANCH  20  22
ENDBRANCH  15  16
ENDBRANCH   1  15
TORSDOF 6
ENDMDL
MODEL 8
REMARK VINA RESULT:    -6.795      3.812      6.212
REMARK INTER + INTRA:          -9.819
REMARK INTER:                  -8.781
REMARK INTRA:                  -1.038
REMARK UNBOUND:                -0.640
REMARK  Name = 
REMARK  7 active torsions:
REMARK  status: ('A' for Active; 'I' for Inactive)
REMARK    1  A    between atoms: C_1  and  O_2
REMARK    2  A    between atoms: O_2  and  C_3
REMARK    3  A    between atoms: C_5  and  C_6
REMARK    4  A    between atoms: C_11  and  O_12
REMARK    5  A    between atoms: O_12  and  C_13
REMARK    6  A    between atoms: C_13  and  C_14
REMARK    7  A    between atoms: C_18  and  C_19
REMARK                            x       y       z     vdW  Elec       q    Type
REMARK                         _______ _______ _______ _____ _____    ______ ____
ROOT
ATOM      1  O   UNL     1      48.929   6.527  14.280  0.00  0.00    +0.000 OA
ENDROOT
BRANCH   1   7
ATOM      2  C   UNL     1      46.970   4.979  14.036  0.00  0.00    +0.000 A 
ATOM      3  C   UNL     1      45.677   4.843  13.508  0.00  0.00    +0.000 A 
ATOM      4  C   UNL     1      45.060   5.878  12.791  0.00  0.00    +0.000 A 
ATOM      5  C   UNL     1      45.750   7.078  12.612  0.00  0.00    +0.000 A 
ATOM      6  C   UNL     1      47.038   7.228  13.144  0.00  0.00    +0.000 A 
ATOM      7  C   UNL     1      47.663   6.191  13.853  0.00  0.00    +0.000 A 
BRANCH   4   8
ATOM      8  C   UNL     1      43.688   5.617  12.266  0.00  0.00    +0.000 C 
ATOM      9  N   UNL     1      42.670   5.410  13.151  0.00  0.00    +0.000 N 
ATOM     10  O   UNL     1      43.461   5.587  11.061  0.00  0.00    +0.000 OA
ATOM     11  H   UNL     1      42.761   5.389  14.151  0.00  0.00    +0.000 HD
ATOM     12  H   UNL     1      41.756   5.226  12.755  0.00  0.00    +0.000 HD
ENDBRANCH   4   8
BRANCH   2  14
ATOM     13  C   UNL     1      47.139   3.829  16.123  0.00  0.00    +0.000 C 
ATOM     14  O   UNL     1      47.554   3.982  14.770  0.00  0.00    +0.000 OA
ENDBRANCH   2  14
ENDBRANCH   1   7
BRANCH   1  15
ATOM     15  C   UNL     1      49.028   7.376  15.424  0.00  0.00    +0.000 C 
BRANCH  15  16
ATOM     16  C   UNL     1      49.345   6.615  16.694  0.00  0.00    +0.000 A 
ATOM     17  C   UNL     1      48.696   6.982  17.882  0.00  0.00    +0.000 A 
ATOM     18  C   UNL     1      48.869   6.235  19.041  0.00  0.00    +0.000 A 
ATOM     19  C   UNL     1      49.679   5.099  19.023  0.00  0.00    +0.000 A 
ATOM     20  C   UNL     1      50.326   4.677  17.846  0.00  0.00    +0.000 A 
ATOM     21  C   UNL     1      50.151   5.464  16.689  0.00  0.00    +0.000 A 
BRANCH  20  22
ATOM     22  C   UNL     1      51.114   3.427  17.815  0.00  0.00    +0.000 A 
ATOM     23  C   UNL     1      52.455   3.370  18.221  0.00  0.00    +0.000 A 
ATOM     24  C   UNL     1      53.171   2.173  18.146  0.00  0.00    +0.000 A 
ATOM     25  C   UNL     1      52.523   1.047  17.674  0.00  0.00    +0.000 A 
ATOM     26  N   UNL     1      51.237   1.039  17.276  0.00  0.00    +0.000 NA
ATOM     27  C   UNL     1      50.574   2.222  17.351  0.00  0.00    +0.000 A 
ENDBRANCH  20  22
ENDBRANCH  15  16
ENDBRANCH   1  15
TORSDOF 6
ENDMDL
MODEL 9
REMARK VINA RESULT:    -6.771      3.765      8.262
REMARK INTER + INTRA:          -9.786
REMARK INTER:                  -8.889
REMARK INTRA:                  -0.898
REMARK UNBOUND:                -0.640
REMARK  Name = 
REMARK  7 active torsions:
REMARK  status: ('A' for Active; 'I' for Inactive)
REMARK    1  A    between atoms: C_1  and  O_2
REMARK    2  A    between atoms: O_2  and  C_3
REMARK    3  A    between atoms: C_5  and  C_6
REMARK    4  A    between atoms: C_11  and  O_12
REMARK    5  A    between atoms: O_12  and  C_13
REMARK    6  A    between atoms: C_13  and  C_14
REMARK    7  A    between atoms: C_18  and  C_19
REMARK                            x       y       z     vdW  Elec       q    Type
REMARK                         _______ _______ _______ _____ _____    ______ ____
ROOT
ATOM      1  O   UNL     1      49.003   6.277  14.585  0.00  0.00    +0.000 OA
ENDROOT
BRANCH   1   7
ATOM      2  C   UNL     1      48.233   5.164  16.698  0.00  0.00    +0.000 A 
ATOM      3  C   UNL     1      47.930   5.366  18.053  0.00  0.00    +0.000 A 
ATOM      4  C   UNL     1      48.032   6.629  18.652  0.00  0.00    +0.000 A 
ATOM      5  C   UNL     1      48.459   7.710  17.878  0.00  0.00    +0.000 A 
ATOM      6  C   UNL     1      48.774   7.518  16.527  0.00  0.00    +0.000 A 
ATOM      7  C   UNL     1      48.664   6.257  15.920  0.00  0.00    +0.000 A 
BRANCH   4   8
ATOM      8  C   UNL     1      47.673   6.727  20.097  0.00  0.00    +0.000 C 
ATOM      9  N   UNL     1      47.077   5.660  20.704  0.00  0.00    +0.000 N 
ATOM     10  O   UNL     1      47.902   7.744  20.744  0.00  0.00    +0.000 OA
ATOM     11  H   UNL     1      46.826   4.798  20.254  0.00  0.00    +0.000 HD
ATOM     12  H   UNL     1      46.840   5.770  21.683  0.00  0.00    +0.000 HD
ENDBRANCH   4   8
BRANCH   2  14
ATOM     13  C   UNL     1      48.076   2.799  16.995  0.00  0.00    +0.000 C 
ATOM     14  O   UNL     1      48.172   3.922  16.125  0.00  0.00    +0.000 OA
ENDBRANCH   2  14
ENDBRANCH   1   7
BRANCH   1  15
ATOM     15  C   UNL     1      48.715   7.471  13.857  0.00  0.00    +0.000 C 
BRANCH  15  16
ATOM     16  C   UNL     1      47.367   7.426  13.167  0.00  0.00    +0.000 A 
ATOM     17  C   UNL     1      46.559   8.571  13.188  0.00  0.00    +0.000 A 
ATOM     18  C   UNL     1      45.370   8.610  12.468  0.00  0.00    +0.000 A 
ATOM     19  C   UNL     1      44.984   7.509  11.702  0.00  0.00    +0.000 A 
ATOM     20  C   UNL     1      45.779   6.349  11.629  0.00  0.00    +0.000 A 
ATOM     21  C   UNL     1      46.969   6.328  12.386  0.00  0.00    +0.000 A 
BRANCH  20  22
ATOM     22  C   UNL     1      45.404   5.222  10.751  0.00  0.00    +0.000 A 
ATOM     23  C   UNL     1      45.663   5.220   9.373  0.00  0.00    +0.000 A 
ATOM     24  C   UNL     1      45.263   4.146   8.575  0.00  0.00    +0.000 A 
ATOM     25  C   UNL     1      44.617   3.083   9.178  0.00  0.00    +0.000 A 
ATOM     26  N   UNL     1      44.346   3.026  10.496  0.00  0.00    +0.000 NA
ATOM     27  C   UNL     1      44.739   4.092  11.240  0.00  0.00    +0.000 A 
ENDBRANCH  20  22
ENDBRANCH  15  16
ENDBRANCH   1  15
TORSDOF 6
ENDMDL
