MODEL 1
REMARK VINA RESULT:    -8.812      0.000      0.000
REMARK INTER + INTRA:         -12.199
REMARK INTER:                 -11.387
REMARK INTRA:                  -0.811
REMARK UNBOUND:                -0.811
REMARK  Name = 
REMARK  5 active torsions:
REMARK  status: ('A' for Active; 'I' for Inactive)
REMARK    1  A    between atoms: C_2  and  C_3
REMARK    2  A    between atoms: C_6  and  N_7
REMARK    3  A    between atoms: N_7  and  C_8
REMARK    4  A    between atoms: C_8  and  C_9
REMARK    5  A    between atoms: C_14  and  C_15
REMARK                            x       y       z     vdW  Elec       q    Type
REMARK                         _______ _______ _______ _____ _____    ______ ____
ROOT
ATOM      1  C   UNL     1      44.173   4.443  11.735  0.00  0.00    +0.000 C 
ATOM      2  C   UNL     1      43.418   3.358  12.483  0.00  0.00    +0.000 C 
ATOM      3  C   UNL     1      42.995   4.774  12.652  0.00  0.00    +0.000 C 
ENDROOT
BRANCH   1   4
ATOM      4  C   UNL     1      45.480   5.027  12.264  0.00  0.00    +0.000 A 
ATOM      5  C   UNL     1      46.055   6.154  11.658  0.00  0.00    +0.000 A 
ATOM      6  C   UNL     1      47.102   6.829  12.269  0.00  0.00    +0.000 A 
ATOM      7  F   UNL     1      47.574   7.954  11.715  0.00  0.00    +0.000 F 
ATOM      8  C   UNL     1      47.630   6.389  13.477  0.00  0.00    +0.000 A 
ATOM      9  C   UNL     1      47.138   5.226  14.087  0.00  0.00    +0.000 A 
ATOM     10  C   UNL     1      46.076   4.555  13.447  0.00  0.00    +0.000 A 
BRANCH   9  11
ATOM     11  C   UNL     1      47.651   4.750  15.386  0.00  0.00    +0.000 A 
ATOM     12  C   UNL     1      47.508   3.418  15.800  0.00  0.00    +0.000 A 
ATOM     13  C   UNL     1      48.051   2.991  17.011  0.00  0.00    +0.000 A 
ATOM     14  C   UNL     1      48.736   3.909  17.785  0.00  0.00    +0.000 A 
ATOM     15  N   UNL     1      48.897   5.201  17.440  0.00  0.00    +0.000 NA
ATOM     16  C   UNL     1      48.349   5.587  16.262  0.00  0.00    +0.000 A 
ENDBRANCH   9  11
ENDBRANCH   1   4
BRANCH   1  17
ATOM     17  N   UNL     1      44.018   4.518  10.276  0.00  0.00    +0.000 N 
ATOM     18  H   UNL     1      43.121   4.808   9.901  0.00  0.00    +0.000 HD
BRANCH  17  22
ATOM     19  C   UNL     1      46.664   2.662   7.534  0.00  0.00    +0.000 A 
ATOM     20  C   UNL     1      45.939   1.876   8.429  0.00  0.00    +0.000 A 
ATOM     21  C   UNL     1      45.060   2.475   9.338  0.00  0.00    +0.000 A 
ATOM     22  C   UNL     1      44.851   3.861   9.349  0.00  0.00    +0.000 A 
ATOM     23  C   UNL     1      45.606   4.635   8.455  0.00  0.00    +0.000 A 
ATOM     24  C   UNL     1      46.504   4.047   7.556  0.00  0.00    +0.000 A 
BRANCH  19  26
ATOM     25  N   UNL     1      48.324   1.554   5.871  0.00  0.00    +0.000 NA
ATOM     26  C   UNL     1      47.585   2.050   6.612  0.00  0.00    +0.000 C 
ENDBRANCH  19  26
ENDBRANCH  17  22
ENDBRANCH   1  17
TORSDOF 5
ENDMDL
MODEL 2
REMARK VINA RESULT:    -8.397      2.381      3.888
REMARK INTER + INTRA:         -11.662
REMARK INTER:                 -10.566
REMARK INTRA:                  -1.096
REMARK UNBOUND:                -0.811
REMARK  Name = 
REMARK  5 active torsions:
REMARK  status: ('A' for Active; 'I' for Inactive)
REMARK    1  A    between atoms: C_2  and  C_3
REMARK    2  A    between atoms: C_6  and  N_7
REMARK    3  A    between atoms: N_7  and  C_8
REMARK    4  A    between atoms: C_8  and  C_9
REMARK    5  A    between atoms: C_14  and  C_15
REMARK                            x       y       z     vdW  Elec       q    Type
REMARK                         _______ _______ _______ _____ _____    ______ ____
ROOT
ATOM      1  C   UNL     1      43.828   4.873  11.271  0.00  0.00    +0.000 C 
ATOM      2  C   UNL     1      42.777   3.895  11.767  0.00  0.00    +0.000 C 
ATOM      3  C   UNL     1      42.543   5.353  11.947  0.00  0.00    +0.000 C 
ENDROOT
BRANCH   1   4
ATOM      4  C   UNL     1      45.062   5.218  12.099  0.00  0.00    +0.000 A 
ATOM      5  C   UNL     1      45.574   4.306  13.034  0.00  0.00    +0.000 A 
ATOM      6  C   UNL     1      46.818   4.509  13.612  0.00  0.00    +0.000 A 
ATOM      7  F   UNL     1      47.324   3.579  14.433  0.00  0.00    +0.000 F 
ATOM      8  C   UNL     1      47.575   5.635  13.309  0.00  0.00    +0.000 A 
ATOM      9  C   UNL     1      47.076   6.614  12.436  0.00  0.00    +0.000 A 
ATOM     10  C   UNL     1      45.808   6.387  11.862  0.00  0.00    +0.000 A 
BRANCH   9  11
ATOM     11  C   UNL     1      47.865   7.803  12.065  0.00  0.00    +0.000 A 
ATOM     12  C   UNL     1      47.355   9.103  12.186  0.00  0.00    +0.000 A 
ATOM     13  C   UNL     1      48.148  10.207  11.876  0.00  0.00    +0.000 A 
ATOM     14  C   UNL     1      49.446   9.987  11.452  0.00  0.00    +0.000 A 
ATOM     15  N   UNL     1      49.985   8.760  11.310  0.00  0.00    +0.000 NA
ATOM     16  C   UNL     1      49.185   7.708  11.611  0.00  0.00    +0.000 A 
ENDBRANCH   9  11
ENDBRANCH   1   4
BRANCH   1  17
ATOM     17  N   UNL     1      44.003   5.029   9.821  0.00  0.00    +0.000 N 
ATOM     18  H   UNL     1      43.235   5.415   9.282  0.00  0.00    +0.000 HD
BRANCH  17  22
ATOM     19  C   UNL     1      46.759   2.874   7.429  0.00  0.00    +0.000 A 
ATOM     20  C   UNL     1      46.871   4.261   7.525  0.00  0.00    +0.000 A 
ATOM     21  C   UNL     1      45.969   4.985   8.314  0.00  0.00    +0.000 A 
ATOM     22  C   UNL     1      44.967   4.343   9.054  0.00  0.00    +0.000 A 
ATOM     23  C   UNL     1      44.859   2.950   8.926  0.00  0.00    +0.000 A 
ATOM     24  C   UNL     1      45.743   2.220   8.123  0.00  0.00    +0.000 A 
BRANCH  19  26
ATOM     25  N   UNL     1      48.405   1.531   5.932  0.00  0.00    +0.000 NA
ATOM     26  C   UNL     1      47.673   2.129   6.601  0.00  0.00    +0.000 C 
ENDBRANCH  19  26
ENDBRANCH  17  22
ENDBRANCH   1  17
TORSDOF 5
ENDMDL
MODEL 3
REMARK VINA RESULT:    -8.327      1.880      2.579
REMARK INTER + INTRA:         -11.572
REMARK INTER:                 -10.708
REMARK INTRA:                  -0.864
REMARK UNBOUND:                -0.811
REMARK  Name = 
REMARK  5 active torsions:
REMARK  status: ('A' for Active; 'I' for Inactive)
REMARK    1  A    between atoms: C_2  and  C_3
REMARK    2  A    between atoms: C_6  and  N_7
REMARK    3  A    between atoms: N_7  and  C_8
REMARK    4  A    between atoms: C_8  and  C_9
REMARK    5  A    between atoms: C_14  and  C_15
REMARK                            x       y       z     vdW  Elec       q    Type
REMARK                         _______ _______ _______ _____ _____    ______ ____
ROOT
ATOM      1  C   UNL     1      44.385   4.368  11.671  0.00  0.00    +0.000 C 
ATOM      2  C   UNL     1      44.664   3.265  12.677  0.00  0.00    +0.000 C 
ATOM      3  C   UNL     1      43.459   4.119  12.862  0.00  0.00    +0.000 C 
ENDROOT
BRANCH   1   4
ATOM      4  C   UNL     1      45.062   5.732  11.760  0.00  0.00    +0.000 A 
ATOM      5  C   UNL     1      44.379   6.895  11.374  0.00  0.00    +0.000 A 
ATOM      6  C   UNL     1      44.894   8.149  11.672  0.00  0.00    +0.000 A 
ATOM      7  F   UNL     1      44.180   9.243  11.374  0.00  0.00    +0.000 F 
ATOM      8  C   UNL     1      46.111   8.287  12.328  0.00  0.00    +0.000 A 
ATOM      9  C   UNL     1      46.868   7.156  12.669  0.00  0.00    +0.000 A 
ATOM     10  C   UNL     1      46.326   5.893  12.355  0.00  0.00    +0.000 A 
BRANCH   9  11
ATOM     11  C   UNL     1      48.146   7.264  13.397  0.00  0.00    +0.000 A 
ATOM     12  C   UNL     1      49.153   8.157  13.006  0.00  0.00    +0.000 A 
ATOM     13  C   UNL     1      50.328   8.270  13.747  0.00  0.00    +0.000 A 
ATOM     14  C   UNL     1      50.471   7.486  14.877  0.00  0.00    +0.000 A 
ATOM     15  N   UNL     1      49.540   6.606  15.295  0.00  0.00    +0.000 NA
ATOM     16  C   UNL     1      48.414   6.513  14.546  0.00  0.00    +0.000 A 
ENDBRANCH   9  11
ENDBRANCH   1   4
BRANCH   1  17
ATOM     17  N   UNL     1      43.965   3.983  10.317  0.00  0.00    +0.000 N 
ATOM     18  H   UNL     1      42.980   3.811  10.148  0.00  0.00    +0.000 HD
BRANCH  17  22
ATOM     19  C   UNL     1      46.683   2.512   7.415  0.00  0.00    +0.000 A 
ATOM     20  C   UNL     1      46.050   1.619   8.278  0.00  0.00    +0.000 A 
ATOM     21  C   UNL     1      45.148   2.090   9.240  0.00  0.00    +0.000 A 
ATOM     22  C   UNL     1      44.826   3.451   9.335  0.00  0.00    +0.000 A 
ATOM     23  C   UNL     1      45.490   4.335   8.471  0.00  0.00    +0.000 A 
ATOM     24  C   UNL     1      46.409   3.875   7.520  0.00  0.00    +0.000 A 
BRANCH  19  26
ATOM     25  N   UNL     1      48.385   1.642   5.655  0.00  0.00    +0.000 NA
ATOM     26  C   UNL     1      47.627   2.033   6.439  0.00  0.00    +0.000 C 
ENDBRANCH  19  26
ENDBRANCH  17  22
ENDBRANCH   1  17
TORSDOF 5
ENDMDL
MODEL 4
REMARK VINA RESULT:    -6.875      2.113      7.432
REMARK INTER + INTRA:          -9.695
REMARK INTER:                  -9.578
REMARK INTRA:                  -0.117
REMARK UNBOUND:                -0.811
REMARK  Name = 
REMARK  5 active torsions:
REMARK  status: ('A' for Active; 'I' for Inactive)
REMARK    1  A    between atoms: C_2  and  C_3
REMARK    2  A    between atoms: C_6  and  N_7
REMARK    3  A    between atoms: N_7  and  C_8
REMARK    4  A    between atoms: C_8  and  C_9
REMARK    5  A    between atoms: C_14  and  C_15
REMARK                            x       y       z     vdW  Elec       q    Type
REMARK                         _______ _______ _______ _____ _____    ______ ____
ROOT
ATOM      1  C   UNL     1      46.379   7.501  12.331  0.00  0.00    +0.000 C 
ATOM      2  C   UNL     1      46.324   8.937  11.838  0.00  0.00    +0.000 C 
ATOM      3  C   UNL     1      45.639   8.588  13.112  0.00  0.00    +0.000 C 
ENDROOT
BRANCH   1   4
ATOM      4  C   UNL     1      45.422   6.432  11.811  0.00  0.00    +0.000 A 
ATOM      5  C   UNL     1      44.054   6.487  12.118  0.00  0.00    +0.000 A 
ATOM      6  C   UNL     1      43.149   5.666  11.462  0.00  0.00    +0.000 A 
ATOM      7  F   UNL     1      41.838   5.801  11.708  0.00  0.00    +0.000 F 
ATOM      8  C   UNL     1      43.573   4.746  10.511  0.00  0.00    +0.000 A 
ATOM      9  C   UNL     1      44.938   4.602  10.221  0.00  0.00    +0.000 A 
ATOM     10  C   UNL     1      45.840   5.445  10.901  0.00  0.00    +0.000 A 
BRANCH   9  11
ATOM     11  C   UNL     1      45.421   3.661   9.192  0.00  0.00    +0.000 A 
ATOM     12  C   UNL     1      46.052   4.099   8.020  0.00  0.00    +0.000 A 
ATOM     13  C   UNL     1      46.544   3.180   7.093  0.00  0.00    +0.000 A 
ATOM     14  C   UNL     1      46.399   1.832   7.364  0.00  0.00    +0.000 A 
ATOM     15  N   UNL     1      45.796   1.355   8.470  0.00  0.00    +0.000 NA
ATOM     16  C   UNL     1      45.320   2.274   9.345  0.00  0.00    +0.000 A 
ENDBRANCH   9  11
ENDBRANCH   1   4
BRANCH   1  17
ATOM     17  N   UNL     1      47.663   6.984  12.821  0.00  0.00    +0.000 N 
ATOM     18  H   UNL     1      48.426   6.884  12.160  0.00  0.00    +0.000 HD
BRANCH  17  22
ATOM     19  C   UNL     1      48.120   4.940  16.506  0.00  0.00    +0.000 A 
ATOM     20  C   UNL     1      47.292   4.403  15.521  0.00  0.00    +0.000 A 
ATOM     21  C   UNL     1      47.134   5.066  14.298  0.00  0.00    +0.000 A 
ATOM     22  C   UNL     1      47.826   6.251  14.014  0.00  0.00    +0.000 A 
ATOM     23  C   UNL     1      48.638   6.784  15.026  0.00  0.00    +0.000 A 
ATOM     24  C   UNL     1      48.786   6.139  16.260  0.00  0.00    +0.000 A 
BRANCH  19  26
ATOM     25  N   UNL     1      48.385   3.730  18.790  0.00  0.00    +0.000 NA
ATOM     26  C   UNL     1      48.269   4.271  17.773  0.00  0.00    +0.000 C 
ENDBRANCH  19  26
ENDBRANCH  17  22
ENDBRANCH   1  17
TORSDOF 5
ENDMDL
MODEL 5
REMARK VINA RESULT:    -6.460      3.034      7.029
REMARK INTER + INTRA:          -9.159
REMARK INTER:                  -8.384
REMARK INTRA:                  -0.775
REMARK UNBOUND:                -0.811
REMARK  Name = 
REMARK  5 active torsions:
REMARK  status: ('A' for Active; 'I' for Inactive)
REMARK    1  A    between atoms: C_2  and  C_3
REMARK    2  A    between atoms: C_6  and  N_7
REMARK    3  A    between atoms: N_7  and  C_8
REMARK    4  A    between atoms: C_8  and  C_9
REMARK    5  A    between atoms: C_14  and  C_15
REMARK                            x       y       z     vdW  Elec       q    Type
REMARK                         _______ _______ _______ _____ _____    ______ ____
ROOT
ATOM      1  C   UNL     1      43.796   5.728  11.826  0.00  0.00    +0.000 C 
ATOM      2  C   UNL     1      43.142   6.780  10.949  0.00  0.00    +0.000 C 
ATOM      3  C   UNL     1      42.296   6.017  11.906  0.00  0.00    +0.000 C 
ENDROOT
BRANCH   1   4
ATOM      4  C   UNL     1      44.071   4.314  11.322  0.00  0.00    +0.000 A 
ATOM      5  C   UNL     1      43.392   3.216  11.871  0.00  0.00    +0.000 A 
ATOM      6  C   UNL     1      43.457   1.970  11.265  0.00  0.00    +0.000 A 
ATOM      7  F   UNL     1      42.729   0.958  11.757  0.00  0.00    +0.000 F 
ATOM      8  C   UNL     1      44.221   1.768  10.121  0.00  0.00    +0.000 A 
ATOM      9  C   UNL     1      44.976   2.816   9.575  0.00  0.00    +0.000 A 
ATOM     10  C   UNL     1      44.896   4.073  10.209  0.00  0.00    +0.000 A 
BRANCH   9  11
ATOM     11  C   UNL     1      45.769   2.647   8.343  0.00  0.00    +0.000 A 
ATOM     12  C   UNL     1      45.977   3.700   7.441  0.00  0.00    +0.000 A 
ATOM     13  C   UNL     1      46.776   3.519   6.313  0.00  0.00    +0.000 A 
ATOM     14  C   UNL     1      47.360   2.282   6.112  0.00  0.00    +0.000 A 
ATOM     15  N   UNL     1      47.188   1.234   6.941  0.00  0.00    +0.000 NA
ATOM     16  C   UNL     1      46.398   1.440   8.023  0.00  0.00    +0.000 A 
ENDBRANCH   9  11
ENDBRANCH   1   4
BRANCH   1  17
ATOM     17  N   UNL     1      44.693   6.177  12.900  0.00  0.00    +0.000 N 
ATOM     18  H   UNL     1      44.282   6.473  13.779  0.00  0.00    +0.000 HD
BRANCH  17  22
ATOM     19  C   UNL     1      48.643   7.631  12.408  0.00  0.00    +0.000 A 
ATOM     20  C   UNL     1      48.443   6.328  12.862  0.00  0.00    +0.000 A 
ATOM     21  C   UNL     1      47.143   5.834  13.026  0.00  0.00    +0.000 A 
ATOM     22  C   UNL     1      46.020   6.608  12.704  0.00  0.00    +0.000 A 
ATOM     23  C   UNL     1      46.244   7.923  12.269  0.00  0.00    +0.000 A 
ATOM     24  C   UNL     1      47.540   8.433  12.121  0.00  0.00    +0.000 A 
BRANCH  19  26
ATOM     25  N   UNL     1      51.054   8.562  12.136  0.00  0.00    +0.000 NA
ATOM     26  C   UNL     1      49.979   8.150  12.258  0.00  0.00    +0.000 C 
ENDBRANCH  19  26
ENDBRANCH  17  22
ENDBRANCH   1  17
TORSDOF 5
ENDMDL
MODEL 6
REMARK VINA RESULT:    -6.335      2.819      6.877
REMARK INTER + INTRA:          -8.998
REMARK INTER:                  -8.595
REMARK INTRA:                  -0.403
REMARK UNBOUND:                -0.811
REMARK  Name = 
REMARK  5 active torsions:
REMARK  status: ('A' for Active; 'I' for Inactive)
REMARK    1  A    between atoms: C_2  and  C_3
REMARK    2  A    between atoms: C_6  and  N_7
REMARK    3  A    between atoms: N_7  and  C_8
REMARK    4  A    between atoms: C_8  and  C_9
REMARK    5  A    between atoms: C_14  and  C_15
REMARK                            x       y       z     vdW  Elec       q    Type
REMARK                         _______ _______ _______ _____ _____    ______ ____
ROOT
ATOM      1  C   UNL     1      46.283   5.126  13.914  0.00  0.00    +0.000 C 
ATOM      2  C   UNL     1      46.401   4.312  15.191  0.00  0.00    +0.000 C 
ATOM      3  C   UNL     1      47.342   4.033  14.072  0.00  0.00    +0.000 C 
ENDROOT
BRANCH   1   4
ATOM      4  C   UNL     1      45.273   4.777  12.825  0.00  0.00    +0.000 A 
ATOM      5  C   UNL     1      43.952   5.240  12.902  0.00  0.00    +0.000 A 
ATOM      6  C   UNL     1      43.100   5.131  11.812  0.00  0.00    +0.000 A 
ATOM      7  F   UNL     1      41.871   5.662  11.880  0.00  0.00    +0.000 F 
ATOM      8  C   UNL     1      43.519   4.532  10.630  0.00  0.00    +0.000 A 
ATOM      9  C   UNL     1      44.808   3.987  10.528  0.00  0.00    +0.000 A 
ATOM     10  C   UNL     1      45.656   4.108  11.648  0.00  0.00    +0.000 A 
BRANCH   9  11
ATOM     11  C   UNL     1      45.299   3.375   9.279  0.00  0.00    +0.000 A 
ATOM     12  C   UNL     1      45.688   4.146   8.174  0.00  0.00    +0.000 A 
ATOM     13  C   UNL     1      46.197   3.536   7.028  0.00  0.00    +0.000 A 
ATOM     14  C   UNL     1      46.314   2.159   7.013  0.00  0.00    +0.000 A 
ATOM     15  N   UNL     1      45.949   1.369   8.042  0.00  0.00    +0.000 NA
ATOM     16  C   UNL     1      45.448   1.992   9.137  0.00  0.00    +0.000 A 
ENDBRANCH   9  11
ENDBRANCH   1   4
BRANCH   1  17
ATOM     17  N   UNL     1      46.671   6.542  13.954  0.00  0.00    +0.000 N 
ATOM     18  H   UNL     1      45.968   7.227  14.208  0.00  0.00    +0.000 HD
BRANCH  17  22
ATOM     19  C   UNL     1      50.174   8.029  12.088  0.00  0.00    +0.000 A 
ATOM     20  C   UNL     1      49.046   7.760  11.314  0.00  0.00    +0.000 A 
ATOM     21  C   UNL     1      47.881   7.270  11.918  0.00  0.00    +0.000 A 
ATOM     22  C   UNL     1      47.801   7.080  13.304  0.00  0.00    +0.000 A 
ATOM     23  C   UNL     1      48.954   7.337  14.061  0.00  0.00    +0.000 A 
ATOM     24  C   UNL     1      50.130   7.806  13.463  0.00  0.00    +0.000 A 
BRANCH  19  26
ATOM     25  N   UNL     1      52.354   8.899  10.971  0.00  0.00    +0.000 NA
ATOM     26  C   UNL     1      51.381   8.512  11.467  0.00  0.00    +0.000 C 
ENDBRANCH  19  26
ENDBRANCH  17  22
ENDBRANCH   1  17
TORSDOF 5
ENDMDL
MODEL 7
REMARK VINA RESULT:    -6.197      2.438      7.825
REMARK INTER + INTRA:          -8.820
REMARK INTER:                  -7.969
REMARK INTRA:                  -0.850
REMARK UNBOUND:                -0.811
REMARK  Name = 
REMARK  5 active torsions:
REMARK  status: ('A' for Active; 'I' for Inactive)
REMARK    1  A    between atoms: C_2  and  C_3
REMARK    2  A    between atoms: C_6  and  N_7
REMARK    3  A    between atoms: N_7  and  C_8
REMARK    4  A    between atoms: C_8  and  C_9
REMARK    5  A    between atoms: C_14  and  C_15
REMARK                            x       y       z     vdW  Elec       q    Type
REMARK                         _______ _______ _______ _____ _____    ______ ____
ROOT
ATOM      1  C   UNL     1      48.914   8.074  12.606  0.00  0.00    +0.000 C 
ATOM      2  C   UNL     1      50.002   7.450  11.749  0.00  0.00    +0.000 C 
ATOM      3  C   UNL     1      49.578   8.848  11.466  0.00  0.00    +0.000 C 
ENDROOT
BRANCH   1   4
ATOM      4  C   UNL     1      47.433   7.830  12.333  0.00  0.00    +0.000 A 
ATOM      5  C   UNL     1      46.488   8.840  12.564  0.00  0.00    +0.000 A 
ATOM      6  C   UNL     1      45.187   8.712  12.100  0.00  0.00    +0.000 A 
ATOM      7  F   UNL     1      44.328   9.729  12.255  0.00  0.00    +0.000 F 
ATOM      8  C   UNL     1      44.776   7.568  11.425  0.00  0.00    +0.000 A 
ATOM      9  C   UNL     1      45.663   6.499  11.233  0.00  0.00    +0.000 A 
ATOM     10  C   UNL     1      46.979   6.651  11.714  0.00  0.00    +0.000 A 
BRANCH   9  11
ATOM     11  C   UNL     1      45.272   5.285  10.491  0.00  0.00    +0.000 A 
ATOM     12  C   UNL     1      45.637   5.079   9.153  0.00  0.00    +0.000 A 
ATOM     13  C   UNL     1      45.295   3.897   8.499  0.00  0.00    +0.000 A 
ATOM     14  C   UNL     1      44.595   2.935   9.203  0.00  0.00    +0.000 A 
ATOM     15  N   UNL     1      44.212   3.082  10.486  0.00  0.00    +0.000 NA
ATOM     16  C   UNL     1      44.551   4.247  11.090  0.00  0.00    +0.000 A 
ENDBRANCH   9  11
ENDBRANCH   1   4
BRANCH   1  17
ATOM     17  N   UNL     1      49.231   8.399  14.003  0.00  0.00    +0.000 N 
ATOM     18  H   UNL     1      49.482   9.355  14.230  0.00  0.00    +0.000 HD
BRANCH  17  22
ATOM     19  C   UNL     1      50.433   5.691  17.034  0.00  0.00    +0.000 A 
ATOM     20  C   UNL     1      49.099   5.721  16.629  0.00  0.00    +0.000 A 
ATOM     21  C   UNL     1      48.689   6.608  15.627  0.00  0.00    +0.000 A 
ATOM     22  C   UNL     1      49.601   7.452  14.980  0.00  0.00    +0.000 A 
ATOM     23  C   UNL     1      50.934   7.421  15.417  0.00  0.00    +0.000 A 
ATOM     24  C   UNL     1      51.350   6.552  16.433  0.00  0.00    +0.000 A 
BRANCH  19  26
ATOM     25  N   UNL     1      51.197   4.076  18.921  0.00  0.00    +0.000 NA
ATOM     26  C   UNL     1      50.854   4.795  18.080  0.00  0.00    +0.000 C 
ENDBRANCH  19  26
ENDBRANCH  17  22
ENDBRANCH   1  17
TORSDOF 5
ENDMDL
MODEL 8
REMARK VINA RESULT:    -6.110      3.455      6.013
REMARK INTER + INTRA:          -8.707
REMARK INTER:                  -7.731
REMARK INTRA:                  -0.976
REMARK UNBOUND:                -0.811
REMARK  Name = 
REMARK  5 active torsions:
REMARK  status: ('A' for Active; 'I' for Inactive)
REMARK    1  A    between atoms: C_2  and  C_3
REMARK    2  A    between atoms: C_6  and  N_7
REMARK    3  A    between atoms: N_7  and  C_8
REMARK    4  A    between atoms: C_8  and  C_9
REMARK    5  A    between atoms: C_14  and  C_15
REMARK                            x       y       z     vdW  Elec       q    Type
REMARK                         _______ _______ _______ _____ _____    ______ ____
ROOT
ATOM      1  C   UNL     1      49.033   7.550  15.474  0.00  0.00    +0.000 C 
ATOM      2  C   UNL     1      48.390   8.923  15.548  0.00  0.00    +0.000 C 
ATOM      3  C   UNL     1      49.869   8.817  15.662  0.00  0.00    +0.000 C 
ENDROOT
BRANCH   1   4
ATOM      4  C   UNL     1      49.119   6.633  16.691  0.00  0.00    +0.000 A 
ATOM      5  C   UNL     1      48.191   6.745  17.736  0.00  0.00    +0.000 A 
ATOM      6  C   UNL     1      48.116   5.771  18.722  0.00  0.00    +0.000 A 
ATOM      7  F   UNL     1      47.162   5.854  19.659  0.00  0.00    +0.000 F 
ATOM      8  C   UNL     1      48.978   4.681  18.720  0.00  0.00    +0.000 A 
ATOM      9  C   UNL     1      49.972   4.561  17.738  0.00  0.00    +0.000 A 
ATOM     10  C   UNL     1      50.030   5.563  16.747  0.00  0.00    +0.000 A 
BRANCH   9  11
ATOM     11  C   UNL     1      50.880   3.400  17.684  0.00  0.00    +0.000 A 
ATOM     12  C   UNL     1      52.214   3.478  18.106  0.00  0.00    +0.000 A 
ATOM     13  C   UNL     1      53.030   2.347  18.091  0.00  0.00    +0.000 A 
ATOM     14  C   UNL     1      52.488   1.151  17.656  0.00  0.00    +0.000 A 
ATOM     15  N   UNL     1      51.216   1.020  17.233  0.00  0.00    +0.000 NA
ATOM     16  C   UNL     1      50.453   2.141  17.251  0.00  0.00    +0.000 A 
ENDBRANCH   9  11
ENDBRANCH   1   4
BRANCH   1  17
ATOM     17  N   UNL     1      49.031   6.850  14.183  0.00  0.00    +0.000 N 
ATOM     18  H   UNL     1      49.859   6.914  13.599  0.00  0.00    +0.000 HD
BRANCH  17  22
ATOM     19  C   UNL     1      45.641   5.586  11.976  0.00  0.00    +0.000 A 
ATOM     20  C   UNL     1      45.991   4.910  13.145  0.00  0.00    +0.000 A 
ATOM     21  C   UNL     1      47.107   5.319  13.885  0.00  0.00    +0.000 A 
ATOM     22  C   UNL     1      47.870   6.430  13.503  0.00  0.00    +0.000 A 
ATOM     23  C   UNL     1      47.513   7.082  12.313  0.00  0.00    +0.000 A 
ATOM     24  C   UNL     1      46.411   6.668  11.555  0.00  0.00    +0.000 A 
BRANCH  19  26
ATOM     25  N   UNL     1      43.592   4.805  10.581  0.00  0.00    +0.000 NA
ATOM     26  C   UNL     1      44.506   5.155  11.201  0.00  0.00    +0.000 C 
ENDBRANCH  19  26
ENDBRANCH  17  22
ENDBRANCH   1  17
TORSDOF 5
ENDMDL
MODEL 9
REMARK VINA RESULT:    -6.101      2.908      7.581
REMARK INTER + INTRA:          -8.695
REMARK INTER:                  -7.598
REMARK INTRA:                  -1.097
REMARK UNBOUND:                -0.811
REMARK  Name = 
REMARK  5 active torsions:
REMARK  status: ('A' for Active; 'I' for Inactive)
REMARK    1  A    between atoms: C_2  and  C_3
REMARK    2  A    between atoms: C_6  and  N_7
REMARK    3  A    between atoms: N_7  and  C_8
REMARK    4  A    between atoms: C_8  and  C_9
REMARK    5  A    between atoms: C_14  and  C_15
REMARK                            x       y       z     vdW  Elec       q    Type
REMARK                         _______ _______ _______ _____ _____    ______ ____
ROOT
ATOM      1  C   UNL     1      48.725   8.254  16.425  0.00  0.00    +0.000 C 
ATOM      2  C   UNL     1      49.652   9.319  16.982  0.00  0.00    +0.000 C 
ATOM      3  C   UNL     1      48.237   9.678  16.694  0.00  0.00    +0.000 C 
ENDROOT
BRANCH   1   4
ATOM      4  C   UNL     1      48.685   7.917  14.937  0.00  0.00    +0.000 A 
ATOM      5  C   UNL     1      49.750   8.272  14.096  0.00  0.00    +0.000 A 
ATOM      6  C   UNL     1      49.832   7.766  12.807  0.00  0.00    +0.000 A 
ATOM      7  F   UNL     1      50.905   8.048  12.055  0.00  0.00    +0.000 F 
ATOM      8  C   UNL     1      48.847   6.924  12.303  0.00  0.00    +0.000 A 
ATOM      9  C   UNL     1      47.725   6.598  13.078  0.00  0.00    +0.000 A 
ATOM     10  C   UNL     1      47.662   7.125  14.385  0.00  0.00    +0.000 A 
BRANCH   9  11
ATOM     11  C   UNL     1      46.679   5.681  12.589  0.00  0.00    +0.000 A 
ATOM     12  C   UNL     1      46.013   5.890  11.374  0.00  0.00    +0.000 A 
ATOM     13  C   UNL     1      45.067   4.974  10.916  0.00  0.00    +0.000 A 
ATOM     14  C   UNL     1      44.808   3.856  11.688  0.00  0.00    +0.000 A 
ATOM     15  N   UNL     1      45.413   3.608  12.866  0.00  0.00    +0.000 NA
ATOM     16  C   UNL     1      46.320   4.523  13.286  0.00  0.00    +0.000 A 
ENDBRANCH   9  11
ENDBRANCH   1   4
BRANCH   1  17
ATOM     17  N   UNL     1      48.317   7.155  17.309  0.00  0.00    +0.000 N 
ATOM     18  H   UNL     1      47.732   7.371  18.109  0.00  0.00    +0.000 HD
BRANCH  17  22
ATOM     19  C   UNL     1      50.180   3.348  17.380  0.00  0.00    +0.000 A 
ATOM     20  C   UNL     1      50.961   4.497  17.498  0.00  0.00    +0.000 A 
ATOM     21  C   UNL     1      50.359   5.761  17.479  0.00  0.00    +0.000 A 
ATOM     22  C   UNL     1      48.968   5.906  17.385  0.00  0.00    +0.000 A 
ATOM     23  C   UNL     1      48.203   4.739  17.246  0.00  0.00    +0.000 A 
ATOM     24  C   UNL     1      48.799   3.471  17.243  0.00  0.00    +0.000 A 
BRANCH  19  26
ATOM     25  N   UNL     1      51.295   1.001  17.372  0.00  0.00    +0.000 NA
ATOM     26  C   UNL     1      50.799   2.048  17.378  0.00  0.00    +0.000 C 
ENDBRANCH  19  26
ENDBRANCH  17  22
ENDBRANCH   1  17
TORSDOF 5
ENDMDL
