MODEL 1
REMARK VINA RESULT:    -7.365      0.000      0.000
REMARK INTER + INTRA:         -12.540
REMARK INTER:                 -11.455
REMARK INTRA:                  -1.084
REMARK UNBOUND:                -1.084
REMARK  Name = 
REMARK  10 active torsions:
REMARK  status: ('A' for Active; 'I' for Inactive)
REMARK    1  A    between atoms: N_1  and  C_2
REMARK    2  A    between atoms: C_2  and  C_3
REMARK    3  A    between atoms: C_3  and  C_4
REMARK    4  A    between atoms: C_4  and  N_5
REMARK    5  A    between atoms: C_8  and  C_9
REMARK    6  A    between atoms: N_11  and  C_12
REMARK    7  A    between atoms: C_12  and  C_13
REMARK    8  A    between atoms: C_16  and  C_17
REMARK    9  A    between atoms: C_17  and  N_18
REMARK   10  A    between atoms: C_19  and  C_21
REMARK                            x       y       z     vdW  Elec       q    Type
REMARK                         _______ _______ _______ _____ _____    ______ ____
ROOT
ATOM      1  C   UNL     1      47.315   5.999  13.690  0.00  0.00    +0.000 A 
ATOM      2  C   UNL     1      48.139   6.376  14.759  0.00  0.00    +0.000 A 
ATOM      3  C   UNL     1      48.250   5.564  15.894  0.00  0.00    +0.000 A 
ATOM      4  C   UNL     1      47.555   4.349  15.971  0.00  0.00    +0.000 A 
ATOM      5  C   UNL     1      46.726   3.980  14.903  0.00  0.00    +0.000 A 
ATOM      6  C   UNL     1      46.617   4.788  13.769  0.00  0.00    +0.000 A 
ENDROOT
BRANCH   1   7
ATOM      7  C   UNL     1      47.181   6.878  12.481  0.00  0.00    +0.000 C 
BRANCH   7  10
ATOM      8  C   UNL     1      45.235   6.327  11.121  0.00  0.00    +0.000 C 
ATOM      9  O   UNL     1      44.517   7.026  11.829  0.00  0.00    +0.000 OA
ATOM     10  N   UNL     1      46.584   6.191  11.360  0.00  0.00    +0.000 N 
ATOM     11  H   UNL     1      47.184   5.671  10.725  0.00  0.00    +0.000 HD
BRANCH   8  15
ATOM     12  N   UNL     1      45.799   3.582   9.015  0.00  0.00    +0.000 NA
ATOM     13  C   UNL     1      44.931   3.215  10.145  0.00  0.00    +0.000 C 
ATOM     14  C   UNL     1      43.916   4.338  10.255  0.00  0.00    +0.000 C 
ATOM     15  C   UNL     1      44.721   5.582   9.896  0.00  0.00    +0.000 C 
ATOM     16  C   UNL     1      45.872   5.056   9.038  0.00  0.00    +0.000 C 
BRANCH  12  17
ATOM     17  C   UNL     1      45.333   3.018   7.738  0.00  0.00    +0.000 C 
BRANCH  17  18
ATOM     18  C   UNL     1      46.434   3.030   6.664  0.00  0.00    +0.000 C 
BRANCH  18  19
ATOM     19  C   UNL     1      47.520   1.986   6.919  0.00  0.00    +0.000 C 
BRANCH  19  20
ATOM     20  N   UNL     1      48.365   1.879   5.731  0.00  0.00    +0.000 NA
ATOM     21  H   UNL     1      48.382   0.916   5.400  0.00  0.00    +0.000 HD
ATOM     22  H   UNL     1      49.325   2.121   5.971  0.00  0.00    +0.000 HD
ENDBRANCH  19  20
ENDBRANCH  18  19
ENDBRANCH  17  18
ENDBRANCH  12  17
ENDBRANCH   8  15
ENDBRANCH   7  10
ENDBRANCH   1   7
BRANCH   4  23
ATOM     23  C   UNL     1      47.659   3.461  17.185  0.00  0.00    +0.000 C 
BRANCH  23  24
ATOM     24  N   UNL     1      49.032   3.250  17.568  0.00  0.00    +0.000 N 
ATOM     25  C   UNL     1      49.827   2.349  16.908  0.00  0.00    +0.000 C 
ATOM     26  O   UNL     1      49.427   1.706  15.940  0.00  0.00    +0.000 OA
ATOM     27  H   UNL     1      49.293   3.537  18.507  0.00  0.00    +0.000 HD
BRANCH  25  28
ATOM     28  C   UNL     1      51.214   2.238  17.381  0.00  0.00    +0.000 A 
ATOM     29  C   UNL     1      51.809   0.989  17.495  0.00  0.00    +0.000 A 
ATOM     30  S   UNL     1      53.437   1.055  18.007  0.00  0.00    +0.000 S 
ATOM     31  C   UNL     1      53.383   2.750  18.146  0.00  0.00    +0.000 A 
ATOM     32  N   UNL     1      54.464   3.453  18.578  0.00  0.00    +0.000 NA
ATOM     33  C   UNL     1      54.275   4.728  18.657  0.00  0.00    +0.000 A 
ATOM     34  N   UNL     1      53.106   5.365  18.336  0.00  0.00    +0.000 N 
ATOM     35  C   UNL     1      51.995   4.700  17.875  0.00  0.00    +0.000 A 
ATOM     36  O   UNL     1      50.974   5.303  17.564  0.00  0.00    +0.000 OA
ATOM     37  C   UNL     1      52.150   3.260  17.781  0.00  0.00    +0.000 A 
ATOM     38  H   UNL     1      53.025   6.370  18.407  0.00  0.00    +0.000 HD
ENDBRANCH  25  28
ENDBRANCH  23  24
ENDBRANCH   4  23
TORSDOF 10
ENDMDL
MODEL 2
REMARK VINA RESULT:    -7.201      2.751      4.005
REMARK INTER + INTRA:         -12.284
REMARK INTER:                 -10.778
REMARK INTRA:                  -1.506
REMARK UNBOUND:                -1.084
REMARK  Name = 
REMARK  10 active torsions:
REMARK  status: ('A' for Active; 'I' for Inactive)
REMARK    1  A    between atoms: N_1  and  C_2
REMARK    2  A    between atoms: C_2  and  C_3
REMARK    3  A    between atoms: C_3  and  C_4
REMARK    4  A    between atoms: C_4  and  N_5
REMARK    5  A    between atoms: C_8  and  C_9
REMARK    6  A    between atoms: N_11  and  C_12
REMARK    7  A    between atoms: C_12  and  C_13
REMARK    8  A    between atoms: C_16  and  C_17
REMARK    9  A    between atoms: C_17  and  N_18
REMARK   10  A    between atoms: C_19  and  C_21
REMARK                            x       y       z     vdW  Elec       q    Type
REMARK                         _______ _______ _______ _____ _____    ______ ____
ROOT
ATOM      1  C   UNL     1      46.067   8.151  12.036  0.00  0.00    +0.000 A 
ATOM      2  C   UNL     1      46.545   9.279  12.716  0.00  0.00    +0.000 A 
ATOM      3  C   UNL     1      47.791   9.252  13.354  0.00  0.00    +0.000 A 
ATOM      4  C   UNL     1      48.591   8.102  13.306  0.00  0.00    +0.000 A 
ATOM      5  C   UNL     1      48.105   6.973  12.632  0.00  0.00    +0.000 A 
ATOM      6  C   UNL     1      46.863   7.001  11.993  0.00  0.00    +0.000 A 
ENDROOT
BRANCH   1   7
ATOM      7  C   UNL     1      44.723   8.173  11.368  0.00  0.00    +0.000 C 
BRANCH   7  10
ATOM      8  C   UNL     1      43.736   5.945  11.369  0.00  0.00    +0.000 C 
ATOM      9  O   UNL     1      43.367   6.088  12.531  0.00  0.00    +0.000 OA
ATOM     10  N   UNL     1      44.419   6.933  10.695  0.00  0.00    +0.000 N 
ATOM     11  H   UNL     1      44.655   6.835   9.712  0.00  0.00    +0.000 HD
BRANCH   8  15
ATOM     12  N   UNL     1      45.192   3.184   9.776  0.00  0.00    +0.000 NA
ATOM     13  C   UNL     1      44.865   2.876  11.177  0.00  0.00    +0.000 C 
ATOM     14  C   UNL     1      43.465   3.421  11.392  0.00  0.00    +0.000 C 
ATOM     15  C   UNL     1      43.445   4.693  10.553  0.00  0.00    +0.000 C 
ATOM     16  C   UNL     1      44.513   4.461   9.485  0.00  0.00    +0.000 C 
BRANCH  12  17
ATOM     17  C   UNL     1      44.839   2.087   8.860  0.00  0.00    +0.000 C 
BRANCH  17  18
ATOM     18  C   UNL     1      46.084   1.382   8.295  0.00  0.00    +0.000 C 
BRANCH  18  19
ATOM     19  C   UNL     1      46.850   2.246   7.295  0.00  0.00    +0.000 C 
BRANCH  19  20
ATOM     20  N   UNL     1      47.992   1.488   6.787  0.00  0.00    +0.000 NA
ATOM     21  H   UNL     1      47.821   1.202   5.825  0.00  0.00    +0.000 HD
ATOM     22  H   UNL     1      48.103   0.632   7.329  0.00  0.00    +0.000 HD
ENDBRANCH  19  20
ENDBRANCH  18  19
ENDBRANCH  17  18
ENDBRANCH  12  17
ENDBRANCH   8  15
ENDBRANCH   7  10
ENDBRANCH   1   7
BRANCH   4  23
ATOM     23  C   UNL     1      49.935   8.051  13.988  0.00  0.00    +0.000 C 
BRANCH  23  24
ATOM     24  N   UNL     1      49.953   7.072  15.044  0.00  0.00    +0.000 N 
ATOM     25  C   UNL     1      49.554   7.387  16.317  0.00  0.00    +0.000 C 
ATOM     26  O   UNL     1      49.128   8.501  16.614  0.00  0.00    +0.000 OA
ATOM     27  H   UNL     1      50.551   6.262  14.905  0.00  0.00    +0.000 HD
BRANCH  25  28
ATOM     28  C   UNL     1      49.601   6.297  17.301  0.00  0.00    +0.000 A 
ATOM     29  C   UNL     1      50.461   6.381  18.388  0.00  0.00    +0.000 A 
ATOM     30  S   UNL     1      50.343   5.052  19.454  0.00  0.00    +0.000 S 
ATOM     31  C   UNL     1      49.179   4.295  18.470  0.00  0.00    +0.000 A 
ATOM     32  N   UNL     1      48.667   3.079  18.799  0.00  0.00    +0.000 NA
ATOM     33  C   UNL     1      47.812   2.612  17.952  0.00  0.00    +0.000 A 
ATOM     34  N   UNL     1      47.415   3.255  16.809  0.00  0.00    +0.000 N 
ATOM     35  C   UNL     1      47.888   4.493  16.446  0.00  0.00    +0.000 A 
ATOM     36  O   UNL     1      47.488   5.058  15.434  0.00  0.00    +0.000 OA
ATOM     37  C   UNL     1      48.865   5.057  17.359  0.00  0.00    +0.000 A 
ATOM     38  H   UNL     1      46.730   2.842  16.192  0.00  0.00    +0.000 HD
ENDBRANCH  25  28
ENDBRANCH  23  24
ENDBRANCH   4  23
TORSDOF 10
ENDMDL
MODEL 3
REMARK VINA RESULT:    -7.019      2.300      3.287
REMARK INTER + INTRA:         -12.002
REMARK INTER:                 -10.637
REMARK INTRA:                  -1.364
REMARK UNBOUND:                -1.084
REMARK  Name = 
REMARK  10 active torsions:
REMARK  status: ('A' for Active; 'I' for Inactive)
REMARK    1  A    between atoms: N_1  and  C_2
REMARK    2  A    between atoms: C_2  and  C_3
REMARK    3  A    between atoms: C_3  and  C_4
REMARK    4  A    between atoms: C_4  and  N_5
REMARK    5  A    between atoms: C_8  and  C_9
REMARK    6  A    between atoms: N_11  and  C_12
REMARK    7  A    between atoms: C_12  and  C_13
REMARK    8  A    between atoms: C_16  and  C_17
REMARK    9  A    between atoms: C_17  and  N_18
REMARK   10  A    between atoms: C_19  and  C_21
REMARK                            x       y       z     vdW  Elec       q    Type
REMARK                         _______ _______ _______ _____ _____    ______ ____
ROOT
ATOM      1  C   UNL     1      45.925   7.961  12.122  0.00  0.00    +0.000 A 
ATOM      2  C   UNL     1      46.934   7.082  11.707  0.00  0.00    +0.000 A 
ATOM      3  C   UNL     1      48.210   7.138  12.282  0.00  0.00    +0.000 A 
ATOM      4  C   UNL     1      48.492   8.061  13.299  0.00  0.00    +0.000 A 
ATOM      5  C   UNL     1      47.482   8.945  13.704  0.00  0.00    +0.000 A 
ATOM      6  C   UNL     1      46.209   8.887  13.132  0.00  0.00    +0.000 A 
ENDROOT
BRANCH   1   7
ATOM      7  C   UNL     1      44.564   7.914  11.493  0.00  0.00    +0.000 C 
BRANCH   7  10
ATOM      8  C   UNL     1      43.572   5.687  11.482  0.00  0.00    +0.000 C 
ATOM      9  O   UNL     1      43.124   5.860  12.611  0.00  0.00    +0.000 OA
ATOM     10  N   UNL     1      44.302   6.657  10.831  0.00  0.00    +0.000 N 
ATOM     11  H   UNL     1      44.605   6.535   9.869  0.00  0.00    +0.000 HD
BRANCH   8  15
ATOM     12  N   UNL     1      45.145   3.067   9.767  0.00  0.00    +0.000 NA
ATOM     13  C   UNL     1      44.949   2.731  11.186  0.00  0.00    +0.000 C 
ATOM     14  C   UNL     1      43.526   3.150  11.505  0.00  0.00    +0.000 C 
ATOM     15  C   UNL     1      43.334   4.416  10.679  0.00  0.00    +0.000 C 
ATOM     16  C   UNL     1      44.338   4.281   9.535  0.00  0.00    +0.000 C 
BRANCH  12  17
ATOM     17  C   UNL     1      44.826   1.945   8.870  0.00  0.00    +0.000 C 
BRANCH  17  18
ATOM     18  C   UNL     1      46.089   1.311   8.263  0.00  0.00    +0.000 C 
BRANCH  18  19
ATOM     19  C   UNL     1      46.857   2.272   7.358  0.00  0.00    +0.000 C 
BRANCH  19  20
ATOM     20  N   UNL     1      48.038   1.591   6.834  0.00  0.00    +0.000 NA
ATOM     21  H   UNL     1      48.456   2.141   6.086  0.00  0.00    +0.000 HD
ATOM     22  H   UNL     1      47.765   0.700   6.420  0.00  0.00    +0.000 HD
ENDBRANCH  19  20
ENDBRANCH  18  19
ENDBRANCH  17  18
ENDBRANCH  12  17
ENDBRANCH   8  15
ENDBRANCH   7  10
ENDBRANCH   1   7
BRANCH   4  23
ATOM     23  C   UNL     1      49.859   8.140  13.930  0.00  0.00    +0.000 C 
BRANCH  23  24
ATOM     24  N   UNL     1      50.117   7.000  14.773  0.00  0.00    +0.000 N 
ATOM     25  C   UNL     1      49.730   6.983  16.088  0.00  0.00    +0.000 C 
ATOM     26  O   UNL     1      49.115   7.913  16.603  0.00  0.00    +0.000 OA
ATOM     27  H   UNL     1      50.850   6.366  14.470  0.00  0.00    +0.000 HD
BRANCH  25  28
ATOM     28  C   UNL     1      50.034   5.756  16.838  0.00  0.00    +0.000 A 
ATOM     29  C   UNL     1      49.001   4.973  17.333  0.00  0.00    +0.000 A 
ATOM     30  S   UNL     1      49.537   3.561  18.129  0.00  0.00    +0.000 S 
ATOM     31  C   UNL     1      51.169   3.978  17.887  0.00  0.00    +0.000 A 
ATOM     32  N   UNL     1      52.172   3.192  18.362  0.00  0.00    +0.000 NA
ATOM     33  C   UNL     1      53.360   3.640  18.127  0.00  0.00    +0.000 A 
ATOM     34  N   UNL     1      53.636   4.800  17.452  0.00  0.00    +0.000 N 
ATOM     35  C   UNL     1      52.659   5.615  16.935  0.00  0.00    +0.000 A 
ATOM     36  O   UNL     1      52.939   6.629  16.306  0.00  0.00    +0.000 OA
ATOM     37  C   UNL     1      51.302   5.162  17.185  0.00  0.00    +0.000 A 
ATOM     38  H   UNL     1      54.590   5.090  17.288  0.00  0.00    +0.000 HD
ENDBRANCH  25  28
ENDBRANCH  23  24
ENDBRANCH   4  23
TORSDOF 10
ENDMDL
MODEL 4
REMARK VINA RESULT:    -6.943      3.319      4.440
REMARK INTER + INTRA:         -11.883
REMARK INTER:                 -10.725
REMARK INTRA:                  -1.158
REMARK UNBOUND:                -1.084
REMARK  Name = 
REMARK  10 active torsions:
REMARK  status: ('A' for Active; 'I' for Inactive)
REMARK    1  A    between atoms: N_1  and  C_2
REMARK    2  A    between atoms: C_2  and  C_3
REMARK    3  A    between atoms: C_3  and  C_4
REMARK    4  A    between atoms: C_4  and  N_5
REMARK    5  A    between atoms: C_8  and  C_9
REMARK    6  A    between atoms: N_11  and  C_12
REMARK    7  A    between atoms: C_12  and  C_13
REMARK    8  A    between atoms: C_16  and  C_17
REMARK    9  A    between atoms: C_17  and  N_18
REMARK   10  A    between atoms: C_19  and  C_21
REMARK                            x       y       z     vdW  Elec       q    Type
REMARK                         _______ _______ _______ _____ _____    ______ ____
ROOT
ATOM      1  C   UNL     1      46.249   7.672  12.209  0.00  0.00    +0.000 A 
ATOM      2  C   UNL     1      47.295   6.787  11.914  0.00  0.00    +0.000 A 
ATOM      3  C   UNL     1      48.491   6.830  12.641  0.00  0.00    +0.000 A 
ATOM      4  C   UNL     1      48.654   7.745  13.690  0.00  0.00    +0.000 A 
ATOM      5  C   UNL     1      47.608   8.635  13.975  0.00  0.00    +0.000 A 
ATOM      6  C   UNL     1      46.414   8.590  13.252  0.00  0.00    +0.000 A 
ENDROOT
BRANCH   1   7
ATOM      7  C   UNL     1      44.974   7.639  11.418  0.00  0.00    +0.000 C 
BRANCH   7  10
ATOM      8  C   UNL     1      43.512   5.729  11.022  0.00  0.00    +0.000 C 
ATOM      9  O   UNL     1      42.622   6.248  11.690  0.00  0.00    +0.000 OA
ATOM     10  N   UNL     1      44.726   6.348  10.821  0.00  0.00    +0.000 N 
ATOM     11  H   UNL     1      45.428   5.947  10.206  0.00  0.00    +0.000 HD
BRANCH   8  15
ATOM     12  N   UNL     1      45.242   3.068   9.537  0.00  0.00    +0.000 NA
ATOM     13  C   UNL     1      45.045   2.836  10.977  0.00  0.00    +0.000 C 
ATOM     14  C   UNL     1      43.598   3.203  11.249  0.00  0.00    +0.000 C 
ATOM     15  C   UNL     1      43.350   4.387  10.322  0.00  0.00    +0.000 C 
ATOM     16  C   UNL     1      44.375   4.214   9.202  0.00  0.00    +0.000 C 
BRANCH  12  17
ATOM     17  C   UNL     1      44.993   1.862   8.731  0.00  0.00    +0.000 C 
BRANCH  17  18
ATOM     18  C   UNL     1      46.289   1.288   8.133  0.00  0.00    +0.000 C 
BRANCH  18  19
ATOM     19  C   UNL     1      47.058   2.310   7.298  0.00  0.00    +0.000 C 
BRANCH  19  20
ATOM     20  N   UNL     1      48.140   1.628   6.590  0.00  0.00    +0.000 NA
ATOM     21  H   UNL     1      49.026   1.796   7.062  0.00  0.00    +0.000 HD
ATOM     22  H   UNL     1      48.233   2.016   5.652  0.00  0.00    +0.000 HD
ENDBRANCH  19  20
ENDBRANCH  18  19
ENDBRANCH  17  18
ENDBRANCH  12  17
ENDBRANCH   8  15
ENDBRANCH   7  10
ENDBRANCH   1   7
BRANCH   4  23
ATOM     23  C   UNL     1      49.934   7.810  14.484  0.00  0.00    +0.000 C 
BRANCH  23  24
ATOM     24  N   UNL     1      49.682   7.730  15.900  0.00  0.00    +0.000 N 
ATOM     25  C   UNL     1      49.196   6.584  16.475  0.00  0.00    +0.000 C 
ATOM     26  O   UNL     1      48.988   5.561  15.826  0.00  0.00    +0.000 OA
ATOM     27  H   UNL     1      49.569   8.610  16.393  0.00  0.00    +0.000 HD
BRANCH  25  28
ATOM     28  C   UNL     1      48.997   6.622  17.930  0.00  0.00    +0.000 A 
ATOM     29  C   UNL     1      49.433   5.564  18.717  0.00  0.00    +0.000 A 
ATOM     30  S   UNL     1      49.168   5.803  20.387  0.00  0.00    +0.000 S 
ATOM     31  C   UNL     1      48.413   7.302  20.109  0.00  0.00    +0.000 A 
ATOM     32  N   UNL     1      47.911   8.036  21.138  0.00  0.00    +0.000 NA
ATOM     33  C   UNL     1      47.345   9.141  20.781  0.00  0.00    +0.000 A 
ATOM     34  N   UNL     1      47.242   9.582  19.488  0.00  0.00    +0.000 N 
ATOM     35  C   UNL     1      47.752   8.887  18.418  0.00  0.00    +0.000 A 
ATOM     36  O   UNL     1      47.674   9.325  17.276  0.00  0.00    +0.000 OA
ATOM     37  C   UNL     1      48.387   7.628  18.765  0.00  0.00    +0.000 A 
ATOM     38  H   UNL     1      46.798  10.464  19.275  0.00  0.00    +0.000 HD
ENDBRANCH  25  28
ENDBRANCH  23  24
ENDBRANCH   4  23
TORSDOF 10
ENDMDL
MODEL 5
REMARK VINA RESULT:    -6.866      5.871      7.672
REMARK INTER + INTRA:         -11.763
REMARK INTER:                 -10.433
REMARK INTRA:                  -1.331
REMARK UNBOUND:                -1.084
REMARK  Name = 
REMARK  10 active torsions:
REMARK  status: ('A' for Active; 'I' for Inactive)
REMARK    1  A    between atoms: N_1  and  C_2
REMARK    2  A    between atoms: C_2  and  C_3
REMARK    3  A    between atoms: C_3  and  C_4
REMARK    4  A    between atoms: C_4  and  N_5
REMARK    5  A    between atoms: C_8  and  C_9
REMARK    6  A    between atoms: N_11  and  C_12
REMARK    7  A    between atoms: C_12  and  C_13
REMARK    8  A    between atoms: C_16  and  C_17
REMARK    9  A    between atoms: C_17  and  N_18
REMARK   10  A    between atoms: C_19  and  C_21
REMARK                            x       y       z     vdW  Elec       q    Type
REMARK                         _______ _______ _______ _____ _____    ______ ____
ROOT
ATOM      1  C   UNL     1      47.377   8.330  12.205  0.00  0.00    +0.000 A 
ATOM      2  C   UNL     1      48.232   7.222  12.266  0.00  0.00    +0.000 A 
ATOM      3  C   UNL     1      49.603   7.366  12.021  0.00  0.00    +0.000 A 
ATOM      4  C   UNL     1      50.147   8.625  11.732  0.00  0.00    +0.000 A 
ATOM      5  C   UNL     1      49.286   9.730  11.664  0.00  0.00    +0.000 A 
ATOM      6  C   UNL     1      47.919   9.587  11.911  0.00  0.00    +0.000 A 
ENDROOT
BRANCH   1   7
ATOM      7  C   UNL     1      45.904   8.174  12.450  0.00  0.00    +0.000 C 
BRANCH   7  10
ATOM      8  C   UNL     1      44.514   6.205  12.088  0.00  0.00    +0.000 C 
ATOM      9  O   UNL     1      44.308   6.105  13.294  0.00  0.00    +0.000 OA
ATOM     10  N   UNL     1      45.295   7.210  11.564  0.00  0.00    +0.000 N 
ATOM     11  H   UNL     1      45.399   7.330  10.560  0.00  0.00    +0.000 HD
BRANCH   8  15
ATOM     12  N   UNL     1      45.065   3.310  10.192  0.00  0.00    +0.000 NA
ATOM     13  C   UNL     1      44.463   2.985  11.495  0.00  0.00    +0.000 C 
ATOM     14  C   UNL     1      43.342   3.990  11.682  0.00  0.00    +0.000 C 
ATOM     15  C   UNL     1      43.900   5.265  11.060  0.00  0.00    +0.000 C 
ATOM     16  C   UNL     1      44.944   4.774  10.058  0.00  0.00    +0.000 C 
BRANCH  12  17
ATOM     17  C   UNL     1      44.464   2.547   9.085  0.00  0.00    +0.000 C 
BRANCH  17  18
ATOM     18  C   UNL     1      44.822   3.140   7.712  0.00  0.00    +0.000 C 
BRANCH  18  19
ATOM     19  C   UNL     1      46.272   2.871   7.312  0.00  0.00    +0.000 C 
BRANCH  19  20
ATOM     20  N   UNL     1      46.792   4.036   6.599  0.00  0.00    +0.000 NA
ATOM     21  H   UNL     1      46.469   4.893   7.046  0.00  0.00    +0.000 HD
ATOM     22  H   UNL     1      46.423   4.049   5.649  0.00  0.00    +0.000 HD
ENDBRANCH  19  20
ENDBRANCH  18  19
ENDBRANCH  17  18
ENDBRANCH  12  17
ENDBRANCH   8  15
ENDBRANCH   7  10
ENDBRANCH   1   7
BRANCH   4  23
ATOM     23  C   UNL     1      51.620   8.802  11.463  0.00  0.00    +0.000 C 
BRANCH  23  24
ATOM     24  N   UNL     1      51.977   8.324  10.151  0.00  0.00    +0.000 N 
ATOM     25  C   UNL     1      53.099   8.779   9.507  0.00  0.00    +0.000 C 
ATOM     26  O   UNL     1      53.871   9.583  10.023  0.00  0.00    +0.000 OA
ATOM     27  H   UNL     1      51.235   7.902   9.602  0.00  0.00    +0.000 HD
BRANCH  25  28
ATOM     28  C   UNL     1      53.365   8.203   8.182  0.00  0.00    +0.000 A 
ATOM     29  C   UNL     1      53.398   9.023   7.063  0.00  0.00    +0.000 A 
ATOM     30  S   UNL     1      53.774   8.192   5.619  0.00  0.00    +0.000 S 
ATOM     31  C   UNL     1      53.849   6.700   6.433  0.00  0.00    +0.000 A 
ATOM     32  N   UNL     1      54.105   5.546   5.759  0.00  0.00    +0.000 NA
ATOM     33  C   UNL     1      54.110   4.486   6.497  0.00  0.00    +0.000 A 
ATOM     34  N   UNL     1      53.890   4.477   7.850  0.00  0.00    +0.000 N 
ATOM     35  C   UNL     1      53.648   5.618   8.576  0.00  0.00    +0.000 A 
ATOM     36  O   UNL     1      53.489   5.580   9.790  0.00  0.00    +0.000 OA
ATOM     37  C   UNL     1      53.618   6.837   7.790  0.00  0.00    +0.000 A 
ATOM     38  H   UNL     1      53.920   3.614   8.374  0.00  0.00    +0.000 HD
ENDBRANCH  25  28
ENDBRANCH  23  24
ENDBRANCH   4  23
TORSDOF 10
ENDMDL
MODEL 6
REMARK VINA RESULT:    -6.670      3.049      3.944
REMARK INTER + INTRA:         -11.459
REMARK INTER:                 -10.128
REMARK INTRA:                  -1.331
REMARK UNBOUND:                -1.084
REMARK  Name = 
REMARK  10 active torsions:
REMARK  status: ('A' for Active; 'I' for Inactive)
REMARK    1  A    between atoms: N_1  and  C_2
REMARK    2  A    between atoms: C_2  and  C_3
REMARK    3  A    between atoms: C_3  and  C_4
REMARK    4  A    between atoms: C_4  and  N_5
REMARK    5  A    between atoms: C_8  and  C_9
REMARK    6  A    between atoms: N_11  and  C_12
REMARK    7  A    between atoms: C_12  and  C_13
REMARK    8  A    between atoms: C_16  and  C_17
REMARK    9  A    between atoms: C_17  and  N_18
REMARK   10  A    between atoms: C_19  and  C_21
REMARK                            x       y       z     vdW  Elec       q    Type
REMARK                         _______ _______ _______ _____ _____    ______ ____
ROOT
ATOM      1  C   UNL     1      45.104   6.333  12.759  0.00  0.00    +0.000 A 
ATOM      2  C   UNL     1      45.979   5.388  13.312  0.00  0.00    +0.000 A 
ATOM      3  C   UNL     1      47.229   5.779  13.807  0.00  0.00    +0.000 A 
ATOM      4  C   UNL     1      47.618   7.125  13.777  0.00  0.00    +0.000 A 
ATOM      5  C   UNL     1      46.744   8.065  13.214  0.00  0.00    +0.000 A 
ATOM      6  C   UNL     1      45.495   7.676  12.723  0.00  0.00    +0.000 A 
ENDROOT
BRANCH   1   7
ATOM      7  C   UNL     1      43.772   5.912  12.211  0.00  0.00    +0.000 C 
BRANCH   7  10
ATOM      8  C   UNL     1      43.828   3.977  10.730  0.00  0.00    +0.000 C 
ATOM      9  O   UNL     1      43.697   3.218  11.685  0.00  0.00    +0.000 OA
ATOM     10  N   UNL     1      43.871   5.345  10.887  0.00  0.00    +0.000 N 
ATOM     11  H   UNL     1      43.903   5.968  10.086  0.00  0.00    +0.000 HD
BRANCH   8  15
ATOM     12  N   UNL     1      45.982   3.510   8.006  0.00  0.00    +0.000 NA
ATOM     13  C   UNL     1      45.947   2.317   8.866  0.00  0.00    +0.000 C 
ATOM     14  C   UNL     1      44.479   2.084   9.170  0.00  0.00    +0.000 C 
ATOM     15  C   UNL     1      43.912   3.493   9.289  0.00  0.00    +0.000 C 
ATOM     16  C   UNL     1      44.864   4.358   8.464  0.00  0.00    +0.000 C 
BRANCH  12  17
ATOM     17  C   UNL     1      45.943   3.176   6.573  0.00  0.00    +0.000 C 
BRANCH  17  18
ATOM     18  C   UNL     1      46.707   1.878   6.260  0.00  0.00    +0.000 C 
BRANCH  18  19
ATOM     19  C   UNL     1      48.040   2.132   5.558  0.00  0.00    +0.000 C 
BRANCH  19  20
ATOM     20  N   UNL     1      48.995   2.663   6.529  0.00  0.00    +0.000 NA
ATOM     21  H   UNL     1      49.861   2.127   6.496  0.00  0.00    +0.000 HD
ATOM     22  H   UNL     1      48.622   2.554   7.471  0.00  0.00    +0.000 HD
ENDBRANCH  19  20
ENDBRANCH  18  19
ENDBRANCH  17  18
ENDBRANCH  12  17
ENDBRANCH   8  15
ENDBRANCH   7  10
ENDBRANCH   1   7
BRANCH   4  23
ATOM     23  C   UNL     1      48.961   7.566  14.302  0.00  0.00    +0.000 C 
BRANCH  23  24
ATOM     24  N   UNL     1      49.027   7.458  15.737  0.00  0.00    +0.000 N 
ATOM     25  C   UNL     1      50.105   6.883  16.361  0.00  0.00    +0.000 C 
ATOM     26  O   UNL     1      51.078   6.467  15.738  0.00  0.00    +0.000 OA
ATOM     27  H   UNL     1      48.147   7.522  16.240  0.00  0.00    +0.000 HD
BRANCH  25  28
ATOM     28  C   UNL     1      50.062   6.849  17.829  0.00  0.00    +0.000 A 
ATOM     29  C   UNL     1      50.571   7.912  18.562  0.00  0.00    +0.000 A 
ATOM     30  S   UNL     1      50.389   7.726  20.250  0.00  0.00    +0.000 S 
ATOM     31  C   UNL     1      49.674   6.193  20.059  0.00  0.00    +0.000 A 
ATOM     32  N   UNL     1      49.298   5.455  21.138  0.00  0.00    +0.000 NA
ATOM     33  C   UNL     1      48.792   4.304  20.848  0.00  0.00    +0.000 A 
ATOM     34  N   UNL     1      48.619   3.826  19.575  0.00  0.00    +0.000 N 
ATOM     35  C   UNL     1      48.963   4.543  18.455  0.00  0.00    +0.000 A 
ATOM     36  O   UNL     1      48.764   4.102  17.328  0.00  0.00    +0.000 OA
ATOM     37  C   UNL     1      49.551   5.841  18.727  0.00  0.00    +0.000 A 
ATOM     38  H   UNL     1      48.203   2.920  19.413  0.00  0.00    +0.000 HD
ENDBRANCH  25  28
ENDBRANCH  23  24
ENDBRANCH   4  23
TORSDOF 10
ENDMDL
MODEL 7
REMARK VINA RESULT:    -6.494      3.050      9.885
REMARK INTER + INTRA:         -11.185
REMARK INTER:                  -9.930
REMARK INTRA:                  -1.255
REMARK UNBOUND:                -1.084
REMARK  Name = 
REMARK  10 active torsions:
REMARK  status: ('A' for Active; 'I' for Inactive)
REMARK    1  A    between atoms: N_1  and  C_2
REMARK    2  A    between atoms: C_2  and  C_3
REMARK    3  A    between atoms: C_3  and  C_4
REMARK    4  A    between atoms: C_4  and  N_5
REMARK    5  A    between atoms: C_8  and  C_9
REMARK    6  A    between atoms: N_11  and  C_12
REMARK    7  A    between atoms: C_12  and  C_13
REMARK    8  A    between atoms: C_16  and  C_17
REMARK    9  A    between atoms: C_17  and  N_18
REMARK   10  A    between atoms: C_19  and  C_21
REMARK                            x       y       z     vdW  Elec       q    Type
REMARK                         _______ _______ _______ _____ _____    ______ ____
ROOT
ATOM      1  C   UNL     1      48.732   7.985  16.287  0.00  0.00    +0.000 A 
ATOM      2  C   UNL     1      48.347   9.142  15.597  0.00  0.00    +0.000 A 
ATOM      3  C   UNL     1      47.933   9.071  14.261  0.00  0.00    +0.000 A 
ATOM      4  C   UNL     1      47.877   7.838  13.598  0.00  0.00    +0.000 A 
ATOM      5  C   UNL     1      48.271   6.684  14.289  0.00  0.00    +0.000 A 
ATOM      6  C   UNL     1      48.682   6.754  15.622  0.00  0.00    +0.000 A 
ENDROOT
BRANCH   1   7
ATOM      7  C   UNL     1      49.194   8.062  17.713  0.00  0.00    +0.000 C 
BRANCH   7  10
ATOM      8  C   UNL     1      49.194   5.979  18.978  0.00  0.00    +0.000 C 
ATOM      9  O   UNL     1      48.045   6.186  19.356  0.00  0.00    +0.000 OA
ATOM     10  N   UNL     1      49.856   6.855  18.147  0.00  0.00    +0.000 N 
ATOM     11  H   UNL     1      50.778   6.640  17.779  0.00  0.00    +0.000 HD
BRANCH   8  15
ATOM     12  N   UNL     1      52.279   4.351  18.645  0.00  0.00    +0.000 NA
ATOM     13  C   UNL     1      52.264   5.223  19.830  0.00  0.00    +0.000 C 
ATOM     14  C   UNL     1      50.936   4.952  20.512  0.00  0.00    +0.000 C 
ATOM     15  C   UNL     1      49.977   4.727  19.348  0.00  0.00    +0.000 C 
ATOM     16  C   UNL     1      50.875   4.270  18.199  0.00  0.00    +0.000 C 
BRANCH  12  17
ATOM     17  C   UNL     1      52.909   3.048  18.910  0.00  0.00    +0.000 C 
BRANCH  17  18
ATOM     18  C   UNL     1      53.218   2.279  17.615  0.00  0.00    +0.000 C 
BRANCH  18  19
ATOM     19  C   UNL     1      53.000   0.773  17.755  0.00  0.00    +0.000 C 
BRANCH  19  20
ATOM     20  N   UNL     1      51.590   0.521  18.044  0.00  0.00    +0.000 NA
ATOM     21  H   UNL     1      51.473  -0.420  18.416  0.00  0.00    +0.000 HD
ATOM     22  H   UNL     1      51.051   0.561  17.180  0.00  0.00    +0.000 HD
ENDBRANCH  19  20
ENDBRANCH  18  19
ENDBRANCH  17  18
ENDBRANCH  12  17
ENDBRANCH   8  15
ENDBRANCH   7  10
ENDBRANCH   1   7
BRANCH   4  23
ATOM     23  C   UNL     1      47.437   7.740  12.159  0.00  0.00    +0.000 C 
BRANCH  23  24
ATOM     24  N   UNL     1      46.764   6.493  11.897  0.00  0.00    +0.000 N 
ATOM     25  C   UNL     1      45.402   6.434  11.752  0.00  0.00    +0.000 C 
ATOM     26  O   UNL     1      44.692   7.436  11.801  0.00  0.00    +0.000 OA
ATOM     27  H   UNL     1      47.268   5.644  12.134  0.00  0.00    +0.000 HD
BRANCH  25  28
ATOM     28  C   UNL     1      44.837   5.107  11.470  0.00  0.00    +0.000 A 
ATOM     29  C   UNL     1      44.091   4.450  12.439  0.00  0.00    +0.000 A 
ATOM     30  S   UNL     1      43.469   2.947  11.919  0.00  0.00    +0.000 S 
ATOM     31  C   UNL     1      44.221   3.099  10.400  0.00  0.00    +0.000 A 
ATOM     32  N   UNL     1      44.114   2.119   9.464  0.00  0.00    +0.000 NA
ATOM     33  C   UNL     1      44.754   2.356   8.367  0.00  0.00    +0.000 A 
ATOM     34  N   UNL     1      45.484   3.488   8.118  0.00  0.00    +0.000 N 
ATOM     35  C   UNL     1      45.603   4.514   9.025  0.00  0.00    +0.000 A 
ATOM     36  O   UNL     1      46.236   5.530   8.759  0.00  0.00    +0.000 OA
ATOM     37  C   UNL     1      44.914   4.291  10.282  0.00  0.00    +0.000 A 
ATOM     38  H   UNL     1      45.951   3.620   7.233  0.00  0.00    +0.000 HD
ENDBRANCH  25  28
ENDBRANCH  23  24
ENDBRANCH   4  23
TORSDOF 10
ENDMDL
MODEL 8
REMARK VINA RESULT:    -6.142      3.429      9.715
REMARK INTER + INTRA:         -10.637
REMARK INTER:                  -9.195
REMARK INTRA:                  -1.443
REMARK UNBOUND:                -1.084
REMARK  Name = 
REMARK  10 active torsions:
REMARK  status: ('A' for Active; 'I' for Inactive)
REMARK    1  A    between atoms: N_1  and  C_2
REMARK    2  A    between atoms: C_2  and  C_3
REMARK    3  A    between atoms: C_3  and  C_4
REMARK    4  A    between atoms: C_4  and  N_5
REMARK    5  A    between atoms: C_8  and  C_9
REMARK    6  A    between atoms: N_11  and  C_12
REMARK    7  A    between atoms: C_12  and  C_13
REMARK    8  A    between atoms: C_16  and  C_17
REMARK    9  A    between atoms: C_17  and  N_18
REMARK   10  A    between atoms: C_19  and  C_21
REMARK                            x       y       z     vdW  Elec       q    Type
REMARK                         _______ _______ _______ _____ _____    ______ ____
ROOT
ATOM      1  C   UNL     1      48.598   7.902  16.262  0.00  0.00    +0.000 A 
ATOM      2  C   UNL     1      48.444   9.135  15.615  0.00  0.00    +0.000 A 
ATOM      3  C   UNL     1      48.363   9.203  14.219  0.00  0.00    +0.000 A 
ATOM      4  C   UNL     1      48.415   8.035  13.446  0.00  0.00    +0.000 A 
ATOM      5  C   UNL     1      48.578   6.804  14.096  0.00  0.00    +0.000 A 
ATOM      6  C   UNL     1      48.656   6.736  15.489  0.00  0.00    +0.000 A 
ENDROOT
BRANCH   1   7
ATOM      7  C   UNL     1      48.704   7.830  17.757  0.00  0.00    +0.000 C 
BRANCH   7  10
ATOM      8  C   UNL     1      49.917   6.086  18.951  0.00  0.00    +0.000 C 
ATOM      9  O   UNL     1      48.863   5.534  19.255  0.00  0.00    +0.000 OA
ATOM     10  N   UNL     1      49.944   7.238  18.198  0.00  0.00    +0.000 N 
ATOM     11  H   UNL     1      50.822   7.646  17.888  0.00  0.00    +0.000 HD
BRANCH   8  15
ATOM     12  N   UNL     1      52.319   3.649  18.194  0.00  0.00    +0.000 NA
ATOM     13  C   UNL     1      52.545   4.878  17.416  0.00  0.00    +0.000 C 
ATOM     14  C   UNL     1      52.395   6.015  18.409  0.00  0.00    +0.000 C 
ATOM     15  C   UNL     1      51.283   5.536  19.335  0.00  0.00    +0.000 C 
ATOM     16  C   UNL     1      51.325   4.012  19.222  0.00  0.00    +0.000 C 
BRANCH  12  17
ATOM     17  C   UNL     1      53.566   3.081  18.729  0.00  0.00    +0.000 C 
BRANCH  17  18
ATOM     18  C   UNL     1      53.722   1.592  18.377  0.00  0.00    +0.000 C 
BRANCH  18  19
ATOM     19  C   UNL     1      52.663   1.104  17.390  0.00  0.00    +0.000 C 
BRANCH  19  20
ATOM     20  N   UNL     1      51.645   0.350  18.119  0.00  0.00    +0.000 NA
ATOM     21  H   UNL     1      50.974   0.988  18.542  0.00  0.00    +0.000 HD
ATOM     22  H   UNL     1      52.081  -0.162  18.885  0.00  0.00    +0.000 HD
ENDBRANCH  19  20
ENDBRANCH  18  19
ENDBRANCH  17  18
ENDBRANCH  12  17
ENDBRANCH   8  15
ENDBRANCH   7  10
ENDBRANCH   1   7
BRANCH   4  23
ATOM     23  C   UNL     1      48.332   8.086  11.941  0.00  0.00    +0.000 C 
BRANCH  23  24
ATOM     24  N   UNL     1      47.616   6.952  11.413  0.00  0.00    +0.000 N 
ATOM     25  C   UNL     1      46.247   6.944  11.339  0.00  0.00    +0.000 C 
ATOM     26  O   UNL     1      45.566   7.908  11.679  0.00  0.00    +0.000 OA
ATOM     27  H   UNL     1      48.112   6.066  11.399  0.00  0.00    +0.000 HD
BRANCH  25  28
ATOM     28  C   UNL     1      45.636   5.738  10.765  0.00  0.00    +0.000 A 
ATOM     29  C   UNL     1      45.784   5.461   9.413  0.00  0.00    +0.000 A 
ATOM     30  S   UNL     1      45.054   3.994   8.933  0.00  0.00    +0.000 S 
ATOM     31  C   UNL     1      44.469   3.707  10.504  0.00  0.00    +0.000 A 
ATOM     32  N   UNL     1      43.717   2.609  10.783  0.00  0.00    +0.000 NA
ATOM     33  C   UNL     1      43.320   2.529  12.009  0.00  0.00    +0.000 A 
ATOM     34  N   UNL     1      43.614   3.445  12.985  0.00  0.00    +0.000 N 
ATOM     35  C   UNL     1      44.387   4.558  12.757  0.00  0.00    +0.000 A 
ATOM     36  O   UNL     1      44.660   5.341  13.659  0.00  0.00    +0.000 OA
ATOM     37  C   UNL     1      44.847   4.702  11.388  0.00  0.00    +0.000 A 
ATOM     38  H   UNL     1      43.284   3.319  13.931  0.00  0.00    +0.000 HD
ENDBRANCH  25  28
ENDBRANCH  23  24
ENDBRANCH   4  23
TORSDOF 10
ENDMDL
MODEL 9
REMARK VINA RESULT:    -5.891      3.857      9.647
REMARK INTER + INTRA:         -10.247
REMARK INTER:                  -9.133
REMARK INTRA:                  -1.114
REMARK UNBOUND:                -1.084
REMARK  Name = 
REMARK  10 active torsions:
REMARK  status: ('A' for Active; 'I' for Inactive)
REMARK    1  A    between atoms: N_1  and  C_2
REMARK    2  A    between atoms: C_2  and  C_3
REMARK    3  A    between atoms: C_3  and  C_4
REMARK    4  A    between atoms: C_4  and  N_5
REMARK    5  A    between atoms: C_8  and  C_9
REMARK    6  A    between atoms: N_11  and  C_12
REMARK    7  A    between atoms: C_12  and  C_13
REMARK    8  A    between atoms: C_16  and  C_17
REMARK    9  A    between atoms: C_17  and  N_18
REMARK   10  A    between atoms: C_19  and  C_21
REMARK                            x       y       z     vdW  Elec       q    Type
REMARK                         _______ _______ _______ _____ _____    ______ ____
ROOT
ATOM      1  C   UNL     1      45.914   7.344  12.698  0.00  0.00    +0.000 A 
ATOM      2  C   UNL     1      46.337   6.187  13.365  0.00  0.00    +0.000 A 
ATOM      3  C   UNL     1      45.736   4.951  13.099  0.00  0.00    +0.000 A 
ATOM      4  C   UNL     1      44.716   4.847  12.143  0.00  0.00    +0.000 A 
ATOM      5  C   UNL     1      44.290   6.008  11.484  0.00  0.00    +0.000 A 
ATOM      6  C   UNL     1      44.891   7.241  11.749  0.00  0.00    +0.000 A 
ENDROOT
BRANCH   1   7
ATOM      7  C   UNL     1      46.545   8.673  12.997  0.00  0.00    +0.000 C 
BRANCH   7  10
ATOM      8  C   UNL     1      48.626   8.724  14.264  0.00  0.00    +0.000 C 
ATOM      9  O   UNL     1      49.279   8.766  13.226  0.00  0.00    +0.000 OA
ATOM     10  N   UNL     1      47.250   8.681  14.257  0.00  0.00    +0.000 N 
ATOM     11  H   UNL     1      46.715   8.722  15.120  0.00  0.00    +0.000 HD
BRANCH   8  15
ATOM     12  N   UNL     1      49.740   6.744  16.932  0.00  0.00    +0.000 NA
ATOM     13  C   UNL     1      50.815   6.969  15.953  0.00  0.00    +0.000 C 
ATOM     14  C   UNL     1      50.754   8.448  15.621  0.00  0.00    +0.000 C 
ATOM     15  C   UNL     1      49.261   8.757  15.647  0.00  0.00    +0.000 C 
ATOM     16  C   UNL     1      48.667   7.686  16.561  0.00  0.00    +0.000 C 
BRANCH  12  17
ATOM     17  C   UNL     1      50.206   6.872  18.322  0.00  0.00    +0.000 C 
BRANCH  17  18
ATOM     18  C   UNL     1      51.333   5.878  18.649  0.00  0.00    +0.000 C 
BRANCH  18  19
ATOM     19  C   UNL     1      51.065   5.081  19.925  0.00  0.00    +0.000 C 
BRANCH  19  20
ATOM     20  N   UNL     1      49.841   4.302  19.752  0.00  0.00    +0.000 NA
ATOM     21  H   UNL     1      49.617   3.806  20.613  0.00  0.00    +0.000 HD
ATOM     22  H   UNL     1      49.986   3.590  19.036  0.00  0.00    +0.000 HD
ENDBRANCH  19  20
ENDBRANCH  18  19
ENDBRANCH  17  18
ENDBRANCH  12  17
ENDBRANCH   8  15
ENDBRANCH   7  10
ENDBRANCH   1   7
BRANCH   4  23
ATOM     23  C   UNL     1      44.054   3.525  11.843  0.00  0.00    +0.000 C 
BRANCH  23  24
ATOM     24  N   UNL     1      44.816   2.759  10.890  0.00  0.00    +0.000 N 
ATOM     25  C   UNL     1      44.607   2.885   9.541  0.00  0.00    +0.000 C 
ATOM     26  O   UNL     1      43.792   3.677   9.075  0.00  0.00    +0.000 OA
ATOM     27  H   UNL     1      45.269   1.919  11.239  0.00  0.00    +0.000 HD
BRANCH  25  28
ATOM     28  C   UNL     1      45.460   2.062   8.672  0.00  0.00    +0.000 A 
ATOM     29  C   UNL     1      45.389   0.678   8.741  0.00  0.00    +0.000 A 
ATOM     30  S   UNL     1      46.410  -0.113   7.624  0.00  0.00    +0.000 S 
ATOM     31  C   UNL     1      47.021   1.367   7.050  0.00  0.00    +0.000 A 
ATOM     32  N   UNL     1      47.978   1.404   6.084  0.00  0.00    +0.000 NA
ATOM     33  C   UNL     1      48.366   2.593   5.761  0.00  0.00    +0.000 A 
ATOM     34  N   UNL     1      47.877   3.749   6.310  0.00  0.00    +0.000 N 
ATOM     35  C   UNL     1      46.896   3.763   7.272  0.00  0.00    +0.000 A 
ATOM     36  O   UNL     1      46.456   4.816   7.719  0.00  0.00    +0.000 OA
ATOM     37  C   UNL     1      46.435   2.450   7.682  0.00  0.00    +0.000 A 
ATOM     38  H   UNL     1      48.213   4.651   6.003  0.00  0.00    +0.000 HD
ENDBRANCH  25  28
ENDBRANCH  23  24
ENDBRANCH   4  23
TORSDOF 10
ENDMDL
