MODEL 1
REMARK VINA RESULT:    -8.200      0.000      0.000
REMARK INTER + INTRA:         -11.382
REMARK INTER:                 -10.597
REMARK INTRA:                  -0.785
REMARK UNBOUND:                -0.785
REMARK  Name = 
REMARK  6 active torsions:
REMARK  status: ('A' for Active; 'I' for Inactive)
REMARK    1  A    between atoms: C_1  and  C_2
REMARK    2  A    between atoms: C_2  and  N_3
REMARK    3  A    between atoms: C_2  and  C_16
REMARK    4  A    between atoms: C_4  and  C_6
REMARK    5  A    between atoms: C_19  and  O_20
REMARK    6  A    between atoms: O_20  and  C_21
REMARK                            x       y       z     vdW  Elec       q    Type
REMARK                         _______ _______ _______ _____ _____    ______ ____
ROOT
ATOM      1  C   UNL     1      45.316   8.856  12.907  0.00  0.00    +0.000 C 
ATOM      2  C   UNL     1      46.422   7.825  12.663  0.00  0.00    +0.000 C 
ENDROOT
BRANCH   2   3
ATOM      3  C   UNL     1      45.876   6.707  11.780  0.00  0.00    +0.000 A 
ATOM      4  C   UNL     1      44.801   5.929  12.230  0.00  0.00    +0.000 A 
ATOM      5  C   UNL     1      44.271   4.914  11.429  0.00  0.00    +0.000 A 
ATOM      6  C   UNL     1      44.774   4.692  10.145  0.00  0.00    +0.000 A 
ATOM      7  C   UNL     1      45.884   5.413   9.711  0.00  0.00    +0.000 A 
ATOM      8  C   UNL     1      46.439   6.403  10.526  0.00  0.00    +0.000 A 
BRANCH   6   9
ATOM      9  O   UNL     1      44.278   3.736   9.286  0.00  0.00    +0.000 OA
BRANCH   9  10
ATOM     10  C   UNL     1      45.175   3.072   8.460  0.00  0.00    +0.000 A 
ATOM     11  C   UNL     1      45.581   1.802   8.842  0.00  0.00    +0.000 A 
ATOM     12  N   UNL     1      46.424   1.048   8.091  0.00  0.00    +0.000 NA
ATOM     13  C   UNL     1      46.848   1.627   6.945  0.00  0.00    +0.000 A 
ATOM     14  C   UNL     1      46.468   2.907   6.576  0.00  0.00    +0.000 A 
ATOM     15  N   UNL     1      45.639   3.662   7.330  0.00  0.00    +0.000 NA
ENDBRANCH   9  10
ENDBRANCH   6   9
ENDBRANCH   2   3
BRANCH   2  16
ATOM     16  N   UNL     1      46.978   7.285  13.897  0.00  0.00    +0.000 N 
ATOM     17  C   UNL     1      48.235   6.751  13.989  0.00  0.00    +0.000 C 
ATOM     18  O   UNL     1      49.019   6.719  13.043  0.00  0.00    +0.000 OA
ATOM     19  H   UNL     1      46.294   6.958  14.573  0.00  0.00    +0.000 HD
BRANCH  17  20
ATOM     20  C   UNL     1      48.638   6.265  15.315  0.00  0.00    +0.000 A 
ATOM     21  C   UNL     1      49.633   6.933  16.017  0.00  0.00    +0.000 A 
ATOM     22  S   UNL     1      49.978   6.242  17.537  0.00  0.00    +0.000 S 
ATOM     23  C   UNL     1      48.835   5.007  17.296  0.00  0.00    +0.000 A 
ATOM     24  N   UNL     1      48.654   4.028  18.224  0.00  0.00    +0.000 NA
ATOM     25  C   UNL     1      47.773   3.141  17.898  0.00  0.00    +0.000 A 
ATOM     26  N   UNL     1      47.045   3.152  16.737  0.00  0.00    +0.000 N 
ATOM     27  C   UNL     1      47.170   4.139  15.789  0.00  0.00    +0.000 A 
ATOM     28  O   UNL     1      46.458   4.161  14.790  0.00  0.00    +0.000 OA
ATOM     29  C   UNL     1      48.172   5.141  16.089  0.00  0.00    +0.000 A 
ATOM     30  H   UNL     1      46.353   2.440  16.553  0.00  0.00    +0.000 HD
ENDBRANCH  17  20
ENDBRANCH   2  16
TORSDOF 5
ENDMDL
MODEL 2
REMARK VINA RESULT:    -7.574      1.588      2.127
REMARK INTER + INTRA:         -10.573
REMARK INTER:                  -9.865
REMARK INTRA:                  -0.708
REMARK UNBOUND:                -0.785
REMARK  Name = 
REMARK  6 active torsions:
REMARK  status: ('A' for Active; 'I' for Inactive)
REMARK    1  A    between atoms: C_1  and  C_2
REMARK    2  A    between atoms: C_2  and  N_3
REMARK    3  A    between atoms: C_2  and  C_16
REMARK    4  A    between atoms: C_4  and  C_6
REMARK    5  A    between atoms: C_19  and  O_20
REMARK    6  A    between atoms: O_20  and  C_21
REMARK                            x       y       z     vdW  Elec       q    Type
REMARK                         _______ _______ _______ _____ _____    ______ ____
ROOT
ATOM      1  C   UNL     1      45.269   7.954  12.863  0.00  0.00    +0.000 C 
ATOM      2  C   UNL     1      46.339   6.865  12.752  0.00  0.00    +0.000 C 
ENDROOT
BRANCH   2   3
ATOM      3  C   UNL     1      45.944   5.886  11.649  0.00  0.00    +0.000 A 
ATOM      4  C   UNL     1      45.324   4.676  11.985  0.00  0.00    +0.000 A 
ATOM      5  C   UNL     1      44.933   3.775  10.991  0.00  0.00    +0.000 A 
ATOM      6  C   UNL     1      45.111   4.090   9.642  0.00  0.00    +0.000 A 
ATOM      7  C   UNL     1      45.786   5.259   9.296  0.00  0.00    +0.000 A 
ATOM      8  C   UNL     1      46.211   6.143  10.292  0.00  0.00    +0.000 A 
BRANCH   6   9
ATOM      9  O   UNL     1      44.718   3.269   8.608  0.00  0.00    +0.000 OA
BRANCH   9  10
ATOM     10  C   UNL     1      45.697   2.789   7.748  0.00  0.00    +0.000 A 
ATOM     11  C   UNL     1      46.313   1.592   8.081  0.00  0.00    +0.000 A 
ATOM     12  N   UNL     1      47.255   1.011   7.294  0.00  0.00    +0.000 NA
ATOM     13  C   UNL     1      47.556   1.688   6.162  0.00  0.00    +0.000 A 
ATOM     14  C   UNL     1      46.964   2.899   5.843  0.00  0.00    +0.000 A 
ATOM     15  N   UNL     1      46.036   3.482   6.632  0.00  0.00    +0.000 NA
ENDBRANCH   9  10
ENDBRANCH   6   9
ENDBRANCH   2   3
BRANCH   2  16
ATOM     16  N   UNL     1      46.569   6.163  14.008  0.00  0.00    +0.000 N 
ATOM     17  C   UNL     1      47.815   5.855  14.485  0.00  0.00    +0.000 C 
ATOM     18  O   UNL     1      48.850   6.182  13.910  0.00  0.00    +0.000 OA
ATOM     19  H   UNL     1      45.804   5.571  14.320  0.00  0.00    +0.000 HD
BRANCH  17  20
ATOM     20  C   UNL     1      47.860   5.157  15.776  0.00  0.00    +0.000 A 
ATOM     21  C   UNL     1      47.434   3.838  15.859  0.00  0.00    +0.000 A 
ATOM     22  S   UNL     1      47.556   3.177  17.426  0.00  0.00    +0.000 S 
ATOM     23  C   UNL     1      48.150   4.641  18.056  0.00  0.00    +0.000 A 
ATOM     24  N   UNL     1      48.426   4.773  19.382  0.00  0.00    +0.000 NA
ATOM     25  C   UNL     1      48.845   5.945  19.725  0.00  0.00    +0.000 A 
ATOM     26  N   UNL     1      49.029   6.993  18.861  0.00  0.00    +0.000 N 
ATOM     27  C   UNL     1      48.797   6.894  17.510  0.00  0.00    +0.000 A 
ATOM     28  O   UNL     1      49.033   7.828  16.750  0.00  0.00    +0.000 OA
ATOM     29  C   UNL     1      48.289   5.609  17.077  0.00  0.00    +0.000 A 
ATOM     30  H   UNL     1      49.382   7.879  19.190  0.00  0.00    +0.000 HD
ENDBRANCH  17  20
ENDBRANCH   2  16
TORSDOF 5
ENDMDL
MODEL 3
REMARK VINA RESULT:    -7.570      1.723      2.330
REMARK INTER + INTRA:         -10.568
REMARK INTER:                 -10.545
REMARK INTRA:                  -0.024
REMARK UNBOUND:                -0.785
REMARK  Name = 
REMARK  6 active torsions:
REMARK  status: ('A' for Active; 'I' for Inactive)
REMARK    1  A    between atoms: C_1  and  C_2
REMARK    2  A    between atoms: C_2  and  N_3
REMARK    3  A    between atoms: C_2  and  C_16
REMARK    4  A    between atoms: C_4  and  C_6
REMARK    5  A    between atoms: C_19  and  O_20
REMARK    6  A    between atoms: O_20  and  C_21
REMARK                            x       y       z     vdW  Elec       q    Type
REMARK                         _______ _______ _______ _____ _____    ______ ____
ROOT
ATOM      1  C   UNL     1      43.314   4.465  13.512  0.00  0.00    +0.000 C 
ATOM      2  C   UNL     1      44.159   5.579  12.889  0.00  0.00    +0.000 C 
ENDROOT
BRANCH   2   3
ATOM      3  C   UNL     1      44.529   5.186  11.462  0.00  0.00    +0.000 A 
ATOM      4  C   UNL     1      43.795   4.190  10.804  0.00  0.00    +0.000 A 
ATOM      5  C   UNL     1      44.101   3.830   9.489  0.00  0.00    +0.000 A 
ATOM      6  C   UNL     1      45.114   4.492   8.793  0.00  0.00    +0.000 A 
ATOM      7  C   UNL     1      45.895   5.437   9.455  0.00  0.00    +0.000 A 
ATOM      8  C   UNL     1      45.614   5.771  10.783  0.00  0.00    +0.000 A 
BRANCH   6   9
ATOM      9  O   UNL     1      45.448   4.217   7.485  0.00  0.00    +0.000 OA
BRANCH   9  10
ATOM     10  C   UNL     1      46.158   3.052   7.223  0.00  0.00    +0.000 A 
ATOM     11  C   UNL     1      46.940   3.021   6.078  0.00  0.00    +0.000 A 
ATOM     12  N   UNL     1      47.705   1.950   5.745  0.00  0.00    +0.000 NA
ATOM     13  C   UNL     1      47.644   0.909   6.606  0.00  0.00    +0.000 A 
ATOM     14  C   UNL     1      46.841   0.927   7.734  0.00  0.00    +0.000 A 
ATOM     15  N   UNL     1      46.071   1.988   8.059  0.00  0.00    +0.000 NA
ENDBRANCH   9  10
ENDBRANCH   6   9
ENDBRANCH   2   3
BRANCH   2  16
ATOM     16  N   UNL     1      45.352   5.889  13.666  0.00  0.00    +0.000 N 
ATOM     17  C   UNL     1      46.274   4.950  14.044  0.00  0.00    +0.000 C 
ATOM     18  O   UNL     1      46.193   3.767  13.723  0.00  0.00    +0.000 OA
ATOM     19  H   UNL     1      45.287   6.721  14.246  0.00  0.00    +0.000 HD
BRANCH  17  20
ATOM     20  C   UNL     1      47.425   5.443  14.812  0.00  0.00    +0.000 A 
ATOM     21  C   UNL     1      48.210   6.463  14.293  0.00  0.00    +0.000 A 
ATOM     22  S   UNL     1      49.501   6.918  15.311  0.00  0.00    +0.000 S 
ATOM     23  C   UNL     1      49.075   5.743  16.465  0.00  0.00    +0.000 A 
ATOM     24  N   UNL     1      49.816   5.567  17.593  0.00  0.00    +0.000 NA
ATOM     25  C   UNL     1      49.393   4.625  18.367  0.00  0.00    +0.000 A 
ATOM     26  N   UNL     1      48.288   3.852  18.125  0.00  0.00    +0.000 N 
ATOM     27  C   UNL     1      47.491   4.017  17.018  0.00  0.00    +0.000 A 
ATOM     28  O   UNL     1      46.470   3.356  16.860  0.00  0.00    +0.000 OA
ATOM     29  C   UNL     1      47.942   5.040  16.097  0.00  0.00    +0.000 A 
ATOM     30  H   UNL     1      47.997   3.144  18.784  0.00  0.00    +0.000 HD
ENDBRANCH  17  20
ENDBRANCH   2  16
TORSDOF 5
ENDMDL
MODEL 4
REMARK VINA RESULT:    -7.442      2.752      4.072
REMARK INTER + INTRA:         -10.402
REMARK INTER:                  -9.438
REMARK INTRA:                  -0.965
REMARK UNBOUND:                -0.785
REMARK  Name = 
REMARK  6 active torsions:
REMARK  status: ('A' for Active; 'I' for Inactive)
REMARK    1  A    between atoms: C_1  and  C_2
REMARK    2  A    between atoms: C_2  and  N_3
REMARK    3  A    between atoms: C_2  and  C_16
REMARK    4  A    between atoms: C_4  and  C_6
REMARK    5  A    between atoms: C_19  and  O_20
REMARK    6  A    between atoms: O_20  and  C_21
REMARK                            x       y       z     vdW  Elec       q    Type
REMARK                         _______ _______ _______ _____ _____    ______ ____
ROOT
ATOM      1  C   UNL     1      46.347   4.712  14.365  0.00  0.00    +0.000 C 
ATOM      2  C   UNL     1      46.046   5.746  13.277  0.00  0.00    +0.000 C 
ENDROOT
BRANCH   2   3
ATOM      3  C   UNL     1      45.657   5.020  11.992  0.00  0.00    +0.000 A 
ATOM      4  C   UNL     1      45.742   5.689  10.764  0.00  0.00    +0.000 A 
ATOM      5  C   UNL     1      45.412   5.038   9.573  0.00  0.00    +0.000 A 
ATOM      6  C   UNL     1      45.038   3.692   9.583  0.00  0.00    +0.000 A 
ATOM      7  C   UNL     1      44.885   3.034  10.802  0.00  0.00    +0.000 A 
ATOM      8  C   UNL     1      45.179   3.697  11.997  0.00  0.00    +0.000 A 
BRANCH   6   9
ATOM      9  O   UNL     1      44.735   2.976   8.447  0.00  0.00    +0.000 OA
BRANCH   9  10
ATOM     10  C   UNL     1      45.771   2.658   7.579  0.00  0.00    +0.000 A 
ATOM     11  C   UNL     1      46.509   1.515   7.851  0.00  0.00    +0.000 A 
ATOM     12  N   UNL     1      47.519   1.089   7.050  0.00  0.00    +0.000 NA
ATOM     13  C   UNL     1      47.760   1.864   5.968  0.00  0.00    +0.000 A 
ATOM     14  C   UNL     1      47.044   3.021   5.710  0.00  0.00    +0.000 A 
ATOM     15  N   UNL     1      46.048   3.451   6.515  0.00  0.00    +0.000 NA
ENDBRANCH   9  10
ENDBRANCH   6   9
ENDBRANCH   2   3
BRANCH   2  16
ATOM     16  N   UNL     1      47.154   6.661  13.039  0.00  0.00    +0.000 N 
ATOM     17  C   UNL     1      47.026   8.024  13.055  0.00  0.00    +0.000 C 
ATOM     18  O   UNL     1      45.969   8.593  13.314  0.00  0.00    +0.000 OA
ATOM     19  H   UNL     1      47.916   6.283  12.483  0.00  0.00    +0.000 HD
BRANCH  17  20
ATOM     20  C   UNL     1      48.253   8.794  12.808  0.00  0.00    +0.000 A 
ATOM     21  C   UNL     1      48.214   9.894  11.962  0.00  0.00    +0.000 A 
ATOM     22  S   UNL     1      49.720  10.675  11.787  0.00  0.00    +0.000 S 
ATOM     23  C   UNL     1      50.483   9.550  12.808  0.00  0.00    +0.000 A 
ATOM     24  N   UNL     1      51.820   9.621  13.054  0.00  0.00    +0.000 NA
ATOM     25  C   UNL     1      52.270   8.689  13.826  0.00  0.00    +0.000 A 
ATOM     26  N   UNL     1      51.503   7.701  14.388  0.00  0.00    +0.000 N 
ATOM     27  C   UNL     1      50.145   7.612  14.195  0.00  0.00    +0.000 A 
ATOM     28  O   UNL     1      49.473   6.757  14.763  0.00  0.00    +0.000 OA
ATOM     29  C   UNL     1      49.595   8.614  13.306  0.00  0.00    +0.000 A 
ATOM     30  H   UNL     1      51.914   7.014  15.002  0.00  0.00    +0.000 HD
ENDBRANCH  17  20
ENDBRANCH   2  16
TORSDOF 5
ENDMDL
MODEL 5
REMARK VINA RESULT:    -7.331      3.239      7.735
REMARK INTER + INTRA:         -10.260
REMARK INTER:                  -9.314
REMARK INTRA:                  -0.945
REMARK UNBOUND:                -0.785
REMARK  Name = 
REMARK  6 active torsions:
REMARK  status: ('A' for Active; 'I' for Inactive)
REMARK    1  A    between atoms: C_1  and  C_2
REMARK    2  A    between atoms: C_2  and  N_3
REMARK    3  A    between atoms: C_2  and  C_16
REMARK    4  A    between atoms: C_4  and  C_6
REMARK    5  A    between atoms: C_19  and  O_20
REMARK    6  A    between atoms: O_20  and  C_21
REMARK                            x       y       z     vdW  Elec       q    Type
REMARK                         _______ _______ _______ _____ _____    ______ ____
ROOT
ATOM      1  C   UNL     1      49.366   7.906  12.639  0.00  0.00    +0.000 C 
ATOM      2  C   UNL     1      48.161   7.310  13.371  0.00  0.00    +0.000 C 
ENDROOT
BRANCH   2   3
ATOM      3  C   UNL     1      48.637   6.648  14.661  0.00  0.00    +0.000 A 
ATOM      4  C   UNL     1      47.835   5.680  15.280  0.00  0.00    +0.000 A 
ATOM      5  C   UNL     1      48.261   5.045  16.450  0.00  0.00    +0.000 A 
ATOM      6  C   UNL     1      49.515   5.330  16.993  0.00  0.00    +0.000 A 
ATOM      7  C   UNL     1      50.294   6.337  16.426  0.00  0.00    +0.000 A 
ATOM      8  C   UNL     1      49.852   7.000  15.277  0.00  0.00    +0.000 A 
BRANCH   6   9
ATOM      9  O   UNL     1      50.016   4.718  18.120  0.00  0.00    +0.000 OA
BRANCH   9  10
ATOM     10  C   UNL     1      50.780   3.570  17.955  0.00  0.00    +0.000 A 
ATOM     11  C   UNL     1      50.170   2.471  17.367  0.00  0.00    +0.000 A 
ATOM     12  N   UNL     1      50.833   1.312  17.122  0.00  0.00    +0.000 NA
ATOM     13  C   UNL     1      52.131   1.300  17.501  0.00  0.00    +0.000 A 
ATOM     14  C   UNL     1      52.734   2.385  18.116  0.00  0.00    +0.000 A 
ATOM     15  N   UNL     1      52.071   3.534  18.370  0.00  0.00    +0.000 NA
ENDBRANCH   9  10
ENDBRANCH   6   9
ENDBRANCH   2   3
BRANCH   2  16
ATOM     16  N   UNL     1      47.407   6.369  12.553  0.00  0.00    +0.000 N 
ATOM     17  C   UNL     1      46.322   6.724  11.798  0.00  0.00    +0.000 C 
ATOM     18  O   UNL     1      45.915   7.880  11.714  0.00  0.00    +0.000 OA
ATOM     19  H   UNL     1      47.454   5.400  12.855  0.00  0.00    +0.000 HD
BRANCH  17  20
ATOM     20  C   UNL     1      45.691   5.647  11.023  0.00  0.00    +0.000 A 
ATOM     21  C   UNL     1      45.789   5.649   9.639  0.00  0.00    +0.000 A 
ATOM     22  S   UNL     1      45.005   4.330   8.895  0.00  0.00    +0.000 S 
ATOM     23  C   UNL     1      44.476   3.729  10.396  0.00  0.00    +0.000 A 
ATOM     24  N   UNL     1      43.698   2.615  10.471  0.00  0.00    +0.000 NA
ATOM     25  C   UNL     1      43.349   2.288  11.670  0.00  0.00    +0.000 A 
ATOM     26  N   UNL     1      43.720   2.963  12.803  0.00  0.00    +0.000 N 
ATOM     27  C   UNL     1      44.533   4.071  12.778  0.00  0.00    +0.000 A 
ATOM     28  O   UNL     1      44.904   4.617  13.812  0.00  0.00    +0.000 OA
ATOM     29  C   UNL     1      44.924   4.503  11.452  0.00  0.00    +0.000 A 
ATOM     30  H   UNL     1      43.432   2.641  13.715  0.00  0.00    +0.000 HD
ENDBRANCH  17  20
ENDBRANCH   2  16
TORSDOF 5
ENDMDL
MODEL 6
REMARK VINA RESULT:    -6.922      1.946      3.218
REMARK INTER + INTRA:          -9.730
REMARK INTER:                  -9.532
REMARK INTRA:                  -0.198
REMARK UNBOUND:                -0.785
REMARK  Name = 
REMARK  6 active torsions:
REMARK  status: ('A' for Active; 'I' for Inactive)
REMARK    1  A    between atoms: C_1  and  C_2
REMARK    2  A    between atoms: C_2  and  N_3
REMARK    3  A    between atoms: C_2  and  C_16
REMARK    4  A    between atoms: C_4  and  C_6
REMARK    5  A    between atoms: C_19  and  O_20
REMARK    6  A    between atoms: O_20  and  C_21
REMARK                            x       y       z     vdW  Elec       q    Type
REMARK                         _______ _______ _______ _____ _____    ______ ____
ROOT
ATOM      1  C   UNL     1      43.348   4.405  13.547  0.00  0.00    +0.000 C 
ATOM      2  C   UNL     1      44.176   5.515  12.893  0.00  0.00    +0.000 C 
ENDROOT
BRANCH   2   3
ATOM      3  C   UNL     1      44.525   5.103  11.466  0.00  0.00    +0.000 A 
ATOM      4  C   UNL     1      43.833   4.046  10.860  0.00  0.00    +0.000 A 
ATOM      5  C   UNL     1      44.121   3.666   9.547  0.00  0.00    +0.000 A 
ATOM      6  C   UNL     1      45.070   4.367   8.800  0.00  0.00    +0.000 A 
ATOM      7  C   UNL     1      45.811   5.376   9.410  0.00  0.00    +0.000 A 
ATOM      8  C   UNL     1      45.550   5.733  10.736  0.00  0.00    +0.000 A 
BRANCH   6   9
ATOM      9  O   UNL     1      45.379   4.073   7.490  0.00  0.00    +0.000 OA
BRANCH   9  10
ATOM     10  C   UNL     1      46.157   2.950   7.239  0.00  0.00    +0.000 A 
ATOM     11  C   UNL     1      47.088   3.031   6.214  0.00  0.00    +0.000 A 
ATOM     12  N   UNL     1      47.926   2.008   5.906  0.00  0.00    +0.000 NA
ATOM     13  C   UNL     1      47.784   0.899   6.667  0.00  0.00    +0.000 A 
ATOM     14  C   UNL     1      46.834   0.806   7.671  0.00  0.00    +0.000 A 
ATOM     15  N   UNL     1      45.992   1.819   7.969  0.00  0.00    +0.000 NA
ENDBRANCH   9  10
ENDBRANCH   6   9
ENDBRANCH   2   3
BRANCH   2  16
ATOM     16  N   UNL     1      45.379   5.846  13.645  0.00  0.00    +0.000 N 
ATOM     17  C   UNL     1      46.292   4.914  14.059  0.00  0.00    +0.000 C 
ATOM     18  O   UNL     1      46.193   3.718  13.793  0.00  0.00    +0.000 OA
ATOM     19  H   UNL     1      45.329   6.705  14.187  0.00  0.00    +0.000 HD
BRANCH  17  20
ATOM     20  C   UNL     1      47.455   5.427  14.795  0.00  0.00    +0.000 A 
ATOM     21  C   UNL     1      47.709   4.970  16.081  0.00  0.00    +0.000 A 
ATOM     22  S   UNL     1      49.096   5.663  16.791  0.00  0.00    +0.000 S 
ATOM     23  C   UNL     1      49.386   6.623  15.417  0.00  0.00    +0.000 A 
ATOM     24  N   UNL     1      50.424   7.502  15.383  0.00  0.00    +0.000 NA
ATOM     25  C   UNL     1      50.510   8.183  14.289  0.00  0.00    +0.000 A 
ATOM     26  N   UNL     1      49.662   8.054  13.220  0.00  0.00    +0.000 N 
ATOM     27  C   UNL     1      48.623   7.155  13.197  0.00  0.00    +0.000 A 
ATOM     28  O   UNL     1      47.920   7.014  12.202  0.00  0.00    +0.000 OA
ATOM     29  C   UNL     1      48.460   6.390  14.416  0.00  0.00    +0.000 A 
ATOM     30  H   UNL     1      49.798   8.601  12.383  0.00  0.00    +0.000 HD
ENDBRANCH  17  20
ENDBRANCH   2  16
TORSDOF 5
ENDMDL
MODEL 7
REMARK VINA RESULT:    -6.802      4.009      8.877
REMARK INTER + INTRA:          -9.576
REMARK INTER:                  -8.833
REMARK INTRA:                  -0.743
REMARK UNBOUND:                -0.785
REMARK  Name = 
REMARK  6 active torsions:
REMARK  status: ('A' for Active; 'I' for Inactive)
REMARK    1  A    between atoms: C_1  and  C_2
REMARK    2  A    between atoms: C_2  and  N_3
REMARK    3  A    between atoms: C_2  and  C_16
REMARK    4  A    between atoms: C_4  and  C_6
REMARK    5  A    between atoms: C_19  and  O_20
REMARK    6  A    between atoms: O_20  and  C_21
REMARK                            x       y       z     vdW  Elec       q    Type
REMARK                         _______ _______ _______ _____ _____    ______ ____
ROOT
ATOM      1  C   UNL     1      46.898   4.771  18.381  0.00  0.00    +0.000 C 
ATOM      2  C   UNL     1      47.532   4.191  17.113  0.00  0.00    +0.000 C 
ENDROOT
BRANCH   2   3
ATOM      3  C   UNL     1      49.043   4.105  17.305  0.00  0.00    +0.000 A 
ATOM      4  C   UNL     1      49.667   2.851  17.350  0.00  0.00    +0.000 A 
ATOM      5  C   UNL     1      51.052   2.749  17.502  0.00  0.00    +0.000 A 
ATOM      6  C   UNL     1      51.843   3.899  17.563  0.00  0.00    +0.000 A 
ATOM      7  C   UNL     1      51.231   5.150  17.586  0.00  0.00    +0.000 A 
ATOM      8  C   UNL     1      49.841   5.252  17.471  0.00  0.00    +0.000 A 
BRANCH   6   9
ATOM      9  O   UNL     1      53.215   3.876  17.676  0.00  0.00    +0.000 OA
BRANCH   9  10
ATOM     10  C   UNL     1      53.814   2.709  18.133  0.00  0.00    +0.000 A 
ATOM     11  C   UNL     1      54.050   2.600  19.495  0.00  0.00    +0.000 A 
ATOM     12  N   UNL     1      54.594   1.489  20.055  0.00  0.00    +0.000 NA
ATOM     13  C   UNL     1      54.898   0.497  19.188  0.00  0.00    +0.000 A 
ATOM     14  C   UNL     1      54.691   0.616  17.823  0.00  0.00    +0.000 A 
ATOM     15  N   UNL     1      54.161   1.726  17.265  0.00  0.00    +0.000 NA
ENDBRANCH   9  10
ENDBRANCH   6   9
ENDBRANCH   2   3
BRANCH   2  16
ATOM     16  N   UNL     1      47.204   4.952  15.915  0.00  0.00    +0.000 N 
ATOM     17  C   UNL     1      47.140   4.400  14.663  0.00  0.00    +0.000 C 
ATOM     18  O   UNL     1      47.313   3.203  14.451  0.00  0.00    +0.000 OA
ATOM     19  H   UNL     1      47.410   5.946  15.963  0.00  0.00    +0.000 HD
BRANCH  17  20
ATOM     20  C   UNL     1      46.781   5.313  13.570  0.00  0.00    +0.000 A 
ATOM     21  C   UNL     1      47.724   6.213  13.090  0.00  0.00    +0.000 A 
ATOM     22  S   UNL     1      47.147   7.196  11.821  0.00  0.00    +0.000 S 
ATOM     23  C   UNL     1      45.608   6.477  11.891  0.00  0.00    +0.000 A 
ATOM     24  N   UNL     1      44.600   6.896  11.079  0.00  0.00    +0.000 NA
ATOM     25  C   UNL     1      43.480   6.280  11.257  0.00  0.00    +0.000 A 
ATOM     26  N   UNL     1      43.278   5.272  12.163  0.00  0.00    +0.000 N 
ATOM     27  C   UNL     1      44.275   4.792  12.979  0.00  0.00    +0.000 A 
ATOM     28  O   UNL     1      44.084   3.844  13.733  0.00  0.00    +0.000 OA
ATOM     29  C   UNL     1      45.545   5.475  12.844  0.00  0.00    +0.000 A 
ATOM     30  H   UNL     1      42.381   4.814  12.237  0.00  0.00    +0.000 HD
ENDBRANCH  17  20
ENDBRANCH   2  16
TORSDOF 5
ENDMDL
MODEL 8
REMARK VINA RESULT:    -6.729      2.880      8.521
REMARK INTER + INTRA:          -9.481
REMARK INTER:                  -8.605
REMARK INTRA:                  -0.876
REMARK UNBOUND:                -0.785
REMARK  Name = 
REMARK  6 active torsions:
REMARK  status: ('A' for Active; 'I' for Inactive)
REMARK    1  A    between atoms: C_1  and  C_2
REMARK    2  A    between atoms: C_2  and  N_3
REMARK    3  A    between atoms: C_2  and  C_16
REMARK    4  A    between atoms: C_4  and  C_6
REMARK    5  A    between atoms: C_19  and  O_20
REMARK    6  A    between atoms: O_20  and  C_21
REMARK                            x       y       z     vdW  Elec       q    Type
REMARK                         _______ _______ _______ _____ _____    ______ ____
ROOT
ATOM      1  C   UNL     1      48.666   7.978  11.524  0.00  0.00    +0.000 C 
ATOM      2  C   UNL     1      47.483   7.788  12.477  0.00  0.00    +0.000 C 
ENDROOT
BRANCH   2   3
ATOM      3  C   UNL     1      47.991   7.819  13.916  0.00  0.00    +0.000 A 
ATOM      4  C   UNL     1      48.482   6.646  14.504  0.00  0.00    +0.000 A 
ATOM      5  C   UNL     1      48.972   6.656  15.813  0.00  0.00    +0.000 A 
ATOM      6  C   UNL     1      49.027   7.848  16.538  0.00  0.00    +0.000 A 
ATOM      7  C   UNL     1      48.482   9.008  15.991  0.00  0.00    +0.000 A 
ATOM      8  C   UNL     1      47.956   8.991  14.695  0.00  0.00    +0.000 A 
BRANCH   6   9
ATOM      9  O   UNL     1      49.530   7.942  17.817  0.00  0.00    +0.000 OA
BRANCH   9  10
ATOM     10  C   UNL     1      49.152   6.976  18.740  0.00  0.00    +0.000 A 
ATOM     11  C   UNL     1      47.855   7.029  19.229  0.00  0.00    +0.000 A 
ATOM     12  N   UNL     1      47.367   6.114  20.105  0.00  0.00    +0.000 NA
ATOM     13  C   UNL     1      48.239   5.149  20.475  0.00  0.00    +0.000 A 
ATOM     14  C   UNL     1      49.544   5.112  20.012  0.00  0.00    +0.000 A 
ATOM     15  N   UNL     1      50.033   6.030  19.149  0.00  0.00    +0.000 NA
ENDBRANCH   9  10
ENDBRANCH   6   9
ENDBRANCH   2   3
BRANCH   2  16
ATOM     16  N   UNL     1      46.736   6.564  12.219  0.00  0.00    +0.000 N 
ATOM     17  C   UNL     1      45.460   6.548  11.722  0.00  0.00    +0.000 C 
ATOM     18  O   UNL     1      44.851   7.569  11.412  0.00  0.00    +0.000 OA
ATOM     19  H   UNL     1      47.019   5.759  12.772  0.00  0.00    +0.000 HD
BRANCH  17  20
ATOM     20  C   UNL     1      44.863   5.223  11.511  0.00  0.00    +0.000 A 
ATOM     21  C   UNL     1      44.150   4.619  12.538  0.00  0.00    +0.000 A 
ATOM     22  S   UNL     1      43.522   3.088  12.127  0.00  0.00    +0.000 S 
ATOM     23  C   UNL     1      44.210   3.163  10.573  0.00  0.00    +0.000 A 
ATOM     24  N   UNL     1      44.084   2.127   9.700  0.00  0.00    +0.000 NA
ATOM     25  C   UNL     1      44.677   2.310   8.567  0.00  0.00    +0.000 A 
ATOM     26  N   UNL     1      45.372   3.440   8.222  0.00  0.00    +0.000 N 
ATOM     27  C   UNL     1      45.495   4.523   9.059  0.00  0.00    +0.000 A 
ATOM     28  O   UNL     1      46.066   5.548   8.699  0.00  0.00    +0.000 OA
ATOM     29  C   UNL     1      44.878   4.356  10.358  0.00  0.00    +0.000 A 
ATOM     30  H   UNL     1      45.795   3.529   7.310  0.00  0.00    +0.000 HD
ENDBRANCH  17  20
ENDBRANCH   2  16
TORSDOF 5
ENDMDL
MODEL 9
REMARK VINA RESULT:    -6.634      2.705      4.482
REMARK INTER + INTRA:          -9.358
REMARK INTER:                  -8.360
REMARK INTRA:                  -0.997
REMARK UNBOUND:                -0.785
REMARK  Name = 
REMARK  6 active torsions:
REMARK  status: ('A' for Active; 'I' for Inactive)
REMARK    1  A    between atoms: C_1  and  C_2
REMARK    2  A    between atoms: C_2  and  N_3
REMARK    3  A    between atoms: C_2  and  C_16
REMARK    4  A    between atoms: C_4  and  C_6
REMARK    5  A    between atoms: C_19  and  O_20
REMARK    6  A    between atoms: O_20  and  C_21
REMARK                            x       y       z     vdW  Elec       q    Type
REMARK                         _______ _______ _______ _____ _____    ______ ____
ROOT
ATOM      1  C   UNL     1      47.412   4.440  15.510  0.00  0.00    +0.000 C 
ATOM      2  C   UNL     1      47.144   5.601  14.549  0.00  0.00    +0.000 C 
ENDROOT
BRANCH   2   3
ATOM      3  C   UNL     1      46.390   5.077  13.330  0.00  0.00    +0.000 A 
ATOM      4  C   UNL     1      46.057   5.955  12.290  0.00  0.00    +0.000 A 
ATOM      5  C   UNL     1      45.386   5.493  11.155  0.00  0.00    +0.000 A 
ATOM      6  C   UNL     1      45.081   4.137  11.017  0.00  0.00    +0.000 A 
ATOM      7  C   UNL     1      45.346   3.265  12.071  0.00  0.00    +0.000 A 
ATOM      8  C   UNL     1      45.984   3.734  13.224  0.00  0.00    +0.000 A 
BRANCH   6   9
ATOM      9  O   UNL     1      44.456   3.604   9.912  0.00  0.00    +0.000 OA
BRANCH   9  10
ATOM     10  C   UNL     1      45.250   3.146   8.869  0.00  0.00    +0.000 A 
ATOM     11  C   UNL     1      45.608   4.057   7.886  0.00  0.00    +0.000 A 
ATOM     12  N   UNL     1      46.412   3.729   6.843  0.00  0.00    +0.000 NA
ATOM     13  C   UNL     1      46.835   2.444   6.825  0.00  0.00    +0.000 A 
ATOM     14  C   UNL     1      46.455   1.525   7.789  0.00  0.00    +0.000 A 
ATOM     15  N   UNL     1      45.645   1.849   8.820  0.00  0.00    +0.000 NA
ENDBRANCH   9  10
ENDBRANCH   6   9
ENDBRANCH   2   3
BRANCH   2  16
ATOM     16  N   UNL     1      48.358   6.299  14.147  0.00  0.00    +0.000 N 
ATOM     17  C   UNL     1      49.021   7.186  14.950  0.00  0.00    +0.000 C 
ATOM     18  O   UNL     1      48.669   7.440  16.100  0.00  0.00    +0.000 OA
ATOM     19  H   UNL     1      48.478   6.415  13.145  0.00  0.00    +0.000 HD
BRANCH  17  20
ATOM     20  C   UNL     1      50.238   7.787  14.387  0.00  0.00    +0.000 A 
ATOM     21  C   UNL     1      51.444   7.657  15.063  0.00  0.00    +0.000 A 
ATOM     22  S   UNL     1      52.755   8.408  14.273  0.00  0.00    +0.000 S 
ATOM     23  C   UNL     1      51.750   8.964  13.018  0.00  0.00    +0.000 A 
ATOM     24  N   UNL     1      52.247   9.730  12.009  0.00  0.00    +0.000 NA
ATOM     25  C   UNL     1      51.369  10.102  11.140  0.00  0.00    +0.000 A 
ATOM     26  N   UNL     1      50.041   9.765  11.178  0.00  0.00    +0.000 N 
ATOM     27  C   UNL     1      49.502   8.966  12.157  0.00  0.00    +0.000 A 
ATOM     28  O   UNL     1      48.324   8.625  12.130  0.00  0.00    +0.000 OA
ATOM     29  C   UNL     1      50.440   8.550  13.179  0.00  0.00    +0.000 A 
ATOM     30  H   UNL     1      49.408  10.071  10.453  0.00  0.00    +0.000 HD
ENDBRANCH  17  20
ENDBRANCH   2  16
TORSDOF 5
ENDMDL
