MODEL 1
REMARK VINA RESULT:    -7.663      0.000      0.000
REMARK INTER + INTRA:         -12.966
REMARK INTER:                 -11.694
REMARK INTRA:                  -1.272
REMARK UNBOUND:                -1.272
REMARK  Name = 
REMARK  11 active torsions:
REMARK  status: ('A' for Active; 'I' for Inactive)
REMARK    1  A    between atoms: C_1  and  O_2
REMARK    2  A    between atoms: O_2  and  C_3
REMARK    3  A    between atoms: C_3  and  C_4
REMARK    4  A    between atoms: C_4  and  N_5
REMARK    5  A    between atoms: C_4  and  C_18
REMARK    6  A    between atoms: C_6  and  C_8
REMARK    7  A    between atoms: C_21  and  C_22
REMARK    8  A    between atoms: C_22  and  N_23
REMARK    9  A    between atoms: N_23  and  C_24
REMARK   10  A    between atoms: C_24  and  C_25
REMARK   11  A    between atoms: C_24  and  C_26
REMARK                            x       y       z     vdW  Elec       q    Type
REMARK                         _______ _______ _______ _____ _____    ______ ____
ROOT
ATOM      1  C   UNL     1      48.523   6.605  13.755  0.00  0.00    +0.000 C 
ENDROOT
BRANCH   1   2
ATOM      2  C   UNL     1      47.231   6.242  13.041  0.00  0.00    +0.000 A 
ATOM      3  C   UNL     1      46.276   5.432  13.667  0.00  0.00    +0.000 A 
ATOM      4  C   UNL     1      45.120   5.045  12.985  0.00  0.00    +0.000 A 
ATOM      5  C   UNL     1      44.896   5.472  11.671  0.00  0.00    +0.000 A 
ATOM      6  C   UNL     1      45.827   6.316  11.058  0.00  0.00    +0.000 A 
ATOM      7  C   UNL     1      46.978   6.699  11.736  0.00  0.00    +0.000 A 
BRANCH   5   8
ATOM      8  C   UNL     1      43.719   4.974  10.873  0.00  0.00    +0.000 C 
BRANCH   8   9
ATOM      9  N   UNL     1      44.050   4.733   9.467  0.00  0.00    +0.000 NA
ATOM     10  H   UNL     1      44.909   5.238   9.255  0.00  0.00    +0.000 HD
BRANCH   9  11
ATOM     11  C   UNL     1      44.243   3.293   9.181  0.00  0.00    +0.000 C 
ATOM     12  C   UNL     1      44.146   2.452  10.464  0.00  0.00    +0.000 C 
BRANCH  11  13
ATOM     13  C   UNL     1      45.515   2.998   8.394  0.00  0.00    +0.000 A 
ATOM     14  C   UNL     1      46.006   1.697   8.312  0.00  0.00    +0.000 A 
ATOM     15  N   UNL     1      47.063   1.352   7.538  0.00  0.00    +0.000 NA
ATOM     16  C   UNL     1      47.612   2.363   6.828  0.00  0.00    +0.000 A 
ATOM     17  C   UNL     1      47.132   3.657   6.889  0.00  0.00    +0.000 A 
ATOM     18  N   UNL     1      46.082   4.002   7.667  0.00  0.00    +0.000 NA
ENDBRANCH  11  13
ENDBRANCH   9  11
ENDBRANCH   8   9
ENDBRANCH   5   8
ENDBRANCH   1   2
BRANCH   1  19
ATOM     19  N   UNL     1      48.246   6.858  15.160  0.00  0.00    +0.000 N 
ATOM     20  C   UNL     1      49.132   6.556  16.160  0.00  0.00    +0.000 C 
ATOM     21  O   UNL     1      50.266   6.139  15.947  0.00  0.00    +0.000 OA
ATOM     22  H   UNL     1      47.270   6.986  15.399  0.00  0.00    +0.000 HD
BRANCH  20  23
ATOM     23  C   UNL     1      48.654   6.805  17.523  0.00  0.00    +0.000 A 
ATOM     24  C   UNL     1      48.265   8.081  17.911  0.00  0.00    +0.000 A 
ATOM     25  S   UNL     1      47.759   8.175  19.537  0.00  0.00    +0.000 S 
ATOM     26  C   UNL     1      48.093   6.524  19.793  0.00  0.00    +0.000 A 
ATOM     27  N   UNL     1      47.933   5.954  21.019  0.00  0.00    +0.000 NA
ATOM     28  C   UNL     1      48.266   4.706  21.072  0.00  0.00    +0.000 A 
ATOM     29  N   UNL     1      48.723   3.971  20.012  0.00  0.00    +0.000 N 
ATOM     30  C   UNL     1      48.803   4.477  18.737  0.00  0.00    +0.000 A 
ATOM     31  O   UNL     1      49.036   3.746  17.787  0.00  0.00    +0.000 OA
ATOM     32  C   UNL     1      48.524   5.899  18.637  0.00  0.00    +0.000 A 
ATOM     33  H   UNL     1      48.914   2.986  20.107  0.00  0.00    +0.000 HD
ENDBRANCH  20  23
ENDBRANCH   1  19
BRANCH   1  34
ATOM     34  C   UNL     1      49.168   7.836  13.069  0.00  0.00    +0.000 C 
BRANCH  34  36
ATOM     35  C   UNL     1      48.239   9.998  12.987  0.00  0.00    +0.000 C 
ATOM     36  O   UNL     1      48.913   9.042  13.799  0.00  0.00    +0.000 OA
ENDBRANCH  34  36
ENDBRANCH   1  34
TORSDOF 9
ENDMDL
MODEL 2
REMARK VINA RESULT:    -7.363      1.401      2.033
REMARK INTER + INTRA:         -12.509
REMARK INTER:                 -10.981
REMARK INTRA:                  -1.527
REMARK UNBOUND:                -1.272
REMARK  Name = 
REMARK  11 active torsions:
REMARK  status: ('A' for Active; 'I' for Inactive)
REMARK    1  A    between atoms: C_1  and  O_2
REMARK    2  A    between atoms: O_2  and  C_3
REMARK    3  A    between atoms: C_3  and  C_4
REMARK    4  A    between atoms: C_4  and  N_5
REMARK    5  A    between atoms: C_4  and  C_18
REMARK    6  A    between atoms: C_6  and  C_8
REMARK    7  A    between atoms: C_21  and  C_22
REMARK    8  A    between atoms: C_22  and  N_23
REMARK    9  A    between atoms: N_23  and  C_24
REMARK   10  A    between atoms: C_24  and  C_25
REMARK   11  A    between atoms: C_24  and  C_26
REMARK                            x       y       z     vdW  Elec       q    Type
REMARK                         _______ _______ _______ _____ _____    ______ ____
ROOT
ATOM      1  C   UNL     1      48.158   7.424  13.938  0.00  0.00    +0.000 C 
ENDROOT
BRANCH   1   2
ATOM      2  C   UNL     1      47.027   6.815  13.127  0.00  0.00    +0.000 A 
ATOM      3  C   UNL     1      46.619   5.495  13.356  0.00  0.00    +0.000 A 
ATOM      4  C   UNL     1      45.625   4.914  12.566  0.00  0.00    +0.000 A 
ATOM      5  C   UNL     1      45.015   5.648  11.541  0.00  0.00    +0.000 A 
ATOM      6  C   UNL     1      45.390   6.979  11.338  0.00  0.00    +0.000 A 
ATOM      7  C   UNL     1      46.381   7.556  12.123  0.00  0.00    +0.000 A 
BRANCH   5   8
ATOM      8  C   UNL     1      44.028   5.011  10.599  0.00  0.00    +0.000 C 
BRANCH   8   9
ATOM      9  N   UNL     1      44.623   4.661   9.307  0.00  0.00    +0.000 NA
ATOM     10  H   UNL     1      45.616   4.882   9.348  0.00  0.00    +0.000 HD
BRANCH   9  11
ATOM     11  C   UNL     1      44.452   3.224   8.990  0.00  0.00    +0.000 C 
ATOM     12  C   UNL     1      44.165   2.403  10.256  0.00  0.00    +0.000 C 
BRANCH  11  13
ATOM     13  C   UNL     1      45.603   2.644   8.175  0.00  0.00    +0.000 A 
ATOM     14  C   UNL     1      46.411   3.480   7.408  0.00  0.00    +0.000 A 
ATOM     15  N   UNL     1      47.515   3.045   6.754  0.00  0.00    +0.000 NA
ATOM     16  C   UNL     1      47.795   1.732   6.905  0.00  0.00    +0.000 A 
ATOM     17  C   UNL     1      47.011   0.891   7.671  0.00  0.00    +0.000 A 
ATOM     18  N   UNL     1      45.906   1.324   8.317  0.00  0.00    +0.000 NA
ENDBRANCH  11  13
ENDBRANCH   9  11
ENDBRANCH   8   9
ENDBRANCH   5   8
ENDBRANCH   1   2
BRANCH   1  19
ATOM     19  N   UNL     1      48.116   6.906  15.297  0.00  0.00    +0.000 N 
ATOM     20  C   UNL     1      49.232   6.482  15.967  0.00  0.00    +0.000 C 
ATOM     21  O   UNL     1      50.368   6.594  15.516  0.00  0.00    +0.000 OA
ATOM     22  H   UNL     1      47.208   6.592  15.619  0.00  0.00    +0.000 HD
BRANCH  20  23
ATOM     23  C   UNL     1      48.991   5.915  17.297  0.00  0.00    +0.000 A 
ATOM     24  C   UNL     1      49.222   4.568  17.541  0.00  0.00    +0.000 A 
ATOM     25  S   UNL     1      48.865   4.094  19.141  0.00  0.00    +0.000 S 
ATOM     26  C   UNL     1      48.341   5.663  19.547  0.00  0.00    +0.000 A 
ATOM     27  N   UNL     1      47.838   5.941  20.781  0.00  0.00    +0.000 NA
ATOM     28  C   UNL     1      47.440   7.161  20.929  0.00  0.00    +0.000 A 
ATOM     29  N   UNL     1      47.518   8.134  19.969  0.00  0.00    +0.000 N 
ATOM     30  C   UNL     1      48.110   7.925  18.747  0.00  0.00    +0.000 A 
ATOM     31  O   UNL     1      48.328   8.857  17.989  0.00  0.00    +0.000 OA
ATOM     32  C   UNL     1      48.495   6.547  18.495  0.00  0.00    +0.000 A 
ATOM     33  H   UNL     1      47.241   9.082  20.167  0.00  0.00    +0.000 HD
ENDBRANCH  20  23
ENDBRANCH   1  19
BRANCH   1  34
ATOM     34  C   UNL     1      48.042   8.970  13.912  0.00  0.00    +0.000 C 
BRANCH  34  36
ATOM     35  C   UNL     1      50.124   8.831  12.823  0.00  0.00    +0.000 C 
ATOM     36  O   UNL     1      49.317   9.593  13.714  0.00  0.00    +0.000 OA
ENDBRANCH  34  36
ENDBRANCH   1  34
TORSDOF 9
ENDMDL
MODEL 3
REMARK VINA RESULT:    -7.153      2.965      8.504
REMARK INTER + INTRA:         -12.188
REMARK INTER:                 -10.445
REMARK INTRA:                  -1.744
REMARK UNBOUND:                -1.272
REMARK  Name = 
REMARK  11 active torsions:
REMARK  status: ('A' for Active; 'I' for Inactive)
REMARK    1  A    between atoms: C_1  and  O_2
REMARK    2  A    between atoms: O_2  and  C_3
REMARK    3  A    between atoms: C_3  and  C_4
REMARK    4  A    between atoms: C_4  and  N_5
REMARK    5  A    between atoms: C_4  and  C_18
REMARK    6  A    between atoms: C_6  and  C_8
REMARK    7  A    between atoms: C_21  and  C_22
REMARK    8  A    between atoms: C_22  and  N_23
REMARK    9  A    between atoms: N_23  and  C_24
REMARK   10  A    between atoms: C_24  and  C_25
REMARK   11  A    between atoms: C_24  and  C_26
REMARK                            x       y       z     vdW  Elec       q    Type
REMARK                         _______ _______ _______ _____ _____    ______ ____
ROOT
ATOM      1  C   UNL     1      47.772   7.778  12.154  0.00  0.00    +0.000 C 
ENDROOT
BRANCH   1   2
ATOM      2  C   UNL     1      48.124   7.816  13.633  0.00  0.00    +0.000 A 
ATOM      3  C   UNL     1      48.633   6.680  14.272  0.00  0.00    +0.000 A 
ATOM      4  C   UNL     1      48.894   6.696  15.643  0.00  0.00    +0.000 A 
ATOM      5  C   UNL     1      48.660   7.853  16.395  0.00  0.00    +0.000 A 
ATOM      6  C   UNL     1      48.193   9.003  15.752  0.00  0.00    +0.000 A 
ATOM      7  C   UNL     1      47.931   8.986  14.388  0.00  0.00    +0.000 A 
BRANCH   5   8
ATOM      8  C   UNL     1      48.820   7.863  17.893  0.00  0.00    +0.000 C 
BRANCH   8   9
ATOM      9  N   UNL     1      47.703   7.216  18.585  0.00  0.00    +0.000 NA
ATOM     10  H   UNL     1      47.011   6.951  17.886  0.00  0.00    +0.000 HD
BRANCH   9  11
ATOM     11  C   UNL     1      48.135   6.011  19.331  0.00  0.00    +0.000 C 
ATOM     12  C   UNL     1      49.449   6.264  20.085  0.00  0.00    +0.000 C 
BRANCH  11  13
ATOM     13  C   UNL     1      48.198   4.757  18.466  0.00  0.00    +0.000 A 
ATOM     14  C   UNL     1      47.105   4.384  17.688  0.00  0.00    +0.000 A 
ATOM     15  N   UNL     1      47.137   3.348  16.815  0.00  0.00    +0.000 NA
ATOM     16  C   UNL     1      48.319   2.697  16.735  0.00  0.00    +0.000 A 
ATOM     17  C   UNL     1      49.417   3.060  17.492  0.00  0.00    +0.000 A 
ATOM     18  N   UNL     1      49.382   4.088  18.368  0.00  0.00    +0.000 NA
ENDBRANCH  11  13
ENDBRANCH   9  11
ENDBRANCH   8   9
ENDBRANCH   5   8
ENDBRANCH   1   2
BRANCH   1  19
ATOM     19  N   UNL     1      46.947   6.611  11.882  0.00  0.00    +0.000 N 
ATOM     20  C   UNL     1      45.582   6.667  11.797  0.00  0.00    +0.000 C 
ATOM     21  O   UNL     1      44.950   7.718  11.845  0.00  0.00    +0.000 OA
ATOM     22  H   UNL     1      47.386   5.714  12.053  0.00  0.00    +0.000 HD
BRANCH  20  23
ATOM     23  C   UNL     1      44.908   5.381  11.596  0.00  0.00    +0.000 A 
ATOM     24  C   UNL     1      44.121   4.834  12.601  0.00  0.00    +0.000 A 
ATOM     25  S   UNL     1      43.439   3.326  12.188  0.00  0.00    +0.000 S 
ATOM     26  C   UNL     1      44.216   3.329  10.672  0.00  0.00    +0.000 A 
ATOM     27  N   UNL     1      44.101   2.273   9.820  0.00  0.00    +0.000 NA
ATOM     28  C   UNL     1      44.781   2.397   8.727  0.00  0.00    +0.000 A 
ATOM     29  N   UNL     1      45.545   3.484   8.398  0.00  0.00    +0.000 N 
ATOM     30  C   UNL     1      45.609   4.612   9.181  0.00  0.00    +0.000 A 
ATOM     31  O   UNL     1      46.147   5.628   8.772  0.00  0.00    +0.000 OA
ATOM     32  C   UNL     1      44.934   4.492  10.462  0.00  0.00    +0.000 A 
ATOM     33  H   UNL     1      46.007   3.543   7.505  0.00  0.00    +0.000 HD
ENDBRANCH  20  23
ENDBRANCH   1  19
BRANCH   1  34
ATOM     34  C   UNL     1      49.073   7.768  11.311  0.00  0.00    +0.000 C 
BRANCH  34  36
ATOM     35  C   UNL     1      51.110   8.882  11.696  0.00  0.00    +0.000 C 
ATOM     36  O   UNL     1      49.738   9.036  11.351  0.00  0.00    +0.000 OA
ENDBRANCH  34  36
ENDBRANCH   1  34
TORSDOF 9
ENDMDL
MODEL 4
REMARK VINA RESULT:    -6.420      3.319      7.857
REMARK INTER + INTRA:         -11.070
REMARK INTER:                  -8.774
REMARK INTRA:                  -2.296
REMARK UNBOUND:                -1.272
REMARK  Name = 
REMARK  11 active torsions:
REMARK  status: ('A' for Active; 'I' for Inactive)
REMARK    1  A    between atoms: C_1  and  O_2
REMARK    2  A    between atoms: O_2  and  C_3
REMARK    3  A    between atoms: C_3  and  C_4
REMARK    4  A    between atoms: C_4  and  N_5
REMARK    5  A    between atoms: C_4  and  C_18
REMARK    6  A    between atoms: C_6  and  C_8
REMARK    7  A    between atoms: C_21  and  C_22
REMARK    8  A    between atoms: C_22  and  N_23
REMARK    9  A    between atoms: N_23  and  C_24
REMARK   10  A    between atoms: C_24  and  C_25
REMARK   11  A    between atoms: C_24  and  C_26
REMARK                            x       y       z     vdW  Elec       q    Type
REMARK                         _______ _______ _______ _____ _____    ______ ____
ROOT
ATOM      1  C   UNL     1      48.471   9.147  13.460  0.00  0.00    +0.000 C 
ENDROOT
BRANCH   1   2
ATOM      2  C   UNL     1      48.850   8.764  14.881  0.00  0.00    +0.000 A 
ATOM      3  C   UNL     1      48.149   9.295  15.971  0.00  0.00    +0.000 A 
ATOM      4  C   UNL     1      48.541   8.995  17.277  0.00  0.00    +0.000 A 
ATOM      5  C   UNL     1      49.631   8.149  17.514  0.00  0.00    +0.000 A 
ATOM      6  C   UNL     1      50.305   7.583  16.428  0.00  0.00    +0.000 A 
ATOM      7  C   UNL     1      49.918   7.884  15.128  0.00  0.00    +0.000 A 
BRANCH   5   8
ATOM      8  C   UNL     1      50.147   7.904  18.908  0.00  0.00    +0.000 C 
BRANCH   8   9
ATOM      9  N   UNL     1      49.921   6.529  19.361  0.00  0.00    +0.000 NA
ATOM     10  H   UNL     1      50.192   6.472  20.341  0.00  0.00    +0.000 HD
BRANCH   9  11
ATOM     11  C   UNL     1      48.504   6.124  19.218  0.00  0.00    +0.000 C 
ATOM     12  C   UNL     1      47.808   6.037  20.586  0.00  0.00    +0.000 C 
BRANCH  11  13
ATOM     13  C   UNL     1      48.319   4.853  18.395  0.00  0.00    +0.000 A 
ATOM     14  C   UNL     1      47.115   4.611  17.739  0.00  0.00    +0.000 A 
ATOM     15  N   UNL     1      46.927   3.561  16.903  0.00  0.00    +0.000 NA
ATOM     16  C   UNL     1      48.001   2.759  16.733  0.00  0.00    +0.000 A 
ATOM     17  C   UNL     1      49.206   2.991  17.367  0.00  0.00    +0.000 A 
ATOM     18  N   UNL     1      49.391   4.034  18.207  0.00  0.00    +0.000 NA
ENDBRANCH  11  13
ENDBRANCH   9  11
ENDBRANCH   8   9
ENDBRANCH   5   8
ENDBRANCH   1   2
BRANCH   1  19
ATOM     19  N   UNL     1      47.647   8.100  12.878  0.00  0.00    +0.000 N 
ATOM     20  C   UNL     1      46.278   8.131  12.899  0.00  0.00    +0.000 C 
ATOM     21  O   UNL     1      45.636   9.087  13.322  0.00  0.00    +0.000 OA
ATOM     22  H   UNL     1      48.109   7.212  12.724  0.00  0.00    +0.000 HD
BRANCH  20  23
ATOM     23  C   UNL     1      45.611   6.953  12.337  0.00  0.00    +0.000 A 
ATOM     24  C   UNL     1      44.568   7.099  11.432  0.00  0.00    +0.000 A 
ATOM     25  S   UNL     1      43.908   5.616  10.907  0.00  0.00    +0.000 S 
ATOM     26  C   UNL     1      44.961   4.730  11.912  0.00  0.00    +0.000 A 
ATOM     27  N   UNL     1      44.883   3.373  11.990  0.00  0.00    +0.000 NA
ATOM     28  C   UNL     1      45.715   2.842  12.826  0.00  0.00    +0.000 A 
ATOM     29  N   UNL     1      46.628   3.536  13.572  0.00  0.00    +0.000 N 
ATOM     30  C   UNL     1      46.809   4.893  13.449  0.00  0.00    +0.000 A 
ATOM     31  O   UNL     1      47.753   5.450  13.989  0.00  0.00    +0.000 OA
ATOM     32  C   UNL     1      45.842   5.552  12.590  0.00  0.00    +0.000 A 
ATOM     33  H   UNL     1      47.287   3.057  14.164  0.00  0.00    +0.000 HD
ENDBRANCH  20  23
ENDBRANCH   1  19
BRANCH   1  34
ATOM     34  C   UNL     1      49.756   9.392  12.628  0.00  0.00    +0.000 C 
BRANCH  34  36
ATOM     35  C   UNL     1      50.952   7.893  11.261  0.00  0.00    +0.000 C 
ATOM     36  O   UNL     1      49.748   8.639  11.409  0.00  0.00    +0.000 OA
ENDBRANCH  34  36
ENDBRANCH   1  34
TORSDOF 9
ENDMDL
MODEL 5
REMARK VINA RESULT:    -6.413      3.637      8.596
REMARK INTER + INTRA:         -11.060
REMARK INTER:                  -9.729
REMARK INTRA:                  -1.330
REMARK UNBOUND:                -1.272
REMARK  Name = 
REMARK  11 active torsions:
REMARK  status: ('A' for Active; 'I' for Inactive)
REMARK    1  A    between atoms: C_1  and  O_2
REMARK    2  A    between atoms: O_2  and  C_3
REMARK    3  A    between atoms: C_3  and  C_4
REMARK    4  A    between atoms: C_4  and  N_5
REMARK    5  A    between atoms: C_4  and  C_18
REMARK    6  A    between atoms: C_6  and  C_8
REMARK    7  A    between atoms: C_21  and  C_22
REMARK    8  A    between atoms: C_22  and  N_23
REMARK    9  A    between atoms: N_23  and  C_24
REMARK   10  A    between atoms: C_24  and  C_25
REMARK   11  A    between atoms: C_24  and  C_26
REMARK                            x       y       z     vdW  Elec       q    Type
REMARK                         _______ _______ _______ _____ _____    ______ ____
ROOT
ATOM      1  C   UNL     1      48.408   7.650  12.752  0.00  0.00    +0.000 C 
ENDROOT
BRANCH   1   2
ATOM      2  C   UNL     1      48.788   7.040  14.092  0.00  0.00    +0.000 A 
ATOM      3  C   UNL     1      47.940   6.120  14.720  0.00  0.00    +0.000 A 
ATOM      4  C   UNL     1      48.257   5.611  15.981  0.00  0.00    +0.000 A 
ATOM      5  C   UNL     1      49.434   6.005  16.628  0.00  0.00    +0.000 A 
ATOM      6  C   UNL     1      50.304   6.891  15.985  0.00  0.00    +0.000 A 
ATOM      7  C   UNL     1      49.987   7.399  14.731  0.00  0.00    +0.000 A 
BRANCH   5   8
ATOM      8  C   UNL     1      49.742   5.565  18.035  0.00  0.00    +0.000 C 
BRANCH   8   9
ATOM      9  N   UNL     1      50.981   4.790  18.127  0.00  0.00    +0.000 NA
ATOM     10  H   UNL     1      51.210   4.677  19.114  0.00  0.00    +0.000 HD
BRANCH   9  11
ATOM     11  C   UNL     1      50.849   3.455  17.498  0.00  0.00    +0.000 C 
ATOM     12  C   UNL     1      49.522   2.785  17.887  0.00  0.00    +0.000 C 
BRANCH  11  13
ATOM     13  C   UNL     1      52.049   2.548  17.746  0.00  0.00    +0.000 A 
ATOM     14  C   UNL     1      53.159   3.027  18.438  0.00  0.00    +0.000 A 
ATOM     15  N   UNL     1      54.207   2.242  18.789  0.00  0.00    +0.000 NA
ATOM     16  C   UNL     1      54.099   0.943  18.432  0.00  0.00    +0.000 A 
ATOM     17  C   UNL     1      53.000   0.449  17.756  0.00  0.00    +0.000 A 
ATOM     18  N   UNL     1      51.960   1.234  17.399  0.00  0.00    +0.000 NA
ENDBRANCH  11  13
ENDBRANCH   9  11
ENDBRANCH   8   9
ENDBRANCH   5   8
ENDBRANCH   1   2
BRANCH   1  19
ATOM     19  N   UNL     1      47.671   6.673  11.965  0.00  0.00    +0.000 N 
ATOM     20  C   UNL     1      46.337   6.797  11.684  0.00  0.00    +0.000 C 
ATOM     21  O   UNL     1      45.677   7.786  11.988  0.00  0.00    +0.000 OA
ATOM     22  H   UNL     1      48.101   5.759  11.886  0.00  0.00    +0.000 HD
BRANCH  20  23
ATOM     23  C   UNL     1      45.741   5.679  10.947  0.00  0.00    +0.000 A 
ATOM     24  C   UNL     1      45.843   5.613   9.564  0.00  0.00    +0.000 A 
ATOM     25  S   UNL     1      45.071   4.251   8.888  0.00  0.00    +0.000 S 
ATOM     26  C   UNL     1      44.528   3.731  10.417  0.00  0.00    +0.000 A 
ATOM     27  N   UNL     1      43.740   2.629  10.547  0.00  0.00    +0.000 NA
ATOM     28  C   UNL     1      43.370   2.382  11.761  0.00  0.00    +0.000 A 
ATOM     29  N   UNL     1      43.731   3.119  12.856  0.00  0.00    +0.000 N 
ATOM     30  C   UNL     1      44.606   4.177  12.784  0.00  0.00    +0.000 A 
ATOM     31  O   UNL     1      45.050   4.693  13.798  0.00  0.00    +0.000 OA
ATOM     32  C   UNL     1      44.983   4.552  11.432  0.00  0.00    +0.000 A 
ATOM     33  H   UNL     1      43.454   2.841  13.784  0.00  0.00    +0.000 HD
ENDBRANCH  20  23
ENDBRANCH   1  19
BRANCH   1  34
ATOM     34  C   UNL     1      49.687   8.128  12.018  0.00  0.00    +0.000 C 
BRANCH  34  36
ATOM     35  C   UNL     1      48.516  10.170  11.994  0.00  0.00    +0.000 C 
ATOM     36  O   UNL     1      49.464   9.355  11.313  0.00  0.00    +0.000 OA
ENDBRANCH  34  36
ENDBRANCH   1  34
TORSDOF 9
ENDMDL
MODEL 6
REMARK VINA RESULT:    -6.313      3.528      8.749
REMARK INTER + INTRA:         -10.906
REMARK INTER:                  -9.406
REMARK INTRA:                  -1.500
REMARK UNBOUND:                -1.272
REMARK  Name = 
REMARK  11 active torsions:
REMARK  status: ('A' for Active; 'I' for Inactive)
REMARK    1  A    between atoms: C_1  and  O_2
REMARK    2  A    between atoms: O_2  and  C_3
REMARK    3  A    between atoms: C_3  and  C_4
REMARK    4  A    between atoms: C_4  and  N_5
REMARK    5  A    between atoms: C_4  and  C_18
REMARK    6  A    between atoms: C_6  and  C_8
REMARK    7  A    between atoms: C_21  and  C_22
REMARK    8  A    between atoms: C_22  and  N_23
REMARK    9  A    between atoms: N_23  and  C_24
REMARK   10  A    between atoms: C_24  and  C_25
REMARK   11  A    between atoms: C_24  and  C_26
REMARK                            x       y       z     vdW  Elec       q    Type
REMARK                         _______ _______ _______ _____ _____    ______ ____
ROOT
ATOM      1  C   UNL     1      45.558   7.763  12.368  0.00  0.00    +0.000 C 
ENDROOT
BRANCH   1   2
ATOM      2  C   UNL     1      46.934   7.837  13.010  0.00  0.00    +0.000 A 
ATOM      3  C   UNL     1      47.989   7.060  12.519  0.00  0.00    +0.000 A 
ATOM      4  C   UNL     1      49.234   7.078  13.150  0.00  0.00    +0.000 A 
ATOM      5  C   UNL     1      49.447   7.884  14.275  0.00  0.00    +0.000 A 
ATOM      6  C   UNL     1      48.407   8.694  14.742  0.00  0.00    +0.000 A 
ATOM      7  C   UNL     1      47.167   8.673  14.115  0.00  0.00    +0.000 A 
BRANCH   5   8
ATOM      8  C   UNL     1      50.741   7.834  15.045  0.00  0.00    +0.000 C 
BRANCH   8   9
ATOM      9  N   UNL     1      50.970   6.535  15.682  0.00  0.00    +0.000 NA
ATOM     10  H   UNL     1      51.973   6.428  15.827  0.00  0.00    +0.000 HD
BRANCH   9  11
ATOM     11  C   UNL     1      50.271   6.424  16.983  0.00  0.00    +0.000 C 
ATOM     12  C   UNL     1      51.266   6.430  18.154  0.00  0.00    +0.000 C 
BRANCH  11  13
ATOM     13  C   UNL     1      49.306   5.245  17.052  0.00  0.00    +0.000 A 
ATOM     14  C   UNL     1      49.233   4.464  18.203  0.00  0.00    +0.000 A 
ATOM     15  N   UNL     1      48.321   3.476  18.369  0.00  0.00    +0.000 NA
ATOM     16  C   UNL     1      47.464   3.302  17.339  0.00  0.00    +0.000 A 
ATOM     17  C   UNL     1      47.515   4.076  16.195  0.00  0.00    +0.000 A 
ATOM     18  N   UNL     1      48.430   5.056  16.026  0.00  0.00    +0.000 NA
ENDBRANCH  11  13
ENDBRANCH   9  11
ENDBRANCH   8   9
ENDBRANCH   5   8
ENDBRANCH   1   2
BRANCH   1  19
ATOM     19  N   UNL     1      45.335   6.423  11.850  0.00  0.00    +0.000 N 
ATOM     20  C   UNL     1      44.097   5.958  11.492  0.00  0.00    +0.000 C 
ATOM     21  O   UNL     1      43.093   6.664  11.485  0.00  0.00    +0.000 OA
ATOM     22  H   UNL     1      46.068   5.750  12.043  0.00  0.00    +0.000 HD
BRANCH  20  23
ATOM     23  C   UNL     1      44.048   4.557  11.067  0.00  0.00    +0.000 A 
ATOM     24  C   UNL     1      43.312   3.627  11.789  0.00  0.00    +0.000 A 
ATOM     25  S   UNL     1      43.393   2.048  11.150  0.00  0.00    +0.000 S 
ATOM     26  C   UNL     1      44.458   2.543   9.916  0.00  0.00    +0.000 A 
ATOM     27  N   UNL     1      44.976   1.648   9.031  0.00  0.00    +0.000 NA
ATOM     28  C   UNL     1      45.803   2.161   8.180  0.00  0.00    +0.000 A 
ATOM     29  N   UNL     1      46.141   3.486   8.117  0.00  0.00    +0.000 N 
ATOM     30  C   UNL     1      45.566   4.438   8.923  0.00  0.00    +0.000 A 
ATOM     31  O   UNL     1      45.752   5.628   8.716  0.00  0.00    +0.000 OA
ATOM     32  C   UNL     1      44.697   3.905   9.956  0.00  0.00    +0.000 A 
ATOM     33  H   UNL     1      46.750   3.832   7.392  0.00  0.00    +0.000 HD
ENDBRANCH  20  23
ENDBRANCH   1  19
BRANCH   1  34
ATOM     34  C   UNL     1      45.448   8.833  11.251  0.00  0.00    +0.000 C 
BRANCH  34  36
ATOM     35  C   UNL     1      43.917  10.316  10.250  0.00  0.00    +0.000 C 
ATOM     36  O   UNL     1      44.338   9.712  11.469  0.00  0.00    +0.000 OA
ENDBRANCH  34  36
ENDBRANCH   1  34
TORSDOF 9
ENDMDL
MODEL 7
REMARK VINA RESULT:    -6.121      1.964      2.565
REMARK INTER + INTRA:         -10.614
REMARK INTER:                  -9.160
REMARK INTRA:                  -1.454
REMARK UNBOUND:                -1.272
REMARK  Name = 
REMARK  11 active torsions:
REMARK  status: ('A' for Active; 'I' for Inactive)
REMARK    1  A    between atoms: C_1  and  O_2
REMARK    2  A    between atoms: O_2  and  C_3
REMARK    3  A    between atoms: C_3  and  C_4
REMARK    4  A    between atoms: C_4  and  N_5
REMARK    5  A    between atoms: C_4  and  C_18
REMARK    6  A    between atoms: C_6  and  C_8
REMARK    7  A    between atoms: C_21  and  C_22
REMARK    8  A    between atoms: C_22  and  N_23
REMARK    9  A    between atoms: N_23  and  C_24
REMARK   10  A    between atoms: C_24  and  C_25
REMARK   11  A    between atoms: C_24  and  C_26
REMARK                            x       y       z     vdW  Elec       q    Type
REMARK                         _______ _______ _______ _____ _____    ______ ____
ROOT
ATOM      1  C   UNL     1      49.900   8.737  14.121  0.00  0.00    +0.000 C 
ENDROOT
BRANCH   1   2
ATOM      2  C   UNL     1      48.662   8.220  13.406  0.00  0.00    +0.000 A 
ATOM      3  C   UNL     1      47.415   8.819  13.622  0.00  0.00    +0.000 A 
ATOM      4  C   UNL     1      46.268   8.303  13.017  0.00  0.00    +0.000 A 
ATOM      5  C   UNL     1      46.351   7.186  12.177  0.00  0.00    +0.000 A 
ATOM      6  C   UNL     1      47.601   6.612  11.925  0.00  0.00    +0.000 A 
ATOM      7  C   UNL     1      48.742   7.125  12.530  0.00  0.00    +0.000 A 
BRANCH   5   8
ATOM      8  C   UNL     1      45.117   6.538  11.607  0.00  0.00    +0.000 C 
BRANCH   8   9
ATOM      9  N   UNL     1      45.166   5.075  11.668  0.00  0.00    +0.000 NA
ATOM     10  H   UNL     1      44.920   4.791  12.615  0.00  0.00    +0.000 HD
BRANCH   9  11
ATOM     11  C   UNL     1      44.229   4.448  10.707  0.00  0.00    +0.000 C 
ATOM     12  C   UNL     1      43.256   3.495  11.419  0.00  0.00    +0.000 C 
BRANCH  11  13
ATOM     13  C   UNL     1      44.930   3.782   9.528  0.00  0.00    +0.000 A 
ATOM     14  C   UNL     1      45.597   4.554   8.580  0.00  0.00    +0.000 A 
ATOM     15  N   UNL     1      46.332   4.019   7.575  0.00  0.00    +0.000 NA
ATOM     16  C   UNL     1      46.389   2.669   7.557  0.00  0.00    +0.000 A 
ATOM     17  C   UNL     1      45.743   1.888   8.496  0.00  0.00    +0.000 A 
ATOM     18  N   UNL     1      45.004   2.422   9.493  0.00  0.00    +0.000 NA
ENDBRANCH  11  13
ENDBRANCH   9  11
ENDBRANCH   8   9
ENDBRANCH   5   8
ENDBRANCH   1   2
BRANCH   1  19
ATOM     19  N   UNL     1      49.948   8.188  15.467  0.00  0.00    +0.000 N 
ATOM     20  C   UNL     1      51.032   7.510  15.957  0.00  0.00    +0.000 C 
ATOM     21  O   UNL     1      52.086   7.394  15.338  0.00  0.00    +0.000 OA
ATOM     22  H   UNL     1      49.052   8.063  15.922  0.00  0.00    +0.000 HD
BRANCH  20  23
ATOM     23  C   UNL     1      50.875   6.957  17.305  0.00  0.00    +0.000 A 
ATOM     24  C   UNL     1      51.665   7.415  18.351  0.00  0.00    +0.000 A 
ATOM     25  S   UNL     1      51.348   6.639  19.836  0.00  0.00    +0.000 S 
ATOM     26  C   UNL     1      50.180   5.626  19.119  0.00  0.00    +0.000 A 
ATOM     27  N   UNL     1      49.548   4.660  19.840  0.00  0.00    +0.000 NA
ATOM     28  C   UNL     1      48.721   3.941  19.154  0.00  0.00    +0.000 A 
ATOM     29  N   UNL     1      48.452   4.112  17.823  0.00  0.00    +0.000 N 
ATOM     30  C   UNL     1      48.990   5.137  17.082  0.00  0.00    +0.000 A 
ATOM     31  O   UNL     1      48.588   5.371  15.953  0.00  0.00    +0.000 OA
ATOM     32  C   UNL     1      49.993   5.920  17.781  0.00  0.00    +0.000 A 
ATOM     33  H   UNL     1      47.754   3.553  17.358  0.00  0.00    +0.000 HD
ENDBRANCH  20  23
ENDBRANCH   1  19
BRANCH   1  34
ATOM     34  C   UNL     1      49.882  10.287  14.136  0.00  0.00    +0.000 C 
BRANCH  34  36
ATOM     35  C   UNL     1      51.520  11.369  15.436  0.00  0.00    +0.000 C 
ATOM     36  O   UNL     1      50.212  10.807  15.430  0.00  0.00    +0.000 OA
ENDBRANCH  34  36
ENDBRANCH   1  34
TORSDOF 9
ENDMDL
MODEL 8
REMARK VINA RESULT:    -5.863      3.369      8.375
REMARK INTER + INTRA:         -10.220
REMARK INTER:                  -9.455
REMARK INTRA:                  -0.765
REMARK UNBOUND:                -1.272
REMARK  Name = 
REMARK  11 active torsions:
REMARK  status: ('A' for Active; 'I' for Inactive)
REMARK    1  A    between atoms: C_1  and  O_2
REMARK    2  A    between atoms: O_2  and  C_3
REMARK    3  A    between atoms: C_3  and  C_4
REMARK    4  A    between atoms: C_4  and  N_5
REMARK    5  A    between atoms: C_4  and  C_18
REMARK    6  A    between atoms: C_6  and  C_8
REMARK    7  A    between atoms: C_21  and  C_22
REMARK    8  A    between atoms: C_22  and  N_23
REMARK    9  A    between atoms: N_23  and  C_24
REMARK   10  A    between atoms: C_24  and  C_25
REMARK   11  A    between atoms: C_24  and  C_26
REMARK                            x       y       z     vdW  Elec       q    Type
REMARK                         _______ _______ _______ _____ _____    ______ ____
ROOT
ATOM      1  C   UNL     1      47.612   8.442  12.608  0.00  0.00    +0.000 C 
ENDROOT
BRANCH   1   2
ATOM      2  C   UNL     1      48.146   8.014  13.965  0.00  0.00    +0.000 A 
ATOM      3  C   UNL     1      48.613   8.967  14.877  0.00  0.00    +0.000 A 
ATOM      4  C   UNL     1      49.166   8.568  16.096  0.00  0.00    +0.000 A 
ATOM      5  C   UNL     1      49.248   7.210  16.426  0.00  0.00    +0.000 A 
ATOM      6  C   UNL     1      48.743   6.259  15.536  0.00  0.00    +0.000 A 
ATOM      7  C   UNL     1      48.196   6.655  14.321  0.00  0.00    +0.000 A 
BRANCH   5   8
ATOM      8  C   UNL     1      49.945   6.747  17.679  0.00  0.00    +0.000 C 
BRANCH   8   9
ATOM      9  N   UNL     1      49.313   7.255  18.899  0.00  0.00    +0.000 NA
ATOM     10  H   UNL     1      49.210   8.263  18.804  0.00  0.00    +0.000 HD
BRANCH   9  11
ATOM     11  C   UNL     1      47.983   6.644  19.129  0.00  0.00    +0.000 C 
ATOM     12  C   UNL     1      47.520   6.847  20.580  0.00  0.00    +0.000 C 
BRANCH  11  13
ATOM     13  C   UNL     1      47.905   5.184  18.698  0.00  0.00    +0.000 A 
ATOM     14  C   UNL     1      46.889   4.756  17.847  0.00  0.00    +0.000 A 
ATOM     15  N   UNL     1      46.830   3.502  17.337  0.00  0.00    +0.000 NA
ATOM     16  C   UNL     1      47.841   2.683  17.701  0.00  0.00    +0.000 A 
ATOM     17  C   UNL     1      48.864   3.094  18.535  0.00  0.00    +0.000 A 
ATOM     18  N   UNL     1      48.918   4.343  19.049  0.00  0.00    +0.000 NA
ENDBRANCH  11  13
ENDBRANCH   9  11
ENDBRANCH   8   9
ENDBRANCH   5   8
ENDBRANCH   1   2
BRANCH   1  19
ATOM     19  N   UNL     1      47.094   7.281  11.901  0.00  0.00    +0.000 N 
ATOM     20  C   UNL     1      45.799   7.189  11.467  0.00  0.00    +0.000 C 
ATOM     21  O   UNL     1      44.996   8.114  11.552  0.00  0.00    +0.000 OA
ATOM     22  H   UNL     1      47.634   6.429  12.002  0.00  0.00    +0.000 HD
BRANCH  20  23
ATOM     23  C   UNL     1      45.431   5.914  10.845  0.00  0.00    +0.000 A 
ATOM     24  C   UNL     1      45.718   5.675   9.508  0.00  0.00    +0.000 A 
ATOM     25  S   UNL     1      45.195   4.146   8.961  0.00  0.00    +0.000 S 
ATOM     26  C   UNL     1      44.520   3.774  10.480  0.00  0.00    +0.000 A 
ATOM     27  N   UNL     1      43.847   2.608  10.685  0.00  0.00    +0.000 NA
ATOM     28  C   UNL     1      43.352   2.483  11.873  0.00  0.00    +0.000 A 
ATOM     29  N   UNL     1      43.485   3.402  12.878  0.00  0.00    +0.000 N 
ATOM     30  C   UNL     1      44.240   4.543  12.746  0.00  0.00    +0.000 A 
ATOM     31  O   UNL     1      44.489   5.245  13.715  0.00  0.00    +0.000 OA
ATOM     32  C   UNL     1      44.745   4.776  11.405  0.00  0.00    +0.000 A 
ATOM     33  H   UNL     1      43.122   3.219  13.800  0.00  0.00    +0.000 HD
ENDBRANCH  20  23
ENDBRANCH   1  19
BRANCH   1  34
ATOM     34  C   UNL     1      48.736   9.146  11.805  0.00  0.00    +0.000 C 
BRANCH  34  36
ATOM     35  C   UNL     1      47.818  11.279  12.188  0.00  0.00    +0.000 C 
ATOM     36  O   UNL     1      48.274  10.360  11.202  0.00  0.00    +0.000 OA
ENDBRANCH  34  36
ENDBRANCH   1  34
TORSDOF 9
ENDMDL
MODEL 9
REMARK VINA RESULT:    -5.680      1.913      2.832
REMARK INTER + INTRA:          -9.941
REMARK INTER:                  -9.582
REMARK INTRA:                  -0.358
REMARK UNBOUND:                -1.272
REMARK  Name = 
REMARK  11 active torsions:
REMARK  status: ('A' for Active; 'I' for Inactive)
REMARK    1  A    between atoms: C_1  and  O_2
REMARK    2  A    between atoms: O_2  and  C_3
REMARK    3  A    between atoms: C_3  and  C_4
REMARK    4  A    between atoms: C_4  and  N_5
REMARK    5  A    between atoms: C_4  and  C_18
REMARK    6  A    between atoms: C_6  and  C_8
REMARK    7  A    between atoms: C_21  and  C_22
REMARK    8  A    between atoms: C_22  and  N_23
REMARK    9  A    between atoms: N_23  and  C_24
REMARK   10  A    between atoms: C_24  and  C_25
REMARK   11  A    between atoms: C_24  and  C_26
REMARK                            x       y       z     vdW  Elec       q    Type
REMARK                         _______ _______ _______ _____ _____    ______ ____
ROOT
ATOM      1  C   UNL     1      48.237   8.779  14.075  0.00  0.00    +0.000 C 
ENDROOT
BRANCH   1   2
ATOM      2  C   UNL     1      47.671   7.417  13.704  0.00  0.00    +0.000 A 
ATOM      3  C   UNL     1      46.861   7.270  12.572  0.00  0.00    +0.000 A 
ATOM      4  C   UNL     1      46.287   6.033  12.269  0.00  0.00    +0.000 A 
ATOM      5  C   UNL     1      46.524   4.922  13.088  0.00  0.00    +0.000 A 
ATOM      6  C   UNL     1      47.367   5.057  14.195  0.00  0.00    +0.000 A 
ATOM      7  C   UNL     1      47.936   6.288  14.497  0.00  0.00    +0.000 A 
BRANCH   5   8
ATOM      8  C   UNL     1      45.824   3.609  12.853  0.00  0.00    +0.000 C 
BRANCH   8   9
ATOM      9  N   UNL     1      44.382   3.765  12.650  0.00  0.00    +0.000 NA
ATOM     10  H   UNL     1      43.990   4.188  13.489  0.00  0.00    +0.000 HD
BRANCH   9  11
ATOM     11  C   UNL     1      44.076   4.620  11.479  0.00  0.00    +0.000 C 
ATOM     12  C   UNL     1      42.605   5.064  11.483  0.00  0.00    +0.000 C 
BRANCH  11  13
ATOM     13  C   UNL     1      44.486   3.995  10.151  0.00  0.00    +0.000 A 
ATOM     14  C   UNL     1      45.210   4.736   9.219  0.00  0.00    +0.000 A 
ATOM     15  N   UNL     1      45.701   4.206   8.073  0.00  0.00    +0.000 NA
ATOM     16  C   UNL     1      45.452   2.890   7.893  0.00  0.00    +0.000 A 
ATOM     17  C   UNL     1      44.746   2.137   8.812  0.00  0.00    +0.000 A 
ATOM     18  N   UNL     1      44.250   2.668   9.951  0.00  0.00    +0.000 NA
ENDBRANCH  11  13
ENDBRANCH   9  11
ENDBRANCH   8   9
ENDBRANCH   5   8
ENDBRANCH   1   2
BRANCH   1  19
ATOM     19  N   UNL     1      47.827   9.124  15.426  0.00  0.00    +0.000 N 
ATOM     20  C   UNL     1      48.713   9.485  16.405  0.00  0.00    +0.000 C 
ATOM     21  O   UNL     1      49.913   9.643  16.198  0.00  0.00    +0.000 OA
ATOM     22  H   UNL     1      46.906   8.802  15.701  0.00  0.00    +0.000 HD
BRANCH  20  23
ATOM     23  C   UNL     1      48.131   9.721  17.729  0.00  0.00    +0.000 A 
ATOM     24  C   UNL     1      47.800  11.007  18.134  0.00  0.00    +0.000 A 
ATOM     25  S   UNL     1      47.154  11.081  19.711  0.00  0.00    +0.000 S 
ATOM     26  C   UNL     1      47.344   9.401  19.926  0.00  0.00    +0.000 A 
ATOM     27  N   UNL     1      47.031   8.802  21.107  0.00  0.00    +0.000 NA
ATOM     28  C   UNL     1      47.269   7.532  21.138  0.00  0.00    +0.000 A 
ATOM     29  N   UNL     1      47.768   6.803  20.092  0.00  0.00    +0.000 N 
ATOM     30  C   UNL     1      48.002   7.347  18.852  0.00  0.00    +0.000 A 
ATOM     31  O   UNL     1      48.269   6.634  17.896  0.00  0.00    +0.000 OA
ATOM     32  C   UNL     1      47.835   8.788  18.788  0.00  0.00    +0.000 A 
ATOM     33  H   UNL     1      47.879   5.804  20.162  0.00  0.00    +0.000 HD
ENDBRANCH  20  23
ENDBRANCH   1  19
BRANCH   1  34
ATOM     34  C   UNL     1      47.762   9.836  13.045  0.00  0.00    +0.000 C 
BRANCH  34  36
ATOM     35  C   UNL     1      49.337  10.371  11.379  0.00  0.00    +0.000 C 
ATOM     36  O   UNL     1      48.827  10.716  12.662  0.00  0.00    +0.000 OA
ENDBRANCH  34  36
ENDBRANCH   1  34
TORSDOF 9
ENDMDL
