MODEL 1
REMARK VINA RESULT:    -7.321      0.000      0.000
REMARK INTER + INTRA:          -9.676
REMARK INTER:                  -9.033
REMARK INTRA:                  -0.643
REMARK UNBOUND:                -0.643
REMARK  Name = 
REMARK  4 active torsions:
REMARK  status: ('A' for Active; 'I' for Inactive)
REMARK    1  A    between atoms: C_2  and  C_3
REMARK    2  A    between atoms: C_8  and  C_9
REMARK    3  A    between atoms: C_9  and  N_10
REMARK    4  A    between atoms: C_15  and  C_16
REMARK                            x       y       z     vdW  Elec       q    Type
REMARK                         _______ _______ _______ _____ _____    ______ ____
ROOT
ATOM      1  N   UNL     1      44.050   4.689  10.849  0.00  0.00    +0.000 N 
ATOM      2  C   UNL     1      43.435   3.601  11.422  0.00  0.00    +0.000 A 
ATOM      3  C   UNL     1      43.843   2.472  10.753  0.00  0.00    +0.000 A 
ATOM      4  C   UNL     1      44.729   2.878   9.720  0.00  0.00    +0.000 A 
ATOM      5  C   UNL     1      45.404   2.175   8.698  0.00  0.00    +0.000 A 
ATOM      6  C   UNL     1      46.201   2.872   7.779  0.00  0.00    +0.000 A 
ATOM      7  C   UNL     1      46.345   4.257   7.909  0.00  0.00    +0.000 A 
ATOM      8  C   UNL     1      45.683   4.975   8.913  0.00  0.00    +0.000 A 
ATOM      9  C   UNL     1      44.864   4.268   9.808  0.00  0.00    +0.000 A 
ENDROOT
BRANCH   6  10
ATOM     10  C   UNL     1      46.894   2.206   6.636  0.00  0.00    +0.000 C 
ATOM     11  N   UNL     1      47.209   2.948   5.532  0.00  0.00    +0.000 N 
ATOM     12  O   UNL     1      47.200   1.019   6.677  0.00  0.00    +0.000 OA
ATOM     13  H   UNL     1      47.039   3.934   5.424  0.00  0.00    +0.000 HD
ATOM     14  H   UNL     1      47.711   2.471   4.795  0.00  0.00    +0.000 HD
ENDBRANCH   6  10
BRANCH   1  15
ATOM     15  C   UNL     1      43.680   6.070  11.149  0.00  0.00    +0.000 C 
BRANCH  15  21
ATOM     16  C   UNL     1      44.893   8.264  11.732  0.00  0.00    +0.000 A 
ATOM     17  C   UNL     1      45.998   8.916  12.308  0.00  0.00    +0.000 A 
ATOM     18  C   UNL     1      46.953   8.199  13.027  0.00  0.00    +0.000 A 
ATOM     19  C   UNL     1      46.807   6.828  13.188  0.00  0.00    +0.000 A 
ATOM     20  C   UNL     1      45.726   6.167  12.601  0.00  0.00    +0.000 A 
ATOM     21  C   UNL     1      44.761   6.863  11.851  0.00  0.00    +0.000 A 
BRANCH  16  23
ATOM     22  N   UNL     1      43.174   9.731  10.453  0.00  0.00    +0.000 NA
ATOM     23  C   UNL     1      43.943   9.072  11.018  0.00  0.00    +0.000 C 
ENDBRANCH  16  23
ENDBRANCH  15  21
ENDBRANCH   1  15
TORSDOF 4
ENDMDL
MODEL 2
REMARK VINA RESULT:    -7.278      1.437      2.317
REMARK INTER + INTRA:          -9.623
REMARK INTER:                  -9.318
REMARK INTRA:                  -0.305
REMARK UNBOUND:                -0.643
REMARK  Name = 
REMARK  4 active torsions:
REMARK  status: ('A' for Active; 'I' for Inactive)
REMARK    1  A    between atoms: C_2  and  C_3
REMARK    2  A    between atoms: C_8  and  C_9
REMARK    3  A    between atoms: C_9  and  N_10
REMARK    4  A    between atoms: C_15  and  C_16
REMARK                            x       y       z     vdW  Elec       q    Type
REMARK                         _______ _______ _______ _____ _____    ______ ____
ROOT
ATOM      1  N   UNL     1      44.044   4.327  10.923  0.00  0.00    +0.000 N 
ATOM      2  C   UNL     1      43.522   3.111  11.297  0.00  0.00    +0.000 A 
ATOM      3  C   UNL     1      44.028   2.149  10.456  0.00  0.00    +0.000 A 
ATOM      4  C   UNL     1      44.879   2.795   9.522  0.00  0.00    +0.000 A 
ATOM      5  C   UNL     1      45.616   2.331   8.409  0.00  0.00    +0.000 A 
ATOM      6  C   UNL     1      46.354   3.237   7.634  0.00  0.00    +0.000 A 
ATOM      7  C   UNL     1      46.379   4.588   7.995  0.00  0.00    +0.000 A 
ATOM      8  C   UNL     1      45.654   5.070   9.092  0.00  0.00    +0.000 A 
ATOM      9  C   UNL     1      44.895   4.157   9.842  0.00  0.00    +0.000 A 
ENDROOT
BRANCH   6  10
ATOM     10  C   UNL     1      47.106   2.833   6.409  0.00  0.00    +0.000 C 
ATOM     11  N   UNL     1      48.455   2.628   6.499  0.00  0.00    +0.000 N 
ATOM     12  O   UNL     1      46.538   2.664   5.335  0.00  0.00    +0.000 OA
ATOM     13  H   UNL     1      49.000   2.699   7.342  0.00  0.00    +0.000 HD
ATOM     14  H   UNL     1      48.923   2.318   5.657  0.00  0.00    +0.000 HD
ENDBRANCH   6  10
BRANCH   1  15
ATOM     15  C   UNL     1      43.556   5.603  11.443  0.00  0.00    +0.000 C 
BRANCH  15  21
ATOM     16  C   UNL     1      45.661   6.230  12.787  0.00  0.00    +0.000 A 
ATOM     17  C   UNL     1      46.566   7.214  13.221  0.00  0.00    +0.000 A 
ATOM     18  C   UNL     1      46.500   8.514  12.721  0.00  0.00    +0.000 A 
ATOM     19  C   UNL     1      45.538   8.839  11.774  0.00  0.00    +0.000 A 
ATOM     20  C   UNL     1      44.621   7.875  11.352  0.00  0.00    +0.000 A 
ATOM     21  C   UNL     1      44.650   6.563  11.858  0.00  0.00    +0.000 A 
BRANCH  16  23
ATOM     22  N   UNL     1      45.926   3.847  13.782  0.00  0.00    +0.000 NA
ATOM     23  C   UNL     1      45.801   4.909  13.337  0.00  0.00    +0.000 C 
ENDBRANCH  16  23
ENDBRANCH  15  21
ENDBRANCH   1  15
TORSDOF 4
ENDMDL
MODEL 3
REMARK VINA RESULT:    -7.201      3.309      6.795
REMARK INTER + INTRA:          -9.527
REMARK INTER:                  -8.747
REMARK INTRA:                  -0.781
REMARK UNBOUND:                -0.643
REMARK  Name = 
REMARK  4 active torsions:
REMARK  status: ('A' for Active; 'I' for Inactive)
REMARK    1  A    between atoms: C_2  and  C_3
REMARK    2  A    between atoms: C_8  and  C_9
REMARK    3  A    between atoms: C_9  and  N_10
REMARK    4  A    between atoms: C_15  and  C_16
REMARK                            x       y       z     vdW  Elec       q    Type
REMARK                         _______ _______ _______ _____ _____    ______ ____
ROOT
ATOM      1  N   UNL     1      45.964   6.044  11.376  0.00  0.00    +0.000 N 
ATOM      2  C   UNL     1      46.633   7.222  11.141  0.00  0.00    +0.000 A 
ATOM      3  C   UNL     1      47.480   7.454  12.198  0.00  0.00    +0.000 A 
ATOM      4  C   UNL     1      47.317   6.392  13.125  0.00  0.00    +0.000 A 
ATOM      5  C   UNL     1      47.873   6.129  14.397  0.00  0.00    +0.000 A 
ATOM      6  C   UNL     1      47.480   4.985  15.108  0.00  0.00    +0.000 A 
ATOM      7  C   UNL     1      46.566   4.099  14.530  0.00  0.00    +0.000 A 
ATOM      8  C   UNL     1      46.000   4.341  13.272  0.00  0.00    +0.000 A 
ATOM      9  C   UNL     1      46.379   5.505  12.584  0.00  0.00    +0.000 A 
ENDROOT
BRANCH   6  10
ATOM     10  C   UNL     1      47.976   4.674  16.482  0.00  0.00    +0.000 C 
ATOM     11  N   UNL     1      47.241   5.085  17.558  0.00  0.00    +0.000 N 
ATOM     12  O   UNL     1      49.014   4.044  16.660  0.00  0.00    +0.000 OA
ATOM     13  H   UNL     1      46.359   5.567  17.512  0.00  0.00    +0.000 HD
ATOM     14  H   UNL     1      47.590   4.822  18.471  0.00  0.00    +0.000 HD
ENDBRANCH   6  10
BRANCH   1  15
ATOM     15  C   UNL     1      44.822   5.599  10.581  0.00  0.00    +0.000 C 
BRANCH  15  21
ATOM     16  C   UNL     1      44.700   3.155   9.782  0.00  0.00    +0.000 A 
ATOM     17  C   UNL     1      45.142   2.149   8.905  0.00  0.00    +0.000 A 
ATOM     18  C   UNL     1      45.988   2.453   7.839  0.00  0.00    +0.000 A 
ATOM     19  C   UNL     1      46.390   3.766   7.633  0.00  0.00    +0.000 A 
ATOM     20  C   UNL     1      45.974   4.769   8.510  0.00  0.00    +0.000 A 
ATOM     21  C   UNL     1      45.140   4.485   9.607  0.00  0.00    +0.000 A 
BRANCH  16  23
ATOM     22  N   UNL     1      43.099   2.447  11.699  0.00  0.00    +0.000 NA
ATOM     23  C   UNL     1      43.818   2.766  10.848  0.00  0.00    +0.000 C 
ENDBRANCH  16  23
ENDBRANCH  15  21
ENDBRANCH   1  15
TORSDOF 4
ENDMDL
MODEL 4
REMARK VINA RESULT:    -5.904      3.950      6.385
REMARK INTER + INTRA:          -7.927
REMARK INTER:                  -7.147
REMARK INTRA:                  -0.780
REMARK UNBOUND:                -0.643
REMARK  Name = 
REMARK  4 active torsions:
REMARK  status: ('A' for Active; 'I' for Inactive)
REMARK    1  A    between atoms: C_2  and  C_3
REMARK    2  A    between atoms: C_8  and  C_9
REMARK    3  A    between atoms: C_9  and  N_10
REMARK    4  A    between atoms: C_15  and  C_16
REMARK                            x       y       z     vdW  Elec       q    Type
REMARK                         _______ _______ _______ _____ _____    ______ ____
ROOT
ATOM      1  N   UNL     1      48.244   7.127  13.922  0.00  0.00    +0.000 N 
ATOM      2  C   UNL     1      48.120   8.158  13.022  0.00  0.00    +0.000 A 
ATOM      3  C   UNL     1      47.195   7.794  12.074  0.00  0.00    +0.000 A 
ATOM      4  C   UNL     1      46.743   6.486  12.390  0.00  0.00    +0.000 A 
ATOM      5  C   UNL     1      45.851   5.595  11.753  0.00  0.00    +0.000 A 
ATOM      6  C   UNL     1      45.628   4.322  12.299  0.00  0.00    +0.000 A 
ATOM      7  C   UNL     1      46.266   3.965  13.491  0.00  0.00    +0.000 A 
ATOM      8  C   UNL     1      47.156   4.831  14.137  0.00  0.00    +0.000 A 
ATOM      9  C   UNL     1      47.395   6.091  13.564  0.00  0.00    +0.000 A 
ENDROOT
BRANCH   6  10
ATOM     10  C   UNL     1      44.749   3.304  11.650  0.00  0.00    +0.000 C 
ATOM     11  N   UNL     1      43.896   2.574  12.431  0.00  0.00    +0.000 N 
ATOM     12  O   UNL     1      44.764   3.124  10.437  0.00  0.00    +0.000 OA
ATOM     13  H   UNL     1      43.781   2.680  13.425  0.00  0.00    +0.000 HD
ATOM     14  H   UNL     1      43.290   1.921  11.951  0.00  0.00    +0.000 HD
ENDBRANCH   6  10
BRANCH   1  15
ATOM     15  C   UNL     1      49.298   7.066  14.932  0.00  0.00    +0.000 C 
BRANCH  15  21
ATOM     16  C   UNL     1      48.682   6.422  17.347  0.00  0.00    +0.000 A 
ATOM     17  C   UNL     1      48.124   6.782  18.586  0.00  0.00    +0.000 A 
ATOM     18  C   UNL     1      47.747   8.100  18.843  0.00  0.00    +0.000 A 
ATOM     19  C   UNL     1      47.936   9.071  17.870  0.00  0.00    +0.000 A 
ATOM     20  C   UNL     1      48.469   8.721  16.628  0.00  0.00    +0.000 A 
ATOM     21  C   UNL     1      48.835   7.395  16.334  0.00  0.00    +0.000 A 
BRANCH  16  23
ATOM     22  N   UNL     1      49.375   3.943  17.009  0.00  0.00    +0.000 NA
ATOM     23  C   UNL     1      49.059   5.048  17.162  0.00  0.00    +0.000 C 
ENDBRANCH  16  23
ENDBRANCH  15  21
ENDBRANCH   1  15
TORSDOF 4
ENDMDL
MODEL 5
REMARK VINA RESULT:    -5.903      3.335      6.772
REMARK INTER + INTRA:          -7.926
REMARK INTER:                  -7.361
REMARK INTRA:                  -0.565
REMARK UNBOUND:                -0.643
REMARK  Name = 
REMARK  4 active torsions:
REMARK  status: ('A' for Active; 'I' for Inactive)
REMARK    1  A    between atoms: C_2  and  C_3
REMARK    2  A    between atoms: C_8  and  C_9
REMARK    3  A    between atoms: C_9  and  N_10
REMARK    4  A    between atoms: C_15  and  C_16
REMARK                            x       y       z     vdW  Elec       q    Type
REMARK                         _______ _______ _______ _____ _____    ______ ____
ROOT
ATOM      1  N   UNL     1      45.322   6.737  11.672  0.00  0.00    +0.000 N 
ATOM      2  C   UNL     1      44.598   7.888  11.470  0.00  0.00    +0.000 A 
ATOM      3  C   UNL     1      45.389   8.960  11.807  0.00  0.00    +0.000 A 
ATOM      4  C   UNL     1      46.639   8.453  12.248  0.00  0.00    +0.000 A 
ATOM      5  C   UNL     1      47.802   9.070  12.761  0.00  0.00    +0.000 A 
ATOM      6  C   UNL     1      48.893   8.283  13.156  0.00  0.00    +0.000 A 
ATOM      7  C   UNL     1      48.829   6.894  13.003  0.00  0.00    +0.000 A 
ATOM      8  C   UNL     1      47.686   6.262  12.500  0.00  0.00    +0.000 A 
ATOM      9  C   UNL     1      46.588   7.059  12.136  0.00  0.00    +0.000 A 
ENDROOT
BRANCH   6  10
ATOM     10  C   UNL     1      50.130   8.858  13.764  0.00  0.00    +0.000 C 
ATOM     11  N   UNL     1      50.465  10.152  13.481  0.00  0.00    +0.000 N 
ATOM     12  O   UNL     1      50.836   8.200  14.523  0.00  0.00    +0.000 OA
ATOM     13  H   UNL     1      49.928  10.781  12.908  0.00  0.00    +0.000 HD
ATOM     14  H   UNL     1      51.289  10.518  13.942  0.00  0.00    +0.000 HD
ENDBRANCH   6  10
BRANCH   1  15
ATOM     15  C   UNL     1      44.732   5.401  11.637  0.00  0.00    +0.000 C 
BRANCH  15  21
ATOM     16  C   UNL     1      44.486   3.345  10.107  0.00  0.00    +0.000 A 
ATOM     17  C   UNL     1      44.845   2.669   8.928  0.00  0.00    +0.000 A 
ATOM     18  C   UNL     1      45.638   3.291   7.963  0.00  0.00    +0.000 A 
ATOM     19  C   UNL     1      46.068   4.595   8.162  0.00  0.00    +0.000 A 
ATOM     20  C   UNL     1      45.735   5.268   9.339  0.00  0.00    +0.000 A 
ATOM     21  C   UNL     1      44.958   4.656  10.339  0.00  0.00    +0.000 A 
BRANCH  16  23
ATOM     22  N   UNL     1      42.991   2.069  11.803  0.00  0.00    +0.000 NA
ATOM     23  C   UNL     1      43.655   2.645  11.048  0.00  0.00    +0.000 C 
ENDBRANCH  16  23
ENDBRANCH  15  21
ENDBRANCH   1  15
TORSDOF 4
ENDMDL
MODEL 6
REMARK VINA RESULT:    -5.739      3.260      5.094
REMARK INTER + INTRA:          -7.725
REMARK INTER:                  -7.017
REMARK INTRA:                  -0.707
REMARK UNBOUND:                -0.643
REMARK  Name = 
REMARK  4 active torsions:
REMARK  status: ('A' for Active; 'I' for Inactive)
REMARK    1  A    between atoms: C_2  and  C_3
REMARK    2  A    between atoms: C_8  and  C_9
REMARK    3  A    between atoms: C_9  and  N_10
REMARK    4  A    between atoms: C_15  and  C_16
REMARK                            x       y       z     vdW  Elec       q    Type
REMARK                         _______ _______ _______ _____ _____    ______ ____
ROOT
ATOM      1  N   UNL     1      46.473   7.581  13.158  0.00  0.00    +0.000 N 
ATOM      2  C   UNL     1      45.843   8.559  12.425  0.00  0.00    +0.000 A 
ATOM      3  C   UNL     1      44.905   7.958  11.620  0.00  0.00    +0.000 A 
ATOM      4  C   UNL     1      44.969   6.559  11.852  0.00  0.00    +0.000 A 
ATOM      5  C   UNL     1      44.295   5.457  11.282  0.00  0.00    +0.000 A 
ATOM      6  C   UNL     1      44.605   4.155  11.702  0.00  0.00    +0.000 A 
ATOM      7  C   UNL     1      45.558   3.968  12.708  0.00  0.00    +0.000 A 
ATOM      8  C   UNL     1      46.241   5.046  13.285  0.00  0.00    +0.000 A 
ATOM      9  C   UNL     1      45.942   6.342  12.835  0.00  0.00    +0.000 A 
ENDROOT
BRANCH   6  10
ATOM     10  C   UNL     1      43.981   2.938  11.102  0.00  0.00    +0.000 C 
ATOM     11  N   UNL     1      44.598   2.332  10.044  0.00  0.00    +0.000 N 
ATOM     12  O   UNL     1      42.942   2.464  11.551  0.00  0.00    +0.000 OA
ATOM     13  H   UNL     1      45.472   2.619   9.636  0.00  0.00    +0.000 HD
ATOM     14  H   UNL     1      44.165   1.489   9.690  0.00  0.00    +0.000 HD
ENDBRANCH   6  10
BRANCH   1  15
ATOM     15  C   UNL     1      47.678   7.822  13.948  0.00  0.00    +0.000 C 
BRANCH  15  21
ATOM     16  C   UNL     1      49.595   9.420  13.319  0.00  0.00    +0.000 A 
ATOM     17  C   UNL     1      50.631   9.774  12.437  0.00  0.00    +0.000 A 
ATOM     18  C   UNL     1      50.996   8.927  11.390  0.00  0.00    +0.000 A 
ATOM     19  C   UNL     1      50.338   7.716  11.223  0.00  0.00    +0.000 A 
ATOM     20  C   UNL     1      49.293   7.366  12.081  0.00  0.00    +0.000 A 
ATOM     21  C   UNL     1      48.890   8.212  13.129  0.00  0.00    +0.000 A 
BRANCH  16  23
ATOM     22  N   UNL     1      49.049  11.082  15.238  0.00  0.00    +0.000 NA
ATOM     23  C   UNL     1      49.286  10.337  14.382  0.00  0.00    +0.000 C 
ENDBRANCH  16  23
ENDBRANCH  15  21
ENDBRANCH   1  15
TORSDOF 4
ENDMDL
MODEL 7
REMARK VINA RESULT:    -5.542      3.748      6.694
REMARK INTER + INTRA:          -7.481
REMARK INTER:                  -6.833
REMARK INTRA:                  -0.647
REMARK UNBOUND:                -0.643
REMARK  Name = 
REMARK  4 active torsions:
REMARK  status: ('A' for Active; 'I' for Inactive)
REMARK    1  A    between atoms: C_2  and  C_3
REMARK    2  A    between atoms: C_8  and  C_9
REMARK    3  A    between atoms: C_9  and  N_10
REMARK    4  A    between atoms: C_15  and  C_16
REMARK                            x       y       z     vdW  Elec       q    Type
REMARK                         _______ _______ _______ _____ _____    ______ ____
ROOT
ATOM      1  N   UNL     1      46.113   7.750  12.659  0.00  0.00    +0.000 N 
ATOM      2  C   UNL     1      45.401   8.922  12.560  0.00  0.00    +0.000 A 
ATOM      3  C   UNL     1      46.245   9.902  12.095  0.00  0.00    +0.000 A 
ATOM      4  C   UNL     1      47.527   9.319  11.917  0.00  0.00    +0.000 A 
ATOM      5  C   UNL     1      48.777   9.844  11.521  0.00  0.00    +0.000 A 
ATOM      6  C   UNL     1      49.902   9.008  11.472  0.00  0.00    +0.000 A 
ATOM      7  C   UNL     1      49.763   7.652  11.782  0.00  0.00    +0.000 A 
ATOM      8  C   UNL     1      48.534   7.111  12.179  0.00  0.00    +0.000 A 
ATOM      9  C   UNL     1      47.422   7.965  12.254  0.00  0.00    +0.000 A 
ENDROOT
BRANCH   6  10
ATOM     10  C   UNL     1      51.267   9.504  11.124  0.00  0.00    +0.000 C 
ATOM     11  N   UNL     1      51.746  10.617  11.757  0.00  0.00    +0.000 N 
ATOM     12  O   UNL     1      51.969   8.925  10.302  0.00  0.00    +0.000 OA
ATOM     13  H   UNL     1      51.265  11.133  12.474  0.00  0.00    +0.000 HD
ATOM     14  H   UNL     1      52.689  10.900  11.523  0.00  0.00    +0.000 HD
ENDBRANCH   6  10
BRANCH   1  15
ATOM     15  C   UNL     1      45.605   6.557  13.331  0.00  0.00    +0.000 C 
BRANCH  15  21
ATOM     16  C   UNL     1      45.517   4.186  12.333  0.00  0.00    +0.000 A 
ATOM     17  C   UNL     1      45.028   3.308  11.350  0.00  0.00    +0.000 A 
ATOM     18  C   UNL     1      44.045   3.721  10.450  0.00  0.00    +0.000 A 
ATOM     19  C   UNL     1      43.534   5.009  10.534  0.00  0.00    +0.000 A 
ATOM     20  C   UNL     1      44.029   5.895  11.492  0.00  0.00    +0.000 A 
ATOM     21  C   UNL     1      45.036   5.512  12.395  0.00  0.00    +0.000 A 
BRANCH  16  23
ATOM     22  N   UNL     1      47.326   3.289  13.966  0.00  0.00    +0.000 NA
ATOM     23  C   UNL     1      46.519   3.683  13.233  0.00  0.00    +0.000 C 
ENDBRANCH  16  23
ENDBRANCH  15  21
ENDBRANCH   1  15
TORSDOF 4
ENDMDL
MODEL 8
REMARK VINA RESULT:    -5.542      3.923      5.747
REMARK INTER + INTRA:          -7.481
REMARK INTER:                  -6.746
REMARK INTRA:                  -0.735
REMARK UNBOUND:                -0.643
REMARK  Name = 
REMARK  4 active torsions:
REMARK  status: ('A' for Active; 'I' for Inactive)
REMARK    1  A    between atoms: C_2  and  C_3
REMARK    2  A    between atoms: C_8  and  C_9
REMARK    3  A    between atoms: C_9  and  N_10
REMARK    4  A    between atoms: C_15  and  C_16
REMARK                            x       y       z     vdW  Elec       q    Type
REMARK                         _______ _______ _______ _____ _____    ______ ____
ROOT
ATOM      1  N   UNL     1      47.594   6.798  13.815  0.00  0.00    +0.000 N 
ATOM      2  C   UNL     1      47.170   7.988  13.272  0.00  0.00    +0.000 A 
ATOM      3  C   UNL     1      46.122   7.725  12.423  0.00  0.00    +0.000 A 
ATOM      4  C   UNL     1      45.900   6.323  12.430  0.00  0.00    +0.000 A 
ATOM      5  C   UNL     1      45.010   5.485  11.724  0.00  0.00    +0.000 A 
ATOM      6  C   UNL     1      45.052   4.097  11.920  0.00  0.00    +0.000 A 
ATOM      7  C   UNL     1      45.955   3.563  12.844  0.00  0.00    +0.000 A 
ATOM      8  C   UNL     1      46.849   4.374  13.553  0.00  0.00    +0.000 A 
ATOM      9  C   UNL     1      46.817   5.760  13.325  0.00  0.00    +0.000 A 
ENDROOT
BRANCH   6  10
ATOM     10  C   UNL     1      44.186   3.144  11.165  0.00  0.00    +0.000 C 
ATOM     11  N   UNL     1      44.747   2.384  10.176  0.00  0.00    +0.000 N 
ATOM     12  O   UNL     1      42.994   3.017  11.425  0.00  0.00    +0.000 OA
ATOM     13  H   UNL     1      45.720   2.386   9.921  0.00  0.00    +0.000 HD
ATOM     14  H   UNL     1      44.137   1.723   9.713  0.00  0.00    +0.000 HD
ENDBRANCH   6  10
BRANCH   1  15
ATOM     15  C   UNL     1      48.830   6.662  14.582  0.00  0.00    +0.000 C 
BRANCH  15  21
ATOM     16  C   UNL     1      48.665   7.734  16.916  0.00  0.00    +0.000 A 
ATOM     17  C   UNL     1      48.597   7.581  18.312  0.00  0.00    +0.000 A 
ATOM     18  C   UNL     1      48.460   6.317  18.885  0.00  0.00    +0.000 A 
ATOM     19  C   UNL     1      48.377   5.197  18.069  0.00  0.00    +0.000 A 
ATOM     20  C   UNL     1      48.465   5.335  16.683  0.00  0.00    +0.000 A 
ATOM     21  C   UNL     1      48.627   6.596  16.080  0.00  0.00    +0.000 A 
BRANCH  16  23
ATOM     22  N   UNL     1      48.892  10.141  15.971  0.00  0.00    +0.000 NA
ATOM     23  C   UNL     1      48.791   9.069  16.400  0.00  0.00    +0.000 C 
ENDBRANCH  16  23
ENDBRANCH  15  21
ENDBRANCH   1  15
TORSDOF 4
ENDMDL
MODEL 9
REMARK VINA RESULT:    -5.451      4.572      7.496
REMARK INTER + INTRA:          -7.368
REMARK INTER:                  -6.709
REMARK INTRA:                  -0.660
REMARK UNBOUND:                -0.643
REMARK  Name = 
REMARK  4 active torsions:
REMARK  status: ('A' for Active; 'I' for Inactive)
REMARK    1  A    between atoms: C_2  and  C_3
REMARK    2  A    between atoms: C_8  and  C_9
REMARK    3  A    between atoms: C_9  and  N_10
REMARK    4  A    between atoms: C_15  and  C_16
REMARK                            x       y       z     vdW  Elec       q    Type
REMARK                         _______ _______ _______ _____ _____    ______ ____
ROOT
ATOM      1  N   UNL     1      47.116   6.880  12.736  0.00  0.00    +0.000 N 
ATOM      2  C   UNL     1      47.433   7.363  11.488  0.00  0.00    +0.000 A 
ATOM      3  C   UNL     1      48.740   7.785  11.509  0.00  0.00    +0.000 A 
ATOM      4  C   UNL     1      49.244   7.571  12.819  0.00  0.00    +0.000 A 
ATOM      5  C   UNL     1      50.483   7.858  13.433  0.00  0.00    +0.000 A 
ATOM      6  C   UNL     1      50.677   7.555  14.789  0.00  0.00    +0.000 A 
ATOM      7  C   UNL     1      49.649   6.937  15.508  0.00  0.00    +0.000 A 
ATOM      8  C   UNL     1      48.411   6.647  14.919  0.00  0.00    +0.000 A 
ATOM      9  C   UNL     1      48.220   6.983  13.569  0.00  0.00    +0.000 A 
ENDROOT
BRANCH   6  10
ATOM     10  C   UNL     1      51.935   7.885  15.522  0.00  0.00    +0.000 C 
ATOM     11  N   UNL     1      52.974   6.997  15.484  0.00  0.00    +0.000 N 
ATOM     12  O   UNL     1      52.060   8.938  16.138  0.00  0.00    +0.000 OA
ATOM     13  H   UNL     1      52.982   6.131  14.972  0.00  0.00    +0.000 HD
ATOM     14  H   UNL     1      53.822   7.273  15.961  0.00  0.00    +0.000 HD
ENDBRANCH   6  10
BRANCH   1  15
ATOM     15  C   UNL     1      45.752   6.559  13.149  0.00  0.00    +0.000 C 
BRANCH  15  21
ATOM     16  C   UNL     1      45.493   4.103  12.421  0.00  0.00    +0.000 A 
ATOM     17  C   UNL     1      44.932   3.157  11.545  0.00  0.00    +0.000 A 
ATOM     18  C   UNL     1      43.964   3.534  10.614  0.00  0.00    +0.000 A 
ATOM     19  C   UNL     1      43.540   4.855  10.558  0.00  0.00    +0.000 A 
ATOM     20  C   UNL     1      44.107   5.806  11.408  0.00  0.00    +0.000 A 
ATOM     21  C   UNL     1      45.102   5.458  12.340  0.00  0.00    +0.000 A 
BRANCH  16  23
ATOM     22  N   UNL     1      47.274   3.266  14.114  0.00  0.00    +0.000 NA
ATOM     23  C   UNL     1      46.474   3.637  13.363  0.00  0.00    +0.000 C 
ENDBRANCH  16  23
ENDBRANCH  15  21
ENDBRANCH   1  15
TORSDOF 4
ENDMDL
