MODEL 1
REMARK VINA RESULT:    -7.988      0.000      0.000
REMARK INTER + INTRA:          -9.836
REMARK INTER:                  -9.856
REMARK INTRA:                   0.020
REMARK UNBOUND:                 0.020
REMARK  Name = 
REMARK  5 active torsions:
REMARK  status: ('A' for Active; 'I' for Inactive)
REMARK    1  A    between atoms: C_1  and  C_2
REMARK    2  A    between atoms: C_2  and  N_3
REMARK    3  A    between atoms: C_2  and  C_13
REMARK    4  A    between atoms: N_3  and  C_4
REMARK    5  A    between atoms: C_8  and  C_9
REMARK                            x       y       z     vdW  Elec       q    Type
REMARK                         _______ _______ _______ _____ _____    ______ ____
ROOT
ATOM      1  N   UNL     1      44.023   4.757   9.359  0.00  0.00    +0.000 N 
ATOM      2  H   UNL     1      43.328   5.124   8.716  0.00  0.00    +0.000 HD
ENDROOT
BRANCH   1   3
ATOM      3  C   UNL     1      44.794   3.717   8.869  0.00  0.00    +0.000 A 
ATOM      4  C   UNL     1      44.683   2.438   9.430  0.00  0.00    +0.000 A 
ATOM      5  N   UNL     1      45.370   1.339   9.029  0.00  0.00    +0.000 NA
ATOM      6  C   UNL     1      46.218   1.511   7.990  0.00  0.00    +0.000 A 
ATOM      7  C   UNL     1      46.389   2.725   7.339  0.00  0.00    +0.000 A 
ATOM      8  C   UNL     1      45.641   3.824   7.767  0.00  0.00    +0.000 A 
BRANCH   7   9
ATOM      9  C   UNL     1      47.353   2.798   6.218  0.00  0.00    +0.000 C 
ATOM     10  N   UNL     1      48.670   2.551   6.502  0.00  0.00    +0.000 N 
ATOM     11  O   UNL     1      46.991   3.038   5.073  0.00  0.00    +0.000 OA
ATOM     12  H   UNL     1      48.972   2.111   7.361  0.00  0.00    +0.000 HD
ATOM     13  H   UNL     1      49.300   2.508   5.712  0.00  0.00    +0.000 HD
ENDBRANCH   7   9
ENDBRANCH   1   3
BRANCH   1  15
ATOM     14  C   UNL     1      43.092   3.873  11.412  0.00  0.00    +0.000 C 
ATOM     15  C   UNL     1      43.818   5.060  10.772  0.00  0.00    +0.000 C 
BRANCH  15  16
ATOM     16  C   UNL     1      45.101   5.363  11.529  0.00  0.00    +0.000 A 
ATOM     17  C   UNL     1      45.924   6.415  11.084  0.00  0.00    +0.000 A 
ATOM     18  C   UNL     1      47.111   6.732  11.748  0.00  0.00    +0.000 A 
ATOM     19  C   UNL     1      47.496   6.005  12.872  0.00  0.00    +0.000 A 
ATOM     20  C   UNL     1      46.681   4.975  13.335  0.00  0.00    +0.000 A 
ATOM     21 CL   UNL     1      47.152   4.079  14.728  0.00  0.00    +0.000 Cl
ATOM     22  C   UNL     1      45.491   4.654  12.677  0.00  0.00    +0.000 A 
ENDBRANCH  15  16
ENDBRANCH   1  15
TORSDOF 4
ENDMDL
MODEL 2
REMARK VINA RESULT:    -7.944      1.157      1.598
REMARK INTER + INTRA:          -9.781
REMARK INTER:                  -9.808
REMARK INTRA:                   0.027
REMARK UNBOUND:                 0.020
REMARK  Name = 
REMARK  5 active torsions:
REMARK  status: ('A' for Active; 'I' for Inactive)
REMARK    1  A    between atoms: C_1  and  C_2
REMARK    2  A    between atoms: C_2  and  N_3
REMARK    3  A    between atoms: C_2  and  C_13
REMARK    4  A    between atoms: N_3  and  C_4
REMARK    5  A    between atoms: C_8  and  C_9
REMARK                            x       y       z     vdW  Elec       q    Type
REMARK                         _______ _______ _______ _____ _____    ______ ____
ROOT
ATOM      1  N   UNL     1      44.104   4.787   9.422  0.00  0.00    +0.000 N 
ATOM      2  H   UNL     1      43.436   5.199   8.778  0.00  0.00    +0.000 HD
ENDROOT
BRANCH   1   3
ATOM      3  C   UNL     1      44.847   3.737   8.913  0.00  0.00    +0.000 A 
ATOM      4  C   UNL     1      44.717   2.455   9.466  0.00  0.00    +0.000 A 
ATOM      5  N   UNL     1      45.377   1.346   9.047  0.00  0.00    +0.000 NA
ATOM      6  C   UNL     1      46.215   1.510   7.999  0.00  0.00    +0.000 A 
ATOM      7  C   UNL     1      46.402   2.725   7.355  0.00  0.00    +0.000 A 
ATOM      8  C   UNL     1      45.682   3.836   7.802  0.00  0.00    +0.000 A 
BRANCH   7   9
ATOM      9  C   UNL     1      47.353   2.789   6.223  0.00  0.00    +0.000 C 
ATOM     10  N   UNL     1      48.669   2.518   6.489  0.00  0.00    +0.000 N 
ATOM     11  O   UNL     1      46.981   3.040   5.083  0.00  0.00    +0.000 OA
ATOM     12  H   UNL     1      48.974   2.069   7.342  0.00  0.00    +0.000 HD
ATOM     13  H   UNL     1      49.289   2.470   5.690  0.00  0.00    +0.000 HD
ENDBRANCH   7   9
ENDBRANCH   1   3
BRANCH   1  15
ATOM     14  C   UNL     1      43.131   3.855  11.434  0.00  0.00    +0.000 C 
ATOM     15  C   UNL     1      43.879   5.052  10.839  0.00  0.00    +0.000 C 
BRANCH  15  16
ATOM     16  C   UNL     1      45.153   5.319  11.625  0.00  0.00    +0.000 A 
ATOM     17  C   UNL     1      45.448   4.514  12.742  0.00  0.00    +0.000 A 
ATOM     18  C   UNL     1      46.607   4.720  13.493  0.00  0.00    +0.000 A 
ATOM     19  C   UNL     1      47.495   5.733  13.140  0.00  0.00    +0.000 A 
ATOM     20  C   UNL     1      47.226   6.523  12.026  0.00  0.00    +0.000 A 
ATOM     21 CL   UNL     1      48.326   7.772  11.584  0.00  0.00    +0.000 Cl
ATOM     22  C   UNL     1      46.070   6.322  11.268  0.00  0.00    +0.000 A 
ENDBRANCH  15  16
ENDBRANCH   1  15
TORSDOF 4
ENDMDL
MODEL 3
REMARK VINA RESULT:    -7.609      3.609      5.941
REMARK INTER + INTRA:          -9.368
REMARK INTER:                  -9.505
REMARK INTRA:                   0.137
REMARK UNBOUND:                 0.020
REMARK  Name = 
REMARK  5 active torsions:
REMARK  status: ('A' for Active; 'I' for Inactive)
REMARK    1  A    between atoms: C_1  and  C_2
REMARK    2  A    between atoms: C_2  and  N_3
REMARK    3  A    between atoms: C_2  and  C_13
REMARK    4  A    between atoms: N_3  and  C_4
REMARK    5  A    between atoms: C_8  and  C_9
REMARK                            x       y       z     vdW  Elec       q    Type
REMARK                         _______ _______ _______ _____ _____    ______ ____
ROOT
ATOM      1  N   UNL     1      44.717   3.097  11.980  0.00  0.00    +0.000 N 
ATOM      2  H   UNL     1      44.338   2.394  12.607  0.00  0.00    +0.000 HD
ENDROOT
BRANCH   1   3
ATOM      3  C   UNL     1      45.526   4.049  12.575  0.00  0.00    +0.000 A 
ATOM      4  C   UNL     1      46.641   3.650  13.325  0.00  0.00    +0.000 A 
ATOM      5  N   UNL     1      47.515   4.485  13.941  0.00  0.00    +0.000 NA
ATOM      6  C   UNL     1      47.281   5.808  13.797  0.00  0.00    +0.000 A 
ATOM      7  C   UNL     1      46.224   6.319  13.055  0.00  0.00    +0.000 A 
ATOM      8  C   UNL     1      45.364   5.423  12.414  0.00  0.00    +0.000 A 
BRANCH   7   9
ATOM      9  C   UNL     1      46.059   7.787  12.973  0.00  0.00    +0.000 C 
ATOM     10  N   UNL     1      46.709   8.547  13.910  0.00  0.00    +0.000 N 
ATOM     11  O   UNL     1      45.396   8.312  12.088  0.00  0.00    +0.000 OA
ATOM     12  H   UNL     1      47.453   8.184  14.490  0.00  0.00    +0.000 HD
ATOM     13  H   UNL     1      46.667   9.550  13.783  0.00  0.00    +0.000 HD
ENDBRANCH   7   9
ENDBRANCH   1   3
BRANCH   1  15
ATOM     14  C   UNL     1      43.347   4.623  10.691  0.00  0.00    +0.000 C 
ATOM     15  C   UNL     1      44.033   3.254  10.700  0.00  0.00    +0.000 C 
BRANCH  15  16
ATOM     16  C   UNL     1      44.947   3.116   9.492  0.00  0.00    +0.000 A 
ATOM     17  C   UNL     1      45.329   4.275   8.790  0.00  0.00    +0.000 A 
ATOM     18  C   UNL     1      46.169   4.198   7.676  0.00  0.00    +0.000 A 
ATOM     19  C   UNL     1      46.644   2.962   7.246  0.00  0.00    +0.000 A 
ATOM     20  C   UNL     1      46.291   1.810   7.943  0.00  0.00    +0.000 A 
ATOM     21 CL   UNL     1      46.883   0.282   7.417  0.00  0.00    +0.000 Cl
ATOM     22  C   UNL     1      45.453   1.879   9.060  0.00  0.00    +0.000 A 
ENDBRANCH  15  16
ENDBRANCH   1  15
TORSDOF 4
ENDMDL
MODEL 4
REMARK VINA RESULT:    -6.957      2.161      2.892
REMARK INTER + INTRA:          -8.564
REMARK INTER:                  -8.143
REMARK INTRA:                  -0.421
REMARK UNBOUND:                 0.020
REMARK  Name = 
REMARK  5 active torsions:
REMARK  status: ('A' for Active; 'I' for Inactive)
REMARK    1  A    between atoms: C_1  and  C_2
REMARK    2  A    between atoms: C_2  and  N_3
REMARK    3  A    between atoms: C_2  and  C_13
REMARK    4  A    between atoms: N_3  and  C_4
REMARK    5  A    between atoms: C_8  and  C_9
REMARK                            x       y       z     vdW  Elec       q    Type
REMARK                         _______ _______ _______ _____ _____    ______ ____
ROOT
ATOM      1  N   UNL     1      44.322   5.872  11.585  0.00  0.00    +0.000 N 
ATOM      2  H   UNL     1      43.406   6.308  11.563  0.00  0.00    +0.000 HD
ENDROOT
BRANCH   1   3
ATOM      3  C   UNL     1      44.468   4.756  10.780  0.00  0.00    +0.000 A 
ATOM      4  C   UNL     1      43.727   3.597  11.048  0.00  0.00    +0.000 A 
ATOM      5  N   UNL     1      43.770   2.450  10.325  0.00  0.00    +0.000 NA
ATOM      6  C   UNL     1      44.594   2.449   9.254  0.00  0.00    +0.000 A 
ATOM      7  C   UNL     1      45.354   3.548   8.876  0.00  0.00    +0.000 A 
ATOM      8  C   UNL     1      45.258   4.718   9.633  0.00  0.00    +0.000 A 
BRANCH   7   9
ATOM      9  C   UNL     1      46.228   3.430   7.688  0.00  0.00    +0.000 C 
ATOM     10  N   UNL     1      46.797   2.208   7.442  0.00  0.00    +0.000 N 
ATOM     11  O   UNL     1      46.416   4.374   6.931  0.00  0.00    +0.000 OA
ATOM     12  H   UNL     1      46.477   1.356   7.883  0.00  0.00    +0.000 HD
ATOM     13  H   UNL     1      47.311   2.117   6.575  0.00  0.00    +0.000 HD
ENDBRANCH   7   9
ENDBRANCH   1   3
BRANCH   1  15
ATOM     14  C   UNL     1      45.853   4.912  13.198  0.00  0.00    +0.000 C 
ATOM     15  C   UNL     1      45.162   6.198  12.734  0.00  0.00    +0.000 C 
BRANCH  15  16
ATOM     16  C   UNL     1      46.195   7.279  12.454  0.00  0.00    +0.000 A 
ATOM     17  C   UNL     1      45.824   8.630  12.594  0.00  0.00    +0.000 A 
ATOM     18  C   UNL     1      46.739   9.657  12.349  0.00  0.00    +0.000 A 
ATOM     19  C   UNL     1      48.041   9.352  11.964  0.00  0.00    +0.000 A 
ATOM     20  C   UNL     1      48.427   8.020  11.841  0.00  0.00    +0.000 A 
ATOM     21 CL   UNL     1      50.040   7.641  11.371  0.00  0.00    +0.000 Cl
ATOM     22  C   UNL     1      47.519   6.987  12.086  0.00  0.00    +0.000 A 
ENDBRANCH  15  16
ENDBRANCH   1  15
TORSDOF 4
ENDMDL
MODEL 5
REMARK VINA RESULT:    -6.841      4.058      6.571
REMARK INTER + INTRA:          -8.420
REMARK INTER:                  -7.823
REMARK INTRA:                  -0.597
REMARK UNBOUND:                 0.020
REMARK  Name = 
REMARK  5 active torsions:
REMARK  status: ('A' for Active; 'I' for Inactive)
REMARK    1  A    between atoms: C_1  and  C_2
REMARK    2  A    between atoms: C_2  and  N_3
REMARK    3  A    between atoms: C_2  and  C_13
REMARK    4  A    between atoms: N_3  and  C_4
REMARK    5  A    between atoms: C_8  and  C_9
REMARK                            x       y       z     vdW  Elec       q    Type
REMARK                         _______ _______ _______ _____ _____    ______ ____
ROOT
ATOM      1  N   UNL     1      45.412   6.247  11.685  0.00  0.00    +0.000 N 
ATOM      2  H   UNL     1      45.718   6.802  10.892  0.00  0.00    +0.000 HD
ENDROOT
BRANCH   1   3
ATOM      3  C   UNL     1      46.309   6.168  12.736  0.00  0.00    +0.000 A 
ATOM      4  C   UNL     1      47.176   7.237  12.997  0.00  0.00    +0.000 A 
ATOM      5  N   UNL     1      48.085   7.286  14.003  0.00  0.00    +0.000 NA
ATOM      6  C   UNL     1      48.134   6.208  14.818  0.00  0.00    +0.000 A 
ATOM      7  C   UNL     1      47.305   5.105  14.671  0.00  0.00    +0.000 A 
ATOM      8  C   UNL     1      46.364   5.108  13.638  0.00  0.00    +0.000 A 
BRANCH   7   9
ATOM      9  C   UNL     1      47.453   3.976  15.617  0.00  0.00    +0.000 C 
ATOM     10  N   UNL     1      47.137   4.209  16.930  0.00  0.00    +0.000 N 
ATOM     11  O   UNL     1      47.811   2.866  15.244  0.00  0.00    +0.000 OA
ATOM     12  H   UNL     1      46.608   5.016  17.231  0.00  0.00    +0.000 HD
ATOM     13  H   UNL     1      47.149   3.405  17.545  0.00  0.00    +0.000 HD
ENDBRANCH   7   9
ENDBRANCH   1   3
BRANCH   1  15
ATOM     14  C   UNL     1      43.075   6.108  11.064  0.00  0.00    +0.000 C 
ATOM     15  C   UNL     1      44.327   5.305  11.430  0.00  0.00    +0.000 C 
BRANCH  15  16
ATOM     16  C   UNL     1      44.637   4.288  10.343  0.00  0.00    +0.000 A 
ATOM     17  C   UNL     1      44.120   2.984  10.460  0.00  0.00    +0.000 A 
ATOM     18  C   UNL     1      44.376   2.017   9.485  0.00  0.00    +0.000 A 
ATOM     19  C   UNL     1      45.152   2.336   8.374  0.00  0.00    +0.000 A 
ATOM     20  C   UNL     1      45.653   3.628   8.235  0.00  0.00    +0.000 A 
ATOM     21 CL   UNL     1      46.607   4.027   6.859  0.00  0.00    +0.000 Cl
ATOM     22  C   UNL     1      45.399   4.602   9.205  0.00  0.00    +0.000 A 
ENDBRANCH  15  16
ENDBRANCH   1  15
TORSDOF 4
ENDMDL
MODEL 6
REMARK VINA RESULT:    -6.759      4.704      7.128
REMARK INTER + INTRA:          -8.319
REMARK INTER:                  -7.747
REMARK INTRA:                  -0.572
REMARK UNBOUND:                 0.020
REMARK  Name = 
REMARK  5 active torsions:
REMARK  status: ('A' for Active; 'I' for Inactive)
REMARK    1  A    between atoms: C_1  and  C_2
REMARK    2  A    between atoms: C_2  and  N_3
REMARK    3  A    between atoms: C_2  and  C_13
REMARK    4  A    between atoms: N_3  and  C_4
REMARK    5  A    between atoms: C_8  and  C_9
REMARK                            x       y       z     vdW  Elec       q    Type
REMARK                         _______ _______ _______ _____ _____    ______ ____
ROOT
ATOM      1  N   UNL     1      46.915   6.154  12.680  0.00  0.00    +0.000 N 
ATOM      2  H   UNL     1      47.545   6.016  11.896  0.00  0.00    +0.000 HD
ENDROOT
BRANCH   1   3
ATOM      3  C   UNL     1      47.455   5.896  13.928  0.00  0.00    +0.000 A 
ATOM      4  C   UNL     1      48.277   6.849  14.545  0.00  0.00    +0.000 A 
ATOM      5  N   UNL     1      48.850   6.720  15.768  0.00  0.00    +0.000 NA
ATOM      6  C   UNL     1      48.582   5.576  16.436  0.00  0.00    +0.000 A 
ATOM      7  C   UNL     1      47.760   4.576  15.935  0.00  0.00    +0.000 A 
ATOM      8  C   UNL     1      47.169   4.762  14.684  0.00  0.00    +0.000 A 
BRANCH   7   9
ATOM      9  C   UNL     1      47.545   3.360  16.752  0.00  0.00    +0.000 C 
ATOM     10  N   UNL     1      48.593   2.485  16.868  0.00  0.00    +0.000 N 
ATOM     11  O   UNL     1      46.486   3.153  17.331  0.00  0.00    +0.000 OA
ATOM     12  H   UNL     1      49.543   2.733  16.624  0.00  0.00    +0.000 HD
ATOM     13  H   UNL     1      48.464   1.711  17.506  0.00  0.00    +0.000 HD
ENDBRANCH   7   9
ENDBRANCH   1   3
BRANCH   1  15
ATOM     14  C   UNL     1      45.175   7.486  11.649  0.00  0.00    +0.000 C 
ATOM     15  C   UNL     1      45.490   6.169  12.365  0.00  0.00    +0.000 C 
BRANCH  15  16
ATOM     16  C   UNL     1      45.033   4.989  11.520  0.00  0.00    +0.000 A 
ATOM     17  C   UNL     1      44.275   3.970  12.126  0.00  0.00    +0.000 A 
ATOM     18  C   UNL     1      43.832   2.868  11.391  0.00  0.00    +0.000 A 
ATOM     19  C   UNL     1      44.137   2.766  10.036  0.00  0.00    +0.000 A 
ATOM     20  C   UNL     1      44.869   3.777   9.420  0.00  0.00    +0.000 A 
ATOM     21 CL   UNL     1      45.241   3.657   7.743  0.00  0.00    +0.000 Cl
ATOM     22  C   UNL     1      45.314   4.884  10.148  0.00  0.00    +0.000 A 
ENDBRANCH  15  16
ENDBRANCH   1  15
TORSDOF 4
ENDMDL
MODEL 7
REMARK VINA RESULT:    -6.658      2.720      3.997
REMARK INTER + INTRA:          -8.194
REMARK INTER:                  -7.586
REMARK INTRA:                  -0.608
REMARK UNBOUND:                 0.020
REMARK  Name = 
REMARK  5 active torsions:
REMARK  status: ('A' for Active; 'I' for Inactive)
REMARK    1  A    between atoms: C_1  and  C_2
REMARK    2  A    between atoms: C_2  and  N_3
REMARK    3  A    between atoms: C_2  and  C_13
REMARK    4  A    between atoms: N_3  and  C_4
REMARK    5  A    between atoms: C_8  and  C_9
REMARK                            x       y       z     vdW  Elec       q    Type
REMARK                         _______ _______ _______ _____ _____    ______ ____
ROOT
ATOM      1  N   UNL     1      44.196   6.936  12.197  0.00  0.00    +0.000 N 
ATOM      2  H   UNL     1      43.747   7.264  13.046  0.00  0.00    +0.000 HD
ENDROOT
BRANCH   1   3
ATOM      3  C   UNL     1      44.081   5.580  11.949  0.00  0.00    +0.000 A 
ATOM      4  C   UNL     1      43.610   4.723  12.953  0.00  0.00    +0.000 A 
ATOM      5  N   UNL     1      43.438   3.382  12.828  0.00  0.00    +0.000 NA
ATOM      6  C   UNL     1      43.739   2.852  11.622  0.00  0.00    +0.000 A 
ATOM      7  C   UNL     1      44.186   3.607  10.547  0.00  0.00    +0.000 A 
ATOM      8  C   UNL     1      44.323   4.988  10.712  0.00  0.00    +0.000 A 
BRANCH   7   9
ATOM      9  C   UNL     1      44.494   2.917   9.275  0.00  0.00    +0.000 C 
ATOM     10  N   UNL     1      44.487   3.670   8.131  0.00  0.00    +0.000 N 
ATOM     11  O   UNL     1      44.777   1.726   9.241  0.00  0.00    +0.000 OA
ATOM     12  H   UNL     1      44.509   4.681   8.141  0.00  0.00    +0.000 HD
ATOM     13  H   UNL     1      44.794   3.207   7.285  0.00  0.00    +0.000 HD
ENDBRANCH   7   9
ENDBRANCH   1   3
BRANCH   1  15
ATOM     14  C   UNL     1      44.661   9.239  11.608  0.00  0.00    +0.000 C 
ATOM     15  C   UNL     1      45.217   7.812  11.630  0.00  0.00    +0.000 C 
BRANCH  15  16
ATOM     16  C   UNL     1      46.542   7.776  12.376  0.00  0.00    +0.000 A 
ATOM     17  C   UNL     1      47.599   7.006  11.853  0.00  0.00    +0.000 A 
ATOM     18  C   UNL     1      48.834   6.943  12.501  0.00  0.00    +0.000 A 
ATOM     19  C   UNL     1      49.037   7.651  13.683  0.00  0.00    +0.000 A 
ATOM     20  C   UNL     1      48.008   8.433  14.201  0.00  0.00    +0.000 A 
ATOM     21 CL   UNL     1      48.260   9.315  15.658  0.00  0.00    +0.000 Cl
ATOM     22  C   UNL     1      46.770   8.503  13.557  0.00  0.00    +0.000 A 
ENDBRANCH  15  16
ENDBRANCH   1  15
TORSDOF 4
ENDMDL
MODEL 8
REMARK VINA RESULT:    -6.581      2.686      4.340
REMARK INTER + INTRA:          -8.099
REMARK INTER:                  -7.564
REMARK INTRA:                  -0.535
REMARK UNBOUND:                 0.020
REMARK  Name = 
REMARK  5 active torsions:
REMARK  status: ('A' for Active; 'I' for Inactive)
REMARK    1  A    between atoms: C_1  and  C_2
REMARK    2  A    between atoms: C_2  and  N_3
REMARK    3  A    between atoms: C_2  and  C_13
REMARK    4  A    between atoms: N_3  and  C_4
REMARK    5  A    between atoms: C_8  and  C_9
REMARK                            x       y       z     vdW  Elec       q    Type
REMARK                         _______ _______ _______ _____ _____    ______ ____
ROOT
ATOM      1  N   UNL     1      45.949   6.248  13.240  0.00  0.00    +0.000 N 
ATOM      2  H   UNL     1      45.351   6.615  13.973  0.00  0.00    +0.000 HD
ENDROOT
BRANCH   1   3
ATOM      3  C   UNL     1      45.352   5.337  12.386  0.00  0.00    +0.000 A 
ATOM      4  C   UNL     1      44.439   4.400  12.890  0.00  0.00    +0.000 A 
ATOM      5  N   UNL     1      43.778   3.471  12.155  0.00  0.00    +0.000 NA
ATOM      6  C   UNL     1      44.026   3.473  10.826  0.00  0.00    +0.000 A 
ATOM      7  C   UNL     1      44.889   4.372  10.213  0.00  0.00    +0.000 A 
ATOM      8  C   UNL     1      45.527   5.330  11.004  0.00  0.00    +0.000 A 
BRANCH   7   9
ATOM      9  C   UNL     1      45.090   4.275   8.750  0.00  0.00    +0.000 C 
ATOM     10  N   UNL     1      44.201   3.512   8.040  0.00  0.00    +0.000 N 
ATOM     11  O   UNL     1      45.995   4.877   8.184  0.00  0.00    +0.000 OA
ATOM     12  H   UNL     1      43.313   3.211   8.419  0.00  0.00    +0.000 HD
ATOM     13  H   UNL     1      44.293   3.535   7.033  0.00  0.00    +0.000 HD
ENDBRANCH   7   9
ENDBRANCH   1   3
BRANCH   1  15
ATOM     14  C   UNL     1      47.763   7.853  13.236  0.00  0.00    +0.000 C 
ATOM     15  C   UNL     1      47.387   6.384  13.454  0.00  0.00    +0.000 C 
BRANCH  15  16
ATOM     16  C   UNL     1      47.851   5.921  14.827  0.00  0.00    +0.000 A 
ATOM     17  C   UNL     1      48.816   6.682  15.513  0.00  0.00    +0.000 A 
ATOM     18  C   UNL     1      49.272   6.298  16.776  0.00  0.00    +0.000 A 
ATOM     19  C   UNL     1      48.769   5.146  17.377  0.00  0.00    +0.000 A 
ATOM     20  C   UNL     1      47.800   4.395  16.718  0.00  0.00    +0.000 A 
ATOM     21 CL   UNL     1      47.172   2.975  17.463  0.00  0.00    +0.000 Cl
ATOM     22  C   UNL     1      47.337   4.775  15.455  0.00  0.00    +0.000 A 
ENDBRANCH  15  16
ENDBRANCH   1  15
TORSDOF 4
ENDMDL
MODEL 9
REMARK VINA RESULT:    -6.422      3.199      5.078
REMARK INTER + INTRA:          -7.903
REMARK INTER:                  -7.481
REMARK INTRA:                  -0.422
REMARK UNBOUND:                 0.020
REMARK  Name = 
REMARK  5 active torsions:
REMARK  status: ('A' for Active; 'I' for Inactive)
REMARK    1  A    between atoms: C_1  and  C_2
REMARK    2  A    between atoms: C_2  and  N_3
REMARK    3  A    between atoms: C_2  and  C_13
REMARK    4  A    between atoms: N_3  and  C_4
REMARK    5  A    between atoms: C_8  and  C_9
REMARK                            x       y       z     vdW  Elec       q    Type
REMARK                         _______ _______ _______ _____ _____    ______ ____
ROOT
ATOM      1  N   UNL     1      45.583   4.500  14.186  0.00  0.00    +0.000 N 
ATOM      2  H   UNL     1      45.151   3.973  14.939  0.00  0.00    +0.000 HD
ENDROOT
BRANCH   1   3
ATOM      3  C   UNL     1      44.848   4.574  13.016  0.00  0.00    +0.000 A 
ATOM      4  C   UNL     1      43.759   5.451  12.928  0.00  0.00    +0.000 A 
ATOM      5  N   UNL     1      42.974   5.626  11.836  0.00  0.00    +0.000 NA
ATOM      6  C   UNL     1      43.294   4.892  10.747  0.00  0.00    +0.000 A 
ATOM      7  C   UNL     1      44.367   4.012  10.709  0.00  0.00    +0.000 A 
ATOM      8  C   UNL     1      45.166   3.884  11.848  0.00  0.00    +0.000 A 
BRANCH   7   9
ATOM      9  C   UNL     1      44.618   3.252   9.464  0.00  0.00    +0.000 C 
ATOM     10  N   UNL     1      44.617   1.885   9.548  0.00  0.00    +0.000 N 
ATOM     11  O   UNL     1      44.788   3.816   8.390  0.00  0.00    +0.000 OA
ATOM     12  H   UNL     1      44.238   1.386  10.342  0.00  0.00    +0.000 HD
ATOM     13  H   UNL     1      44.692   1.381   8.674  0.00  0.00    +0.000 HD
ENDBRANCH   7   9
ENDBRANCH   1   3
BRANCH   1  15
ATOM     14  C   UNL     1      47.344   6.105  13.753  0.00  0.00    +0.000 C 
ATOM     15  C   UNL     1      47.024   4.707  14.290  0.00  0.00    +0.000 C 
BRANCH  15  16
ATOM     16  C   UNL     1      47.568   4.550  15.702  0.00  0.00    +0.000 A 
ATOM     17  C   UNL     1      47.363   3.333  16.381  0.00  0.00    +0.000 A 
ATOM     18  C   UNL     1      47.845   3.141  17.677  0.00  0.00    +0.000 A 
ATOM     19  C   UNL     1      48.544   4.161  18.319  0.00  0.00    +0.000 A 
ATOM     20  C   UNL     1      48.772   5.361  17.651  0.00  0.00    +0.000 A 
ATOM     21 CL   UNL     1      49.642   6.620  18.440  0.00  0.00    +0.000 Cl
ATOM     22  C   UNL     1      48.294   5.560  16.353  0.00  0.00    +0.000 A 
ENDBRANCH  15  16
ENDBRANCH   1  15
TORSDOF 4
ENDMDL
