MODEL 1
REMARK VINA RESULT:    -7.715      0.000      0.000
REMARK INTER + INTRA:         -13.415
REMARK INTER:                 -11.774
REMARK INTRA:                  -1.641
REMARK UNBOUND:                -1.641
REMARK  Name = 
REMARK  10 active torsions:
REMARK  status: ('A' for Active; 'I' for Inactive)
REMARK    1  A    between atoms: C_2  and  C_3
REMARK    2  A    between atoms: C_7  and  C_8
REMARK    3  A    between atoms: C_8  and  N_9
REMARK    4  A    between atoms: N_9  and  C_10
REMARK    5  A    between atoms: C_10  and  C_11
REMARK    6  A    between atoms: C_14  and  C_15
REMARK    7  A    between atoms: C_15  and  N_16
REMARK    8  A    between atoms: C_17  and  C_19
REMARK    9  A    between atoms: C_26  and  O_27
REMARK   10  A    between atoms: O_27  and  C_28
REMARK                            x       y       z     vdW  Elec       q    Type
REMARK                         _______ _______ _______ _____ _____    ______ ____
ROOT
ATOM      1  C   UNL     1      44.687   5.693  12.865  0.00  0.00    +0.000 A 
ATOM      2  C   UNL     1      44.821   6.990  12.348  0.00  0.00    +0.000 A 
ATOM      3  C   UNL     1      46.081   7.577  12.204  0.00  0.00    +0.000 A 
ATOM      4  C   UNL     1      47.237   6.875  12.566  0.00  0.00    +0.000 A 
ATOM      5  C   UNL     1      47.100   5.591  13.112  0.00  0.00    +0.000 A 
ATOM      6  C   UNL     1      45.840   5.005  13.263  0.00  0.00    +0.000 A 
ENDROOT
BRANCH   1   7
ATOM      7  C   UNL     1      43.326   5.039  12.946  0.00  0.00    +0.000 C 
BRANCH   7   8
ATOM      8  N   UNL     1      42.843   4.559  11.649  0.00  0.00    +0.000 NA
ATOM      9  H   UNL     1      41.827   4.484  11.680  0.00  0.00    +0.000 HD
BRANCH   8  10
ATOM     10  C   UNL     1      43.389   3.241  11.315  0.00  0.00    +0.000 C 
BRANCH  10  15
ATOM     11  C   UNL     1      45.738   2.226   8.491  0.00  0.00    +0.000 A 
ATOM     12  C   UNL     1      46.057   3.459   7.928  0.00  0.00    +0.000 A 
ATOM     13  C   UNL     1      45.519   4.629   8.463  0.00  0.00    +0.000 A 
ATOM     14  C   UNL     1      44.657   4.561   9.558  0.00  0.00    +0.000 A 
ATOM     15  C   UNL     1      44.311   3.323  10.122  0.00  0.00    +0.000 A 
ATOM     16  C   UNL     1      44.866   2.156   9.580  0.00  0.00    +0.000 A 
BRANCH  11  18
ATOM     17  C   UNL     1      46.770   0.001   7.544  0.00  0.00    +0.000 C 
ATOM     18  C   UNL     1      46.311   1.023   7.971  0.00  0.00    +0.000 C 
ENDBRANCH  11  18
ENDBRANCH  10  15
ENDBRANCH   8  10
ENDBRANCH   7   8
ENDBRANCH   1   7
BRANCH   4  19
ATOM     19  C   UNL     1      48.605   7.488  12.396  0.00  0.00    +0.000 C 
BRANCH  19  20
ATOM     20  N   UNL     1      49.515   7.016  13.406  0.00  0.00    +0.000 N 
ATOM     21  C   UNL     1      49.566   7.569  14.661  0.00  0.00    +0.000 C 
ATOM     22  O   UNL     1      48.799   8.458  15.020  0.00  0.00    +0.000 OA
ATOM     23  H   UNL     1      50.285   6.442  13.096  0.00  0.00    +0.000 HD
BRANCH  21  24
ATOM     24  C   UNL     1      50.554   6.984  15.575  0.00  0.00    +0.000 A 
ATOM     25  C   UNL     1      51.883   7.377  15.502  0.00  0.00    +0.000 A 
ATOM     26  S   UNL     1      52.868   6.651  16.688  0.00  0.00    +0.000 S 
ATOM     27  C   UNL     1      51.562   5.750  17.296  0.00  0.00    +0.000 A 
ATOM     28  N   UNL     1      51.746   4.906  18.326  0.00  0.00    +0.000 NA
ATOM     29  C   UNL     1      50.629   4.266  18.674  0.00  0.00    +0.000 A 
ATOM     30  N   UNL     1      49.418   4.382  18.116  0.00  0.00    +0.000 NA
ATOM     31  C   UNL     1      49.283   5.238  17.087  0.00  0.00    +0.000 A 
ATOM     32  C   UNL     1      50.373   5.992  16.623  0.00  0.00    +0.000 A 
BRANCH  31  33
ATOM     33  O   UNL     1      48.053   5.375  16.478  0.00  0.00    +0.000 OA
ATOM     34  C   UNL     1      47.279   4.183  16.441  0.00  0.00    +0.000 C 
ENDBRANCH  31  33
ENDBRANCH  21  24
ENDBRANCH  19  20
ENDBRANCH   4  19
TORSDOF 9
ENDMDL
MODEL 2
REMARK VINA RESULT:    -7.333      1.679      1.992
REMARK INTER + INTRA:         -12.832
REMARK INTER:                 -11.542
REMARK INTRA:                  -1.290
REMARK UNBOUND:                -1.641
REMARK  Name = 
REMARK  10 active torsions:
REMARK  status: ('A' for Active; 'I' for Inactive)
REMARK    1  A    between atoms: C_2  and  C_3
REMARK    2  A    between atoms: C_7  and  C_8
REMARK    3  A    between atoms: C_8  and  N_9
REMARK    4  A    between atoms: N_9  and  C_10
REMARK    5  A    between atoms: C_10  and  C_11
REMARK    6  A    between atoms: C_14  and  C_15
REMARK    7  A    between atoms: C_15  and  N_16
REMARK    8  A    between atoms: C_17  and  C_19
REMARK    9  A    between atoms: C_26  and  O_27
REMARK   10  A    between atoms: O_27  and  C_28
REMARK                            x       y       z     vdW  Elec       q    Type
REMARK                         _______ _______ _______ _____ _____    ______ ____
ROOT
ATOM      1  C   UNL     1      44.691   4.569  12.704  0.00  0.00    +0.000 A 
ATOM      2  C   UNL     1      46.014   4.264  13.054  0.00  0.00    +0.000 A 
ATOM      3  C   UNL     1      46.934   5.279  13.333  0.00  0.00    +0.000 A 
ATOM      4  C   UNL     1      46.546   6.623  13.277  0.00  0.00    +0.000 A 
ATOM      5  C   UNL     1      45.232   6.929  12.895  0.00  0.00    +0.000 A 
ATOM      6  C   UNL     1      44.313   5.914  12.609  0.00  0.00    +0.000 A 
ENDROOT
BRANCH   1   7
ATOM      7  C   UNL     1      43.685   3.463  12.478  0.00  0.00    +0.000 C 
BRANCH   7   8
ATOM      8  N   UNL     1      43.859   2.783  11.192  0.00  0.00    +0.000 NA
ATOM      9  H   UNL     1      44.752   2.293  11.193  0.00  0.00    +0.000 HD
BRANCH   8  10
ATOM     10  C   UNL     1      43.853   3.725  10.070  0.00  0.00    +0.000 C 
BRANCH  10  15
ATOM     11  C   UNL     1      46.246   1.708   7.896  0.00  0.00    +0.000 A 
ATOM     12  C   UNL     1      46.943   2.713   7.231  0.00  0.00    +0.000 A 
ATOM     13  C   UNL     1      46.648   4.051   7.487  0.00  0.00    +0.000 A 
ATOM     14  C   UNL     1      45.650   4.382   8.404  0.00  0.00    +0.000 A 
ATOM     15  C   UNL     1      44.927   3.378   9.066  0.00  0.00    +0.000 A 
ATOM     16  C   UNL     1      45.239   2.036   8.807  0.00  0.00    +0.000 A 
BRANCH  11  18
ATOM     17  C   UNL     1      46.807  -0.825   7.469  0.00  0.00    +0.000 C 
ATOM     18  C   UNL     1      46.565   0.332   7.667  0.00  0.00    +0.000 C 
ENDBRANCH  11  18
ENDBRANCH  10  15
ENDBRANCH   8  10
ENDBRANCH   7   8
ENDBRANCH   1   7
BRANCH   4  19
ATOM     19  C   UNL     1      47.522   7.729  13.597  0.00  0.00    +0.000 C 
BRANCH  19  20
ATOM     20  N   UNL     1      47.899   7.702  14.986  0.00  0.00    +0.000 N 
ATOM     21  C   UNL     1      49.106   7.206  15.408  0.00  0.00    +0.000 C 
ATOM     22  O   UNL     1      49.965   6.812  14.624  0.00  0.00    +0.000 OA
ATOM     23  H   UNL     1      47.159   7.821  15.663  0.00  0.00    +0.000 HD
BRANCH  21  24
ATOM     24  C   UNL     1      49.337   7.239  16.857  0.00  0.00    +0.000 A 
ATOM     25  C   UNL     1      49.938   8.348  17.436  0.00  0.00    +0.000 A 
ATOM     26  S   UNL     1      50.056   8.241  19.134  0.00  0.00    +0.000 S 
ATOM     27  C   UNL     1      49.361   6.691  19.136  0.00  0.00    +0.000 A 
ATOM     28  N   UNL     1      49.193   6.030  20.295  0.00  0.00    +0.000 NA
ATOM     29  C   UNL     1      48.649   4.823  20.125  0.00  0.00    +0.000 A 
ATOM     30  N   UNL     1      48.286   4.250  18.972  0.00  0.00    +0.000 NA
ATOM     31  C   UNL     1      48.475   4.950  17.839  0.00  0.00    +0.000 A 
ATOM     32  C   UNL     1      49.024   6.242  17.868  0.00  0.00    +0.000 A 
BRANCH  31  33
ATOM     33  O   UNL     1      48.125   4.388  16.629  0.00  0.00    +0.000 OA
ATOM     34  C   UNL     1      48.188   2.968  16.601  0.00  0.00    +0.000 C 
ENDBRANCH  31  33
ENDBRANCH  21  24
ENDBRANCH  19  20
ENDBRANCH   4  19
TORSDOF 9
ENDMDL
MODEL 3
REMARK VINA RESULT:    -7.111      2.460      4.647
REMARK INTER + INTRA:         -12.493
REMARK INTER:                 -10.917
REMARK INTRA:                  -1.576
REMARK UNBOUND:                -1.641
REMARK  Name = 
REMARK  10 active torsions:
REMARK  status: ('A' for Active; 'I' for Inactive)
REMARK    1  A    between atoms: C_2  and  C_3
REMARK    2  A    between atoms: C_7  and  C_8
REMARK    3  A    between atoms: C_8  and  N_9
REMARK    4  A    between atoms: N_9  and  C_10
REMARK    5  A    between atoms: C_10  and  C_11
REMARK    6  A    between atoms: C_14  and  C_15
REMARK    7  A    between atoms: C_15  and  N_16
REMARK    8  A    between atoms: C_17  and  C_19
REMARK    9  A    between atoms: C_26  and  O_27
REMARK   10  A    between atoms: O_27  and  C_28
REMARK                            x       y       z     vdW  Elec       q    Type
REMARK                         _______ _______ _______ _____ _____    ______ ____
ROOT
ATOM      1  C   UNL     1      47.587   5.852  14.275  0.00  0.00    +0.000 A 
ATOM      2  C   UNL     1      47.061   4.552  14.255  0.00  0.00    +0.000 A 
ATOM      3  C   UNL     1      47.221   3.697  15.350  0.00  0.00    +0.000 A 
ATOM      4  C   UNL     1      47.901   4.129  16.494  0.00  0.00    +0.000 A 
ATOM      5  C   UNL     1      48.453   5.418  16.502  0.00  0.00    +0.000 A 
ATOM      6  C   UNL     1      48.301   6.271  15.404  0.00  0.00    +0.000 A 
ENDROOT
BRANCH   1   7
ATOM      7  C   UNL     1      47.344   6.793  13.117  0.00  0.00    +0.000 C 
BRANCH   7   8
ATOM      8  N   UNL     1      46.042   7.462  13.184  0.00  0.00    +0.000 NA
ATOM      9  H   UNL     1      45.526   7.106  13.988  0.00  0.00    +0.000 HD
BRANCH   8  10
ATOM     10  C   UNL     1      45.241   7.221  11.982  0.00  0.00    +0.000 C 
BRANCH  10  15
ATOM     11  C   UNL     1      44.505   3.635  10.922  0.00  0.00    +0.000 A 
ATOM     12  C   UNL     1      43.631   3.216  11.921  0.00  0.00    +0.000 A 
ATOM     13  C   UNL     1      43.268   4.093  12.941  0.00  0.00    +0.000 A 
ATOM     14  C   UNL     1      43.786   5.389  12.964  0.00  0.00    +0.000 A 
ATOM     15  C   UNL     1      44.684   5.817  11.974  0.00  0.00    +0.000 A 
ATOM     16  C   UNL     1      45.034   4.928  10.948  0.00  0.00    +0.000 A 
BRANCH  11  18
ATOM     17  C   UNL     1      45.131   2.003   8.958  0.00  0.00    +0.000 C 
ATOM     18  C   UNL     1      44.858   2.754   9.851  0.00  0.00    +0.000 C 
ENDBRANCH  11  18
ENDBRANCH  10  15
ENDBRANCH   8  10
ENDBRANCH   7   8
ENDBRANCH   1   7
BRANCH   4  19
ATOM     19  C   UNL     1      48.061   3.226  17.692  0.00  0.00    +0.000 C 
BRANCH  19  20
ATOM     20  N   UNL     1      49.450   2.948  17.950  0.00  0.00    +0.000 N 
ATOM     21  C   UNL     1      50.210   2.173  17.111  0.00  0.00    +0.000 C 
ATOM     22  O   UNL     1      49.772   1.719  16.058  0.00  0.00    +0.000 OA
ATOM     23  H   UNL     1      49.785   3.124  18.886  0.00  0.00    +0.000 HD
BRANCH  21  24
ATOM     24  C   UNL     1      51.606   1.973  17.518  0.00  0.00    +0.000 A 
ATOM     25  C   UNL     1      52.079   0.691  17.761  0.00  0.00    +0.000 A 
ATOM     26  S   UNL     1      53.739   0.647  18.147  0.00  0.00    +0.000 S 
ATOM     27  C   UNL     1      53.859   2.339  18.055  0.00  0.00    +0.000 A 
ATOM     28  N   UNL     1      55.034   2.946  18.298  0.00  0.00    +0.000 NA
ATOM     29  C   UNL     1      54.958   4.274  18.200  0.00  0.00    +0.000 A 
ATOM     30  N   UNL     1      53.877   5.007  17.905  0.00  0.00    +0.000 NA
ATOM     31  C   UNL     1      52.724   4.355  17.672  0.00  0.00    +0.000 A 
ATOM     32  C   UNL     1      52.659   2.954  17.725  0.00  0.00    +0.000 A 
BRANCH  31  33
ATOM     33  O   UNL     1      51.586   5.077  17.378  0.00  0.00    +0.000 OA
ATOM     34  C   UNL     1      51.831   6.332  16.757  0.00  0.00    +0.000 C 
ENDBRANCH  31  33
ENDBRANCH  21  24
ENDBRANCH  19  20
ENDBRANCH   4  19
TORSDOF 9
ENDMDL
MODEL 4
REMARK VINA RESULT:    -7.080      1.950      2.632
REMARK INTER + INTRA:         -12.446
REMARK INTER:                 -11.228
REMARK INTRA:                  -1.218
REMARK UNBOUND:                -1.641
REMARK  Name = 
REMARK  10 active torsions:
REMARK  status: ('A' for Active; 'I' for Inactive)
REMARK    1  A    between atoms: C_2  and  C_3
REMARK    2  A    between atoms: C_7  and  C_8
REMARK    3  A    between atoms: C_8  and  N_9
REMARK    4  A    between atoms: N_9  and  C_10
REMARK    5  A    between atoms: C_10  and  C_11
REMARK    6  A    between atoms: C_14  and  C_15
REMARK    7  A    between atoms: C_15  and  N_16
REMARK    8  A    between atoms: C_17  and  C_19
REMARK    9  A    between atoms: C_26  and  O_27
REMARK   10  A    between atoms: O_27  and  C_28
REMARK                            x       y       z     vdW  Elec       q    Type
REMARK                         _______ _______ _______ _____ _____    ______ ____
ROOT
ATOM      1  C   UNL     1      46.462   4.688  13.384  0.00  0.00    +0.000 A 
ATOM      2  C   UNL     1      47.146   5.776  12.823  0.00  0.00    +0.000 A 
ATOM      3  C   UNL     1      48.051   6.523  13.582  0.00  0.00    +0.000 A 
ATOM      4  C   UNL     1      48.300   6.192  14.919  0.00  0.00    +0.000 A 
ATOM      5  C   UNL     1      47.593   5.123  15.489  0.00  0.00    +0.000 A 
ATOM      6  C   UNL     1      46.682   4.380  14.732  0.00  0.00    +0.000 A 
ENDROOT
BRANCH   1   7
ATOM      7  C   UNL     1      45.544   3.841  12.534  0.00  0.00    +0.000 C 
BRANCH   7   8
ATOM      8  N   UNL     1      44.434   4.601  11.955  0.00  0.00    +0.000 NA
ATOM      9  H   UNL     1      43.738   4.778  12.679  0.00  0.00    +0.000 HD
BRANCH   8  10
ATOM     10  C   UNL     1      43.784   3.874  10.862  0.00  0.00    +0.000 C 
BRANCH  10  15
ATOM     11  C   UNL     1      46.000   2.184   8.263  0.00  0.00    +0.000 A 
ATOM     12  C   UNL     1      46.527   3.278   7.582  0.00  0.00    +0.000 A 
ATOM     13  C   UNL     1      46.174   4.572   7.964  0.00  0.00    +0.000 A 
ATOM     14  C   UNL     1      45.288   4.768   9.024  0.00  0.00    +0.000 A 
ATOM     15  C   UNL     1      44.734   3.673   9.705  0.00  0.00    +0.000 A 
ATOM     16  C   UNL     1      45.104   2.378   9.317  0.00  0.00    +0.000 A 
BRANCH  11  18
ATOM     17  C   UNL     1      46.688  -0.259   7.577  0.00  0.00    +0.000 C 
ATOM     18  C   UNL     1      46.382   0.853   7.901  0.00  0.00    +0.000 C 
ENDBRANCH  11  18
ENDBRANCH  10  15
ENDBRANCH   8  10
ENDBRANCH   7   8
ENDBRANCH   1   7
BRANCH   4  19
ATOM     19  C   UNL     1      49.290   6.975  15.744  0.00  0.00    +0.000 C 
BRANCH  19  20
ATOM     20  N   UNL     1      50.288   6.110  16.316  0.00  0.00    +0.000 N 
ATOM     21  C   UNL     1      50.381   5.891  17.667  0.00  0.00    +0.000 C 
ATOM     22  O   UNL     1      49.581   6.369  18.467  0.00  0.00    +0.000 OA
ATOM     23  H   UNL     1      51.074   5.868  15.729  0.00  0.00    +0.000 HD
BRANCH  21  24
ATOM     24  C   UNL     1      51.458   4.991  18.095  0.00  0.00    +0.000 A 
ATOM     25  C   UNL     1      52.540   5.496  18.803  0.00  0.00    +0.000 A 
ATOM     26  S   UNL     1      53.653   4.296  19.280  0.00  0.00    +0.000 S 
ATOM     27  C   UNL     1      52.751   3.080  18.509  0.00  0.00    +0.000 A 
ATOM     28  N   UNL     1      53.178   1.805  18.534  0.00  0.00    +0.000 NA
ATOM     29  C   UNL     1      52.368   0.977  17.873  0.00  0.00    +0.000 A 
ATOM     30  N   UNL     1      51.241   1.289  17.223  0.00  0.00    +0.000 NA
ATOM     31  C   UNL     1      50.855   2.578  17.224  0.00  0.00    +0.000 A 
ATOM     32  C   UNL     1      51.603   3.558  17.895  0.00  0.00    +0.000 A 
BRANCH  31  33
ATOM     33  O   UNL     1      49.705   2.940  16.554  0.00  0.00    +0.000 OA
ATOM     34  C   UNL     1      48.686   1.949  16.557  0.00  0.00    +0.000 C 
ENDBRANCH  31  33
ENDBRANCH  21  24
ENDBRANCH  19  20
ENDBRANCH   4  19
TORSDOF 9
ENDMDL
MODEL 5
REMARK VINA RESULT:    -6.789      1.804      2.549
REMARK INTER + INTRA:         -12.003
REMARK INTER:                 -10.321
REMARK INTRA:                  -1.682
REMARK UNBOUND:                -1.641
REMARK  Name = 
REMARK  10 active torsions:
REMARK  status: ('A' for Active; 'I' for Inactive)
REMARK    1  A    between atoms: C_2  and  C_3
REMARK    2  A    between atoms: C_7  and  C_8
REMARK    3  A    between atoms: C_8  and  N_9
REMARK    4  A    between atoms: N_9  and  C_10
REMARK    5  A    between atoms: C_10  and  C_11
REMARK    6  A    between atoms: C_14  and  C_15
REMARK    7  A    between atoms: C_15  and  N_16
REMARK    8  A    between atoms: C_17  and  C_19
REMARK    9  A    between atoms: C_26  and  O_27
REMARK   10  A    between atoms: O_27  and  C_28
REMARK                            x       y       z     vdW  Elec       q    Type
REMARK                         _______ _______ _______ _____ _____    ______ ____
ROOT
ATOM      1  C   UNL     1      46.005   7.861  11.935  0.00  0.00    +0.000 A 
ATOM      2  C   UNL     1      46.865   6.758  11.830  0.00  0.00    +0.000 A 
ATOM      3  C   UNL     1      48.145   6.792  12.391  0.00  0.00    +0.000 A 
ATOM      4  C   UNL     1      48.589   7.928  13.079  0.00  0.00    +0.000 A 
ATOM      5  C   UNL     1      47.741   9.041  13.156  0.00  0.00    +0.000 A 
ATOM      6  C   UNL     1      46.463   9.011  12.589  0.00  0.00    +0.000 A 
ENDROOT
BRANCH   1   7
ATOM      7  C   UNL     1      44.597   7.786  11.390  0.00  0.00    +0.000 C 
BRANCH   7   8
ATOM      8  N   UNL     1      43.773   6.780  12.065  0.00  0.00    +0.000 NA
ATOM      9  H   UNL     1      44.383   6.102  12.521  0.00  0.00    +0.000 HD
BRANCH   8  10
ATOM     10  C   UNL     1      42.910   6.060  11.126  0.00  0.00    +0.000 C 
BRANCH  10  15
ATOM     11  C   UNL     1      44.945   3.590   9.058  0.00  0.00    +0.000 A 
ATOM     12  C   UNL     1      44.753   2.404   9.761  0.00  0.00    +0.000 A 
ATOM     13  C   UNL     1      43.958   2.394  10.906  0.00  0.00    +0.000 A 
ATOM     14  C   UNL     1      43.360   3.574  11.349  0.00  0.00    +0.000 A 
ATOM     15  C   UNL     1      43.563   4.780  10.661  0.00  0.00    +0.000 A 
ATOM     16  C   UNL     1      44.357   4.775   9.506  0.00  0.00    +0.000 A 
BRANCH  11  18
ATOM     17  C   UNL     1      46.407   3.602   6.872  0.00  0.00    +0.000 C 
ATOM     18  C   UNL     1      45.731   3.605   7.862  0.00  0.00    +0.000 C 
ENDBRANCH  11  18
ENDBRANCH  10  15
ENDBRANCH   8  10
ENDBRANCH   7   8
ENDBRANCH   1   7
BRANCH   4  19
ATOM     19  C   UNL     1      49.959   7.970  13.709  0.00  0.00    +0.000 C 
BRANCH  19  20
ATOM     20  N   UNL     1      49.988   7.221  14.938  0.00  0.00    +0.000 N 
ATOM     21  C   UNL     1      49.656   7.781  16.145  0.00  0.00    +0.000 C 
ATOM     22  O   UNL     1      49.254   8.937  16.245  0.00  0.00    +0.000 OA
ATOM     23  H   UNL     1      50.499   6.349  14.931  0.00  0.00    +0.000 HD
BRANCH  21  24
ATOM     24  C   UNL     1      49.745   6.891  17.308  0.00  0.00    +0.000 A 
ATOM     25  C   UNL     1      50.483   7.276  18.419  0.00  0.00    +0.000 A 
ATOM     26  S   UNL     1      50.412   6.152  19.699  0.00  0.00    +0.000 S 
ATOM     27  C   UNL     1      49.441   5.097  18.787  0.00  0.00    +0.000 A 
ATOM     28  N   UNL     1      49.038   3.927  19.313  0.00  0.00    +0.000 NA
ATOM     29  C   UNL     1      48.297   3.209  18.468  0.00  0.00    +0.000 A 
ATOM     30  N   UNL     1      47.949   3.533  17.217  0.00  0.00    +0.000 NA
ATOM     31  C   UNL     1      48.377   4.713  16.733  0.00  0.00    +0.000 A 
ATOM     32  C   UNL     1      49.153   5.580  17.519  0.00  0.00    +0.000 A 
BRANCH  31  33
ATOM     33  O   UNL     1      48.048   5.075  15.444  0.00  0.00    +0.000 OA
ATOM     34  C   UNL     1      46.943   4.366  14.897  0.00  0.00    +0.000 C 
ENDBRANCH  31  33
ENDBRANCH  21  24
ENDBRANCH  19  20
ENDBRANCH   4  19
TORSDOF 9
ENDMDL
MODEL 6
REMARK VINA RESULT:    -6.747      2.137      3.232
REMARK INTER + INTRA:         -11.938
REMARK INTER:                 -10.693
REMARK INTRA:                  -1.245
REMARK UNBOUND:                -1.641
REMARK  Name = 
REMARK  10 active torsions:
REMARK  status: ('A' for Active; 'I' for Inactive)
REMARK    1  A    between atoms: C_2  and  C_3
REMARK    2  A    between atoms: C_7  and  C_8
REMARK    3  A    between atoms: C_8  and  N_9
REMARK    4  A    between atoms: N_9  and  C_10
REMARK    5  A    between atoms: C_10  and  C_11
REMARK    6  A    between atoms: C_14  and  C_15
REMARK    7  A    between atoms: C_15  and  N_16
REMARK    8  A    between atoms: C_17  and  C_19
REMARK    9  A    between atoms: C_26  and  O_27
REMARK   10  A    between atoms: O_27  and  C_28
REMARK                            x       y       z     vdW  Elec       q    Type
REMARK                         _______ _______ _______ _____ _____    ______ ____
ROOT
ATOM      1  C   UNL     1      47.448   6.612  13.085  0.00  0.00    +0.000 A 
ATOM      2  C   UNL     1      48.064   7.859  13.260  0.00  0.00    +0.000 A 
ATOM      3  C   UNL     1      48.762   8.156  14.435  0.00  0.00    +0.000 A 
ATOM      4  C   UNL     1      48.866   7.205  15.457  0.00  0.00    +0.000 A 
ATOM      5  C   UNL     1      48.224   5.970  15.295  0.00  0.00    +0.000 A 
ATOM      6  C   UNL     1      47.520   5.675  14.123  0.00  0.00    +0.000 A 
ENDROOT
BRANCH   1   7
ATOM      7  C   UNL     1      46.762   6.274  11.781  0.00  0.00    +0.000 C 
BRANCH   7   8
ATOM      8  N   UNL     1      45.341   5.961  11.945  0.00  0.00    +0.000 NA
ATOM      9  H   UNL     1      45.250   5.046  12.386  0.00  0.00    +0.000 HD
BRANCH   8  10
ATOM     10  C   UNL     1      44.637   5.922  10.661  0.00  0.00    +0.000 C 
BRANCH  10  15
ATOM     11  C   UNL     1      45.619   3.251   8.127  0.00  0.00    +0.000 A 
ATOM     12  C   UNL     1      45.097   2.100   8.710  0.00  0.00    +0.000 A 
ATOM     13  C   UNL     1      44.416   2.181   9.924  0.00  0.00    +0.000 A 
ATOM     14  C   UNL     1      44.266   3.415  10.557  0.00  0.00    +0.000 A 
ATOM     15  C   UNL     1      44.806   4.580   9.990  0.00  0.00    +0.000 A 
ATOM     16  C   UNL     1      45.479   4.486   8.764  0.00  0.00    +0.000 A 
BRANCH  11  18
ATOM     17  C   UNL     1      46.861   3.106   5.814  0.00  0.00    +0.000 C 
ATOM     18  C   UNL     1      46.289   3.184   6.864  0.00  0.00    +0.000 C 
ENDBRANCH  11  18
ENDBRANCH  10  15
ENDBRANCH   8  10
ENDBRANCH   7   8
ENDBRANCH   1   7
BRANCH   4  19
ATOM     19  C   UNL     1      49.634   7.503  16.721  0.00  0.00    +0.000 C 
BRANCH  19  20
ATOM     20  N   UNL     1      50.555   6.441  17.031  0.00  0.00    +0.000 N 
ATOM     21  C   UNL     1      50.720   5.964  18.307  0.00  0.00    +0.000 C 
ATOM     22  O   UNL     1      50.050   6.369  19.253  0.00  0.00    +0.000 OA
ATOM     23  H   UNL     1      51.258   6.227  16.338  0.00  0.00    +0.000 HD
BRANCH  21  24
ATOM     24  C   UNL     1      51.703   4.886  18.462  0.00  0.00    +0.000 A 
ATOM     25  C   UNL     1      52.919   5.143  19.081  0.00  0.00    +0.000 A 
ATOM     26  S   UNL     1      53.901   3.758  19.240  0.00  0.00    +0.000 S 
ATOM     27  C   UNL     1      52.757   2.791  18.439  0.00  0.00    +0.000 A 
ATOM     28  N   UNL     1      53.002   1.485  18.235  0.00  0.00    +0.000 NA
ATOM     29  C   UNL     1      52.015   0.871  17.582  0.00  0.00    +0.000 A 
ATOM     30  N   UNL     1      50.875   1.412  17.136  0.00  0.00    +0.000 NA
ATOM     31  C   UNL     1      50.675   2.723  17.363  0.00  0.00    +0.000 A 
ATOM     32  C   UNL     1      51.623   3.493  18.054  0.00  0.00    +0.000 A 
BRANCH  31  33
ATOM     33  O   UNL     1      49.517   3.319  16.907  0.00  0.00    +0.000 OA
ATOM     34  C   UNL     1      48.384   3.115  17.740  0.00  0.00    +0.000 C 
ENDBRANCH  31  33
ENDBRANCH  21  24
ENDBRANCH  19  20
ENDBRANCH   4  19
TORSDOF 9
ENDMDL
MODEL 7
REMARK VINA RESULT:    -6.686      3.166      7.750
REMARK INTER + INTRA:         -11.844
REMARK INTER:                  -9.831
REMARK INTRA:                  -2.014
REMARK UNBOUND:                -1.641
REMARK  Name = 
REMARK  10 active torsions:
REMARK  status: ('A' for Active; 'I' for Inactive)
REMARK    1  A    between atoms: C_2  and  C_3
REMARK    2  A    between atoms: C_7  and  C_8
REMARK    3  A    between atoms: C_8  and  N_9
REMARK    4  A    between atoms: N_9  and  C_10
REMARK    5  A    between atoms: C_10  and  C_11
REMARK    6  A    between atoms: C_14  and  C_15
REMARK    7  A    between atoms: C_15  and  N_16
REMARK    8  A    between atoms: C_17  and  C_19
REMARK    9  A    between atoms: C_26  and  O_27
REMARK   10  A    between atoms: O_27  and  C_28
REMARK                            x       y       z     vdW  Elec       q    Type
REMARK                         _______ _______ _______ _____ _____    ______ ____
ROOT
ATOM      1  C   UNL     1      48.694   7.737  16.102  0.00  0.00    +0.000 A 
ATOM      2  C   UNL     1      47.960   8.759  15.483  0.00  0.00    +0.000 A 
ATOM      3  C   UNL     1      47.884   8.844  14.089  0.00  0.00    +0.000 A 
ATOM      4  C   UNL     1      48.534   7.901  13.284  0.00  0.00    +0.000 A 
ATOM      5  C   UNL     1      49.294   6.898  13.903  0.00  0.00    +0.000 A 
ATOM      6  C   UNL     1      49.376   6.817  15.297  0.00  0.00    +0.000 A 
ENDROOT
BRANCH   1   7
ATOM      7  C   UNL     1      48.707   7.610  17.608  0.00  0.00    +0.000 C 
BRANCH   7   8
ATOM      8  N   UNL     1      47.532   6.911  18.135  0.00  0.00    +0.000 NA
ATOM      9  H   UNL     1      46.964   7.570  18.668  0.00  0.00    +0.000 HD
BRANCH   8  10
ATOM     10  C   UNL     1      47.904   5.806  19.022  0.00  0.00    +0.000 C 
BRANCH  10  15
ATOM     11  C   UNL     1      50.107   3.042  17.597  0.00  0.00    +0.000 A 
ATOM     12  C   UNL     1      49.229   2.394  16.733  0.00  0.00    +0.000 A 
ATOM     13  C   UNL     1      47.918   2.852  16.600  0.00  0.00    +0.000 A 
ATOM     14  C   UNL     1      47.487   3.954  17.339  0.00  0.00    +0.000 A 
ATOM     15  C   UNL     1      48.357   4.604  18.228  0.00  0.00    +0.000 A 
ATOM     16  C   UNL     1      49.675   4.140  18.345  0.00  0.00    +0.000 A 
BRANCH  11  18
ATOM     17  C   UNL     1      52.597   2.221  17.792  0.00  0.00    +0.000 C 
ATOM     18  C   UNL     1      51.464   2.603  17.715  0.00  0.00    +0.000 C 
ENDBRANCH  11  18
ENDBRANCH  10  15
ENDBRANCH   8  10
ENDBRANCH   7   8
ENDBRANCH   1   7
BRANCH   4  19
ATOM     19  C   UNL     1      48.443   7.968  11.780  0.00  0.00    +0.000 C 
BRANCH  19  20
ATOM     20  N   UNL     1      47.661   6.877  11.259  0.00  0.00    +0.000 N 
ATOM     21  C   UNL     1      46.291   6.915  11.213  0.00  0.00    +0.000 C 
ATOM     22  O   UNL     1      45.648   7.904  11.555  0.00  0.00    +0.000 OA
ATOM     23  H   UNL     1      48.127   5.986  11.163  0.00  0.00    +0.000 HD
BRANCH  21  24
ATOM     24  C   UNL     1      45.638   5.721  10.664  0.00  0.00    +0.000 A 
ATOM     25  C   UNL     1      45.676   5.478   9.297  0.00  0.00    +0.000 A 
ATOM     26  S   UNL     1      44.933   4.010   8.852  0.00  0.00    +0.000 S 
ATOM     27  C   UNL     1      44.492   3.685  10.460  0.00  0.00    +0.000 A 
ATOM     28  N   UNL     1      43.807   2.567  10.759  0.00  0.00    +0.000 NA
ATOM     29  C   UNL     1      43.526   2.467  12.059  0.00  0.00    +0.000 A 
ATOM     30  N   UNL     1      43.843   3.333  13.028  0.00  0.00    +0.000 NA
ATOM     31  C   UNL     1      44.527   4.438  12.681  0.00  0.00    +0.000 A 
ATOM     32  C   UNL     1      44.905   4.668  11.348  0.00  0.00    +0.000 A 
BRANCH  31  33
ATOM     33  O   UNL     1      44.861   5.361  13.650  0.00  0.00    +0.000 OA
ATOM     34  C   UNL     1      46.144   5.166  14.230  0.00  0.00    +0.000 C 
ENDBRANCH  31  33
ENDBRANCH  21  24
ENDBRANCH  19  20
ENDBRANCH   4  19
TORSDOF 9
ENDMDL
MODEL 8
REMARK VINA RESULT:    -6.562      4.298      9.587
REMARK INTER + INTRA:         -11.656
REMARK INTER:                 -10.471
REMARK INTRA:                  -1.186
REMARK UNBOUND:                -1.641
REMARK  Name = 
REMARK  10 active torsions:
REMARK  status: ('A' for Active; 'I' for Inactive)
REMARK    1  A    between atoms: C_2  and  C_3
REMARK    2  A    between atoms: C_7  and  C_8
REMARK    3  A    between atoms: C_8  and  N_9
REMARK    4  A    between atoms: N_9  and  C_10
REMARK    5  A    between atoms: C_10  and  C_11
REMARK    6  A    between atoms: C_14  and  C_15
REMARK    7  A    between atoms: C_15  and  N_16
REMARK    8  A    between atoms: C_17  and  C_19
REMARK    9  A    between atoms: C_26  and  O_27
REMARK   10  A    between atoms: O_27  and  C_28
REMARK                            x       y       z     vdW  Elec       q    Type
REMARK                         _______ _______ _______ _____ _____    ______ ____
ROOT
ATOM      1  C   UNL     1      51.354   3.529  17.774  0.00  0.00    +0.000 A 
ATOM      2  C   UNL     1      50.574   4.695  17.800  0.00  0.00    +0.000 A 
ATOM      3  C   UNL     1      49.223   4.661  17.442  0.00  0.00    +0.000 A 
ATOM      4  C   UNL     1      48.620   3.458  17.059  0.00  0.00    +0.000 A 
ATOM      5  C   UNL     1      49.407   2.299  17.003  0.00  0.00    +0.000 A 
ATOM      6  C   UNL     1      50.760   2.333  17.354  0.00  0.00    +0.000 A 
ENDROOT
BRANCH   1   7
ATOM      7  C   UNL     1      52.793   3.562  18.235  0.00  0.00    +0.000 C 
BRANCH   7   8
ATOM      8  N   UNL     1      53.137   2.446  19.119  0.00  0.00    +0.000 NA
ATOM      9  H   UNL     1      52.923   2.705  20.082  0.00  0.00    +0.000 HD
BRANCH   8  10
ATOM     10  C   UNL     1      54.560   2.106  19.043  0.00  0.00    +0.000 C 
BRANCH  10  15
ATOM     11  C   UNL     1      54.845  -1.410  17.601  0.00  0.00    +0.000 A 
ATOM     12  C   UNL     1      55.263  -1.152  16.299  0.00  0.00    +0.000 A 
ATOM     13  C   UNL     1      55.464   0.163  15.880  0.00  0.00    +0.000 A 
ATOM     14  C   UNL     1      55.238   1.218  16.765  0.00  0.00    +0.000 A 
ATOM     15  C   UNL     1      54.795   0.971  18.074  0.00  0.00    +0.000 A 
ATOM     16  C   UNL     1      54.607  -0.355  18.486  0.00  0.00    +0.000 A 
BRANCH  11  18
ATOM     17  C   UNL     1      54.548  -3.887  18.432  0.00  0.00    +0.000 C 
ATOM     18  C   UNL     1      54.669  -2.757  18.052  0.00  0.00    +0.000 C 
ENDBRANCH  11  18
ENDBRANCH  10  15
ENDBRANCH   8  10
ENDBRANCH   7   8
ENDBRANCH   1   7
BRANCH   4  19
ATOM     19  C   UNL     1      47.157   3.403  16.692  0.00  0.00    +0.000 C 
BRANCH  19  20
ATOM     20  N   UNL     1      46.816   4.450  15.765  0.00  0.00    +0.000 N 
ATOM     21  C   UNL     1      46.875   4.273  14.406  0.00  0.00    +0.000 C 
ATOM     22  O   UNL     1      47.162   3.194  13.895  0.00  0.00    +0.000 OA
ATOM     23  H   UNL     1      46.775   5.390  16.132  0.00  0.00    +0.000 HD
BRANCH  21  24
ATOM     24  C   UNL     1      46.505   5.439  13.595  0.00  0.00    +0.000 A 
ATOM     25  C   UNL     1      47.395   6.495  13.456  0.00  0.00    +0.000 A 
ATOM     26  S   UNL     1      46.828   7.724  12.419  0.00  0.00    +0.000 S 
ATOM     27  C   UNL     1      45.358   6.908  12.172  0.00  0.00    +0.000 A 
ATOM     28  N   UNL     1      44.413   7.446  11.382  0.00  0.00    +0.000 NA
ATOM     29  C   UNL     1      43.316   6.691  11.303  0.00  0.00    +0.000 A 
ATOM     30  N   UNL     1      43.089   5.520  11.910  0.00  0.00    +0.000 NA
ATOM     31  C   UNL     1      44.064   5.022  12.692  0.00  0.00    +0.000 A 
ATOM     32  C   UNL     1      45.281   5.703  12.855  0.00  0.00    +0.000 A 
BRANCH  31  33
ATOM     33  O   UNL     1      43.863   3.824  13.344  0.00  0.00    +0.000 OA
ATOM     34  C   UNL     1      43.685   2.708  12.482  0.00  0.00    +0.000 C 
ENDBRANCH  31  33
ENDBRANCH  21  24
ENDBRANCH  19  20
ENDBRANCH   4  19
TORSDOF 9
ENDMDL
MODEL 9
REMARK VINA RESULT:    -6.423      4.950      6.728
REMARK INTER + INTRA:         -11.443
REMARK INTER:                 -10.126
REMARK INTRA:                  -1.317
REMARK UNBOUND:                -1.641
REMARK  Name = 
REMARK  10 active torsions:
REMARK  status: ('A' for Active; 'I' for Inactive)
REMARK    1  A    between atoms: C_2  and  C_3
REMARK    2  A    between atoms: C_7  and  C_8
REMARK    3  A    between atoms: C_8  and  N_9
REMARK    4  A    between atoms: N_9  and  C_10
REMARK    5  A    between atoms: C_10  and  C_11
REMARK    6  A    between atoms: C_14  and  C_15
REMARK    7  A    between atoms: C_15  and  N_16
REMARK    8  A    between atoms: C_17  and  C_19
REMARK    9  A    between atoms: C_26  and  O_27
REMARK   10  A    between atoms: O_27  and  C_28
REMARK                            x       y       z     vdW  Elec       q    Type
REMARK                         _______ _______ _______ _____ _____    ______ ____
ROOT
ATOM      1  C   UNL     1      47.192   7.726  12.521  0.00  0.00    +0.000 A 
ATOM      2  C   UNL     1      48.170   6.737  12.698  0.00  0.00    +0.000 A 
ATOM      3  C   UNL     1      49.516   7.001  12.428  0.00  0.00    +0.000 A 
ATOM      4  C   UNL     1      49.914   8.267  11.983  0.00  0.00    +0.000 A 
ATOM      5  C   UNL     1      48.933   9.247  11.775  0.00  0.00    +0.000 A 
ATOM      6  C   UNL     1      47.585   8.981  12.038  0.00  0.00    +0.000 A 
ENDROOT
BRANCH   1   7
ATOM      7  C   UNL     1      45.752   7.453  12.887  0.00  0.00    +0.000 C 
BRANCH   7   8
ATOM      8  N   UNL     1      45.257   6.179  12.360  0.00  0.00    +0.000 NA
ATOM      9  H   UNL     1      45.990   5.476  12.447  0.00  0.00    +0.000 HD
BRANCH   8  10
ATOM     10  C   UNL     1      44.884   6.280  10.947  0.00  0.00    +0.000 C 
BRANCH  10  15
ATOM     11  C   UNL     1      45.514   3.462   8.460  0.00  0.00    +0.000 A 
ATOM     12  C   UNL     1      44.816   2.407   9.041  0.00  0.00    +0.000 A 
ATOM     13  C   UNL     1      44.131   2.602  10.239  0.00  0.00    +0.000 A 
ATOM     14  C   UNL     1      44.150   3.853  10.857  0.00  0.00    +0.000 A 
ATOM     15  C   UNL     1      44.867   4.919  10.292  0.00  0.00    +0.000 A 
ATOM     16  C   UNL     1      45.545   4.712   9.082  0.00  0.00    +0.000 A 
BRANCH  11  18
ATOM     17  C   UNL     1      46.750   3.108   6.166  0.00  0.00    +0.000 C 
ATOM     18  C   UNL     1      46.192   3.282   7.213  0.00  0.00    +0.000 C 
ENDBRANCH  11  18
ENDBRANCH  10  15
ENDBRANCH   8  10
ENDBRANCH   7   8
ENDBRANCH   1   7
BRANCH   4  19
ATOM     19  C   UNL     1      51.366   8.574  11.709  0.00  0.00    +0.000 C 
BRANCH  19  20
ATOM     20  N   UNL     1      51.721   8.235  10.356  0.00  0.00    +0.000 N 
ATOM     21  C   UNL     1      52.812   8.779   9.727  0.00  0.00    +0.000 C 
ATOM     22  O   UNL     1      53.588   9.542  10.297  0.00  0.00    +0.000 OA
ATOM     23  H   UNL     1      51.012   7.784   9.796  0.00  0.00    +0.000 HD
BRANCH  21  24
ATOM     24  C   UNL     1      53.035   8.341   8.344  0.00  0.00    +0.000 A 
ATOM     25  C   UNL     1      52.922   9.252   7.303  0.00  0.00    +0.000 A 
ATOM     26  S   UNL     1      53.289   8.583   5.779  0.00  0.00    +0.000 S 
ATOM     27  C   UNL     1      53.555   7.048   6.458  0.00  0.00    +0.000 A 
ATOM     28  N   UNL     1      53.893   6.012   5.671  0.00  0.00    +0.000 NA
ATOM     29  C   UNL     1      54.052   4.877   6.354  0.00  0.00    +0.000 A 
ATOM     30  N   UNL     1      53.906   4.694   7.672  0.00  0.00    +0.000 NA
ATOM     31  C   UNL     1      53.566   5.760   8.418  0.00  0.00    +0.000 A 
ATOM     32  C   UNL     1      53.381   7.024   7.835  0.00  0.00    +0.000 A 
BRANCH  31  33
ATOM     33  O   UNL     1      53.394   5.608   9.778  0.00  0.00    +0.000 OA
ATOM     34  C   UNL     1      54.570   5.227  10.479  0.00  0.00    +0.000 C 
ENDBRANCH  31  33
ENDBRANCH  21  24
ENDBRANCH  19  20
ENDBRANCH   4  19
TORSDOF 9
ENDMDL
