MODEL 1
REMARK VINA RESULT:    -8.058      0.000      0.000
REMARK INTER + INTRA:         -12.381
REMARK INTER:                 -11.591
REMARK INTRA:                  -0.790
REMARK UNBOUND:                -0.790
REMARK  Name = 
REMARK  9 active torsions:
REMARK  status: ('A' for Active; 'I' for Inactive)
REMARK    1  A    between atoms: C_1  and  O_2
REMARK    2  A    between atoms: O_2  and  C_3
REMARK    3  A    between atoms: C_5  and  C_6
REMARK    4  A    between atoms: C_11  and  N_12
REMARK    5  A    between atoms: N_12  and  C_13
REMARK    6  A    between atoms: C_13  and  C_14
REMARK    7  A    between atoms: C_19  and  C_20
REMARK    8  A    between atoms: C_24  and  C_25
REMARK    9  A    between atoms: C_25  and  O_26
REMARK                            x       y       z     vdW  Elec       q    Type
REMARK                         _______ _______ _______ _____ _____    ______ ____
ROOT
ATOM      1  C   UNL     1      43.979   5.560  11.191  0.00  0.00    +0.000 C 
ENDROOT
BRANCH   1   2
ATOM      2  C   UNL     1      45.278   5.691  11.951  0.00  0.00    +0.000 A 
ATOM      3  C   UNL     1      45.532   4.903  13.078  0.00  0.00    +0.000 A 
ATOM      4  C   UNL     1      46.678   5.125  13.836  0.00  0.00    +0.000 A 
ATOM      5  C   UNL     1      47.584   6.120  13.462  0.00  0.00    +0.000 A 
ATOM      6  F   UNL     1      48.665   6.289  14.241  0.00  0.00    +0.000 F 
ATOM      7  C   UNL     1      47.386   6.921  12.325  0.00  0.00    +0.000 A 
ATOM      8  C   UNL     1      46.215   6.674  11.579  0.00  0.00    +0.000 A 
BRANCH   7   9
ATOM      9  C   UNL     1      48.323   8.002  11.927  0.00  0.00    +0.000 A 
ATOM     10  C   UNL     1      47.928   9.353  11.943  0.00  0.00    +0.000 A 
ATOM     11  C   UNL     1      48.820  10.380  11.625  0.00  0.00    +0.000 A 
ATOM     12  C   UNL     1      50.131  10.081  11.265  0.00  0.00    +0.000 A 
ATOM     13  C   UNL     1      50.561   8.752  11.207  0.00  0.00    +0.000 A 
ATOM     14  C   UNL     1      49.655   7.732  11.556  0.00  0.00    +0.000 A 
BRANCH  13  15
ATOM     15  C   UNL     1      51.988   8.396  10.875  0.00  0.00    +0.000 C 
BRANCH  15  16
ATOM     16  O   UNL     1      52.533   9.251   9.879  0.00  0.00    +0.000 OA
ATOM     17  H   UNL     1      52.682  10.112  10.306  0.00  0.00    +0.000 HD
ENDBRANCH  15  16
ENDBRANCH  13  15
ENDBRANCH   7   9
ENDBRANCH   1   2
BRANCH   1  18
ATOM     18  N   UNL     1      44.185   5.345   9.784  0.00  0.00    +0.000 N 
ATOM     19  H   UNL     1      44.002   6.086   9.121  0.00  0.00    +0.000 HD
BRANCH  18  25
ATOM     20  C   UNL     1      44.523   2.904   9.558  0.00  0.00    +0.000 A 
ATOM     21  C   UNL     1      45.250   1.888   8.926  0.00  0.00    +0.000 A 
ATOM     22  C   UNL     1      46.267   2.203   8.025  0.00  0.00    +0.000 A 
ATOM     23  C   UNL     1      46.503   3.545   7.788  0.00  0.00    +0.000 A 
ATOM     24  N   UNL     1      45.812   4.559   8.380  0.00  0.00    +0.000 NA
ATOM     25  C   UNL     1      44.828   4.247   9.256  0.00  0.00    +0.000 A 
BRANCH  22  26
ATOM     26  C   UNL     1      47.013   1.086   7.392  0.00  0.00    +0.000 C 
ATOM     27  N   UNL     1      46.694  -0.202   7.715  0.00  0.00    +0.000 N 
ATOM     28  O   UNL     1      47.909   1.304   6.584  0.00  0.00    +0.000 OA
ATOM     29  H   UNL     1      45.997  -0.494   8.384  0.00  0.00    +0.000 HD
ATOM     30  H   UNL     1      47.239  -0.925   7.265  0.00  0.00    +0.000 HD
ENDBRANCH  22  26
BRANCH  20  32
ATOM     31  C   UNL     1      43.841   2.201  11.734  0.00  0.00    +0.000 C 
ATOM     32  O   UNL     1      43.494   2.632  10.422  0.00  0.00    +0.000 OA
ENDBRANCH  20  32
ENDBRANCH  18  25
ENDBRANCH   1  18
TORSDOF 8
ENDMDL
MODEL 2
REMARK VINA RESULT:    -7.672      2.834      4.381
REMARK INTER + INTRA:         -11.826
REMARK INTER:                 -11.382
REMARK INTRA:                  -0.443
REMARK UNBOUND:                -0.790
REMARK  Name = 
REMARK  9 active torsions:
REMARK  status: ('A' for Active; 'I' for Inactive)
REMARK    1  A    between atoms: C_1  and  O_2
REMARK    2  A    between atoms: O_2  and  C_3
REMARK    3  A    between atoms: C_5  and  C_6
REMARK    4  A    between atoms: C_11  and  N_12
REMARK    5  A    between atoms: N_12  and  C_13
REMARK    6  A    between atoms: C_13  and  C_14
REMARK    7  A    between atoms: C_19  and  C_20
REMARK    8  A    between atoms: C_24  and  C_25
REMARK    9  A    between atoms: C_25  and  O_26
REMARK                            x       y       z     vdW  Elec       q    Type
REMARK                         _______ _______ _______ _____ _____    ______ ____
ROOT
ATOM      1  C   UNL     1      44.257   5.524  11.374  0.00  0.00    +0.000 C 
ENDROOT
BRANCH   1   2
ATOM      2  C   UNL     1      45.567   5.928  12.008  0.00  0.00    +0.000 A 
ATOM      3  C   UNL     1      46.438   6.808  11.357  0.00  0.00    +0.000 A 
ATOM      4  C   UNL     1      47.693   7.071  11.900  0.00  0.00    +0.000 A 
ATOM      5  C   UNL     1      48.076   6.472  13.102  0.00  0.00    +0.000 A 
ATOM      6  F   UNL     1      49.302   6.760  13.567  0.00  0.00    +0.000 F 
ATOM      7  C   UNL     1      47.228   5.601  13.806  0.00  0.00    +0.000 A 
ATOM      8  C   UNL     1      45.965   5.353  13.230  0.00  0.00    +0.000 A 
BRANCH   7   9
ATOM      9  C   UNL     1      47.628   4.933  15.071  0.00  0.00    +0.000 A 
ATOM     10  C   UNL     1      47.466   3.547  15.247  0.00  0.00    +0.000 A 
ATOM     11  C   UNL     1      47.892   2.902  16.411  0.00  0.00    +0.000 A 
ATOM     12  C   UNL     1      48.477   3.633  17.442  0.00  0.00    +0.000 A 
ATOM     13  C   UNL     1      48.632   5.018  17.323  0.00  0.00    +0.000 A 
ATOM     14  C   UNL     1      48.220   5.646  16.132  0.00  0.00    +0.000 A 
BRANCH  13  15
ATOM     15  C   UNL     1      49.312   5.832  18.395  0.00  0.00    +0.000 C 
BRANCH  15  16
ATOM     16  O   UNL     1      49.676   5.038  19.517  0.00  0.00    +0.000 OA
ATOM     17  H   UNL     1      50.635   5.152  19.636  0.00  0.00    +0.000 HD
ENDBRANCH  15  16
ENDBRANCH  13  15
ENDBRANCH   7   9
ENDBRANCH   1   2
BRANCH   1  18
ATOM     18  N   UNL     1      44.351   5.415   9.943  0.00  0.00    +0.000 N 
ATOM     19  H   UNL     1      44.062   6.181   9.350  0.00  0.00    +0.000 HD
BRANCH  18  25
ATOM     20  C   UNL     1      44.756   3.024   9.445  0.00  0.00    +0.000 A 
ATOM     21  C   UNL     1      45.500   2.107   8.694  0.00  0.00    +0.000 A 
ATOM     22  C   UNL     1      46.488   2.549   7.814  0.00  0.00    +0.000 A 
ATOM     23  C   UNL     1      46.679   3.916   7.721  0.00  0.00    +0.000 A 
ATOM     24  N   UNL     1      45.971   4.837   8.433  0.00  0.00    +0.000 NA
ATOM     25  C   UNL     1      45.015   4.401   9.286  0.00  0.00    +0.000 A 
BRANCH  22  26
ATOM     26  C   UNL     1      47.253   1.532   7.050  0.00  0.00    +0.000 C 
ATOM     27  N   UNL     1      48.307   1.926   6.277  0.00  0.00    +0.000 N 
ATOM     28  O   UNL     1      46.953   0.344   7.106  0.00  0.00    +0.000 OA
ATOM     29  H   UNL     1      48.622   2.875   6.137  0.00  0.00    +0.000 HD
ATOM     30  H   UNL     1      48.788   1.197   5.768  0.00  0.00    +0.000 HD
ENDBRANCH  22  26
BRANCH  20  32
ATOM     31  C   UNL     1      44.111   2.363  11.645  0.00  0.00    +0.000 C 
ATOM     32  O   UNL     1      43.754   2.627  10.293  0.00  0.00    +0.000 OA
ENDBRANCH  20  32
ENDBRANCH  18  25
ENDBRANCH   1  18
TORSDOF 8
ENDMDL
MODEL 3
REMARK VINA RESULT:    -7.534      3.819      7.551
REMARK INTER + INTRA:         -11.628
REMARK INTER:                 -10.865
REMARK INTRA:                  -0.763
REMARK UNBOUND:                -0.790
REMARK  Name = 
REMARK  9 active torsions:
REMARK  status: ('A' for Active; 'I' for Inactive)
REMARK    1  A    between atoms: C_1  and  O_2
REMARK    2  A    between atoms: O_2  and  C_3
REMARK    3  A    between atoms: C_5  and  C_6
REMARK    4  A    between atoms: C_11  and  N_12
REMARK    5  A    between atoms: N_12  and  C_13
REMARK    6  A    between atoms: C_13  and  C_14
REMARK    7  A    between atoms: C_19  and  C_20
REMARK    8  A    between atoms: C_24  and  C_25
REMARK    9  A    between atoms: C_25  and  O_26
REMARK                            x       y       z     vdW  Elec       q    Type
REMARK                         _______ _______ _______ _____ _____    ______ ____
ROOT
ATOM      1  C   UNL     1      48.363   8.131  12.572  0.00  0.00    +0.000 C 
ENDROOT
BRANCH   1   2
ATOM      2  C   UNL     1      46.967   7.842  12.071  0.00  0.00    +0.000 A 
ATOM      3  C   UNL     1      45.909   8.711  12.353  0.00  0.00    +0.000 A 
ATOM      4  C   UNL     1      44.610   8.366  11.990  0.00  0.00    +0.000 A 
ATOM      5  C   UNL     1      44.365   7.161  11.327  0.00  0.00    +0.000 A 
ATOM      6  F   UNL     1      43.090   6.883  11.011  0.00  0.00    +0.000 F 
ATOM      7  C   UNL     1      45.397   6.266  10.998  0.00  0.00    +0.000 A 
ATOM      8  C   UNL     1      46.701   6.643  11.381  0.00  0.00    +0.000 A 
BRANCH   7   9
ATOM      9  C   UNL     1      45.154   4.969  10.318  0.00  0.00    +0.000 A 
ATOM     10  C   UNL     1      44.359   3.971  10.912  0.00  0.00    +0.000 A 
ATOM     11  C   UNL     1      44.079   2.771  10.255  0.00  0.00    +0.000 A 
ATOM     12  C   UNL     1      44.602   2.528   8.988  0.00  0.00    +0.000 A 
ATOM     13  C   UNL     1      45.421   3.478   8.370  0.00  0.00    +0.000 A 
ATOM     14  C   UNL     1      45.671   4.692   9.037  0.00  0.00    +0.000 A 
BRANCH  13  15
ATOM     15  C   UNL     1      45.959   3.272   6.977  0.00  0.00    +0.000 C 
BRANCH  15  16
ATOM     16  O   UNL     1      46.795   4.345   6.563  0.00  0.00    +0.000 OA
ATOM     17  H   UNL     1      47.674   3.963   6.400  0.00  0.00    +0.000 HD
ENDBRANCH  15  16
ENDBRANCH  13  15
ENDBRANCH   7   9
ENDBRANCH   1   2
BRANCH   1  18
ATOM     18  N   UNL     1      49.015   6.958  13.088  0.00  0.00    +0.000 N 
ATOM     19  H   UNL     1      49.900   6.654  12.706  0.00  0.00    +0.000 HD
BRANCH  18  25
ATOM     20  C   UNL     1      49.026   6.653  15.545  0.00  0.00    +0.000 A 
ATOM     21  C   UNL     1      48.537   5.904  16.621  0.00  0.00    +0.000 A 
ATOM     22  C   UNL     1      47.684   4.823  16.401  0.00  0.00    +0.000 A 
ATOM     23  C   UNL     1      47.347   4.545  15.088  0.00  0.00    +0.000 A 
ATOM     24  N   UNL     1      47.800   5.255  14.018  0.00  0.00    +0.000 NA
ATOM     25  C   UNL     1      48.630   6.302  14.237  0.00  0.00    +0.000 A 
BRANCH  22  26
ATOM     26  C   UNL     1      47.204   4.058  17.579  0.00  0.00    +0.000 C 
ATOM     27  N   UNL     1      47.441   4.540  18.835  0.00  0.00    +0.000 N 
ATOM     28  O   UNL     1      46.596   3.001  17.441  0.00  0.00    +0.000 OA
ATOM     29  H   UNL     1      47.953   5.379  19.065  0.00  0.00    +0.000 HD
ATOM     30  H   UNL     1      47.104   3.976  19.603  0.00  0.00    +0.000 HD
ENDBRANCH  22  26
BRANCH  20  32
ATOM     31  C   UNL     1      49.763   8.410  16.980  0.00  0.00    +0.000 C 
ATOM     32  O   UNL     1      49.838   7.743  15.725  0.00  0.00    +0.000 OA
ENDBRANCH  20  32
ENDBRANCH  18  25
ENDBRANCH   1  18
TORSDOF 8
ENDMDL
MODEL 4
REMARK VINA RESULT:    -7.504      1.813      2.261
REMARK INTER + INTRA:         -11.585
REMARK INTER:                 -10.977
REMARK INTRA:                  -0.608
REMARK UNBOUND:                -0.790
REMARK  Name = 
REMARK  9 active torsions:
REMARK  status: ('A' for Active; 'I' for Inactive)
REMARK    1  A    between atoms: C_1  and  O_2
REMARK    2  A    between atoms: O_2  and  C_3
REMARK    3  A    between atoms: C_5  and  C_6
REMARK    4  A    between atoms: C_11  and  N_12
REMARK    5  A    between atoms: N_12  and  C_13
REMARK    6  A    between atoms: C_13  and  C_14
REMARK    7  A    between atoms: C_19  and  C_20
REMARK    8  A    between atoms: C_24  and  C_25
REMARK    9  A    between atoms: C_25  and  O_26
REMARK                            x       y       z     vdW  Elec       q    Type
REMARK                         _______ _______ _______ _____ _____    ______ ____
ROOT
ATOM      1  C   UNL     1      43.937   5.471  11.282  0.00  0.00    +0.000 C 
ENDROOT
BRANCH   1   2
ATOM      2  C   UNL     1      44.565   6.817  11.554  0.00  0.00    +0.000 A 
ATOM      3  C   UNL     1      43.889   8.000  11.242  0.00  0.00    +0.000 A 
ATOM      4  C   UNL     1      44.533   9.227  11.384  0.00  0.00    +0.000 A 
ATOM      5  C   UNL     1      45.846   9.278  11.856  0.00  0.00    +0.000 A 
ATOM      6  F   UNL     1      46.413  10.490  11.963  0.00  0.00    +0.000 F 
ATOM      7  C   UNL     1      46.559   8.119  12.207  0.00  0.00    +0.000 A 
ATOM      8  C   UNL     1      45.881   6.893  12.049  0.00  0.00    +0.000 A 
BRANCH   7   9
ATOM      9  C   UNL     1      47.966   8.151  12.684  0.00  0.00    +0.000 A 
ATOM     10  C   UNL     1      48.274   8.095  14.055  0.00  0.00    +0.000 A 
ATOM     11  C   UNL     1      49.595   8.067  14.508  0.00  0.00    +0.000 A 
ATOM     12  C   UNL     1      50.647   8.112  13.598  0.00  0.00    +0.000 A 
ATOM     13  C   UNL     1      50.390   8.197  12.227  0.00  0.00    +0.000 A 
ATOM     14  C   UNL     1      49.052   8.198  11.788  0.00  0.00    +0.000 A 
BRANCH  13  15
ATOM     15  C   UNL     1      51.505   8.192  11.211  0.00  0.00    +0.000 C 
BRANCH  15  16
ATOM     16  O   UNL     1      51.751   6.889  10.697  0.00  0.00    +0.000 OA
ATOM     17  H   UNL     1      52.137   7.011   9.813  0.00  0.00    +0.000 HD
ENDBRANCH  15  16
ENDBRANCH  13  15
ENDBRANCH   7   9
ENDBRANCH   1   2
BRANCH   1  18
ATOM     18  N   UNL     1      43.898   5.156   9.879  0.00  0.00    +0.000 N 
ATOM     19  H   UNL     1      43.391   5.748   9.235  0.00  0.00    +0.000 HD
BRANCH  18  25
ATOM     20  C   UNL     1      44.598   2.811   9.507  0.00  0.00    +0.000 A 
ATOM     21  C   UNL     1      45.456   1.955   8.808  0.00  0.00    +0.000 A 
ATOM     22  C   UNL     1      46.394   2.471   7.913  0.00  0.00    +0.000 A 
ATOM     23  C   UNL     1      46.418   3.845   7.751  0.00  0.00    +0.000 A 
ATOM     24  N   UNL     1      45.595   4.706   8.410  0.00  0.00    +0.000 NA
ATOM     25  C   UNL     1      44.688   4.200   9.280  0.00  0.00    +0.000 A 
BRANCH  22  26
ATOM     26  C   UNL     1      47.286   1.518   7.206  0.00  0.00    +0.000 C 
ATOM     27  N   UNL     1      48.366   1.993   6.519  0.00  0.00    +0.000 N 
ATOM     28  O   UNL     1      47.068   0.311   7.233  0.00  0.00    +0.000 OA
ATOM     29  H   UNL     1      48.623   2.963   6.408  0.00  0.00    +0.000 HD
ATOM     30  H   UNL     1      48.935   1.305   6.046  0.00  0.00    +0.000 HD
ENDBRANCH  22  26
BRANCH  20  32
ATOM     31  C   UNL     1      43.961   2.327  11.754  0.00  0.00    +0.000 C 
ATOM     32  O   UNL     1      43.641   2.338  10.368  0.00  0.00    +0.000 OA
ENDBRANCH  20  32
ENDBRANCH  18  25
ENDBRANCH   1  18
TORSDOF 8
ENDMDL
MODEL 5
REMARK VINA RESULT:    -7.260      4.956      8.062
REMARK INTER + INTRA:         -11.234
REMARK INTER:                 -10.293
REMARK INTRA:                  -0.941
REMARK UNBOUND:                -0.790
REMARK  Name = 
REMARK  9 active torsions:
REMARK  status: ('A' for Active; 'I' for Inactive)
REMARK    1  A    between atoms: C_1  and  O_2
REMARK    2  A    between atoms: O_2  and  C_3
REMARK    3  A    between atoms: C_5  and  C_6
REMARK    4  A    between atoms: C_11  and  N_12
REMARK    5  A    between atoms: N_12  and  C_13
REMARK    6  A    between atoms: C_13  and  C_14
REMARK    7  A    between atoms: C_19  and  C_20
REMARK    8  A    between atoms: C_24  and  C_25
REMARK    9  A    between atoms: C_25  and  O_26
REMARK                            x       y       z     vdW  Elec       q    Type
REMARK                         _______ _______ _______ _____ _____    ______ ____
ROOT
ATOM      1  C   UNL     1      48.541   7.228  13.984  0.00  0.00    +0.000 C 
ENDROOT
BRANCH   1   2
ATOM      2  C   UNL     1      47.288   7.317  13.144  0.00  0.00    +0.000 A 
ATOM      3  C   UNL     1      46.468   8.448  13.199  0.00  0.00    +0.000 A 
ATOM      4  C   UNL     1      45.255   8.460  12.515  0.00  0.00    +0.000 A 
ATOM      5  C   UNL     1      44.866   7.352  11.759  0.00  0.00    +0.000 A 
ATOM      6  F   UNL     1      43.682   7.425  11.130  0.00  0.00    +0.000 F 
ATOM      7  C   UNL     1      45.667   6.203  11.651  0.00  0.00    +0.000 A 
ATOM      8  C   UNL     1      46.888   6.220  12.358  0.00  0.00    +0.000 A 
BRANCH   7   9
ATOM      9  C   UNL     1      45.259   5.005  10.875  0.00  0.00    +0.000 A 
ATOM     10  C   UNL     1      44.411   4.029  11.431  0.00  0.00    +0.000 A 
ATOM     11  C   UNL     1      43.976   2.928  10.688  0.00  0.00    +0.000 A 
ATOM     12  C   UNL     1      44.394   2.764   9.370  0.00  0.00    +0.000 A 
ATOM     13  C   UNL     1      45.260   3.693   8.785  0.00  0.00    +0.000 A 
ATOM     14  C   UNL     1      45.666   4.810   9.541  0.00  0.00    +0.000 A 
BRANCH  13  15
ATOM     15  C   UNL     1      45.687   3.577   7.344  0.00  0.00    +0.000 C 
BRANCH  15  16
ATOM     16  O   UNL     1      46.853   4.343   7.070  0.00  0.00    +0.000 OA
ATOM     17  H   UNL     1      46.788   5.147   7.612  0.00  0.00    +0.000 HD
ENDBRANCH  15  16
ENDBRANCH  13  15
ENDBRANCH   7   9
ENDBRANCH   1   2
BRANCH   1  18
ATOM     18  N   UNL     1      48.264   6.867  15.348  0.00  0.00    +0.000 N 
ATOM     19  H   UNL     1      47.332   6.970  15.726  0.00  0.00    +0.000 HD
BRANCH  18  25
ATOM     20  C   UNL     1      48.775   5.155  17.061  0.00  0.00    +0.000 A 
ATOM     21  C   UNL     1      49.778   4.524  17.805  0.00  0.00    +0.000 A 
ATOM     22  C   UNL     1      51.111   4.908  17.663  0.00  0.00    +0.000 A 
ATOM     23  C   UNL     1      51.381   5.918  16.757  0.00  0.00    +0.000 A 
ATOM     24  N   UNL     1      50.431   6.550  16.013  0.00  0.00    +0.000 NA
ATOM     25  C   UNL     1      49.138   6.175  16.157  0.00  0.00    +0.000 A 
BRANCH  22  26
ATOM     26  C   UNL     1      52.132   4.211  18.485  0.00  0.00    +0.000 C 
ATOM     27  N   UNL     1      52.132   2.846  18.541  0.00  0.00    +0.000 N 
ATOM     28  O   UNL     1      52.976   4.843  19.111  0.00  0.00    +0.000 OA
ATOM     29  H   UNL     1      51.471   2.231  18.091  0.00  0.00    +0.000 HD
ATOM     30  H   UNL     1      52.841   2.422  19.123  0.00  0.00    +0.000 HD
ENDBRANCH  22  26
BRANCH  20  32
ATOM     31  C   UNL     1      47.181   3.386  17.216  0.00  0.00    +0.000 C 
ATOM     32  O   UNL     1      47.459   4.780  17.149  0.00  0.00    +0.000 OA
ENDBRANCH  20  32
ENDBRANCH  18  25
ENDBRANCH   1  18
TORSDOF 8
ENDMDL
MODEL 6
REMARK VINA RESULT:    -7.197      4.360      8.056
REMARK INTER + INTRA:         -11.143
REMARK INTER:                 -10.348
REMARK INTRA:                  -0.795
REMARK UNBOUND:                -0.790
REMARK  Name = 
REMARK  9 active torsions:
REMARK  status: ('A' for Active; 'I' for Inactive)
REMARK    1  A    between atoms: C_1  and  O_2
REMARK    2  A    between atoms: O_2  and  C_3
REMARK    3  A    between atoms: C_5  and  C_6
REMARK    4  A    between atoms: C_11  and  N_12
REMARK    5  A    between atoms: N_12  and  C_13
REMARK    6  A    between atoms: C_13  and  C_14
REMARK    7  A    between atoms: C_19  and  C_20
REMARK    8  A    between atoms: C_24  and  C_25
REMARK    9  A    between atoms: C_25  and  O_26
REMARK                            x       y       z     vdW  Elec       q    Type
REMARK                         _______ _______ _______ _____ _____    ______ ____
ROOT
ATOM      1  C   UNL     1      49.424   7.527  13.441  0.00  0.00    +0.000 C 
ENDROOT
BRANCH   1   2
ATOM      2  C   UNL     1      48.052   7.709  12.835  0.00  0.00    +0.000 A 
ATOM      3  C   UNL     1      47.291   8.849  13.113  0.00  0.00    +0.000 A 
ATOM      4  C   UNL     1      45.983   8.941  12.646  0.00  0.00    +0.000 A 
ATOM      5  C   UNL     1      45.436   7.905  11.885  0.00  0.00    +0.000 A 
ATOM      6  F   UNL     1      44.166   8.052  11.472  0.00  0.00    +0.000 F 
ATOM      7  C   UNL     1      46.168   6.752  11.557  0.00  0.00    +0.000 A 
ATOM      8  C   UNL     1      47.489   6.687  12.047  0.00  0.00    +0.000 A 
BRANCH   7   9
ATOM      9  C   UNL     1      45.595   5.628  10.773  0.00  0.00    +0.000 A 
ATOM     10  C   UNL     1      45.868   5.482   9.401  0.00  0.00    +0.000 A 
ATOM     11  C   UNL     1      45.379   4.396   8.669  0.00  0.00    +0.000 A 
ATOM     12  C   UNL     1      44.587   3.434   9.290  0.00  0.00    +0.000 A 
ATOM     13  C   UNL     1      44.266   3.554  10.645  0.00  0.00    +0.000 A 
ATOM     14  C   UNL     1      44.788   4.640  11.372  0.00  0.00    +0.000 A 
BRANCH  13  15
ATOM     15  C   UNL     1      43.457   2.502  11.362  0.00  0.00    +0.000 C 
BRANCH  15  16
ATOM     16  O   UNL     1      43.722   2.486  12.759  0.00  0.00    +0.000 OA
ATOM     17  H   UNL     1      43.471   3.362  13.097  0.00  0.00    +0.000 HD
ENDBRANCH  15  16
ENDBRANCH  13  15
ENDBRANCH   7   9
ENDBRANCH   1   2
BRANCH   1  18
ATOM     18  N   UNL     1      49.409   7.631  14.875  0.00  0.00    +0.000 N 
ATOM     19  H   UNL     1      49.525   8.529  15.325  0.00  0.00    +0.000 HD
BRANCH  18  25
ATOM     20  C   UNL     1      49.398   6.501  17.078  0.00  0.00    +0.000 A 
ATOM     21  C   UNL     1      48.919   5.416  17.821  0.00  0.00    +0.000 A 
ATOM     22  C   UNL     1      48.105   4.454  17.224  0.00  0.00    +0.000 A 
ATOM     23  C   UNL     1      47.794   4.636  15.888  0.00  0.00    +0.000 A 
ATOM     24  N   UNL     1      48.238   5.682  15.136  0.00  0.00    +0.000 NA
ATOM     25  C   UNL     1      49.030   6.611  15.721  0.00  0.00    +0.000 A 
BRANCH  22  26
ATOM     26  C   UNL     1      47.634   3.319  18.057  0.00  0.00    +0.000 C 
ATOM     27  N   UNL     1      48.215   3.093  19.272  0.00  0.00    +0.000 N 
ATOM     28  O   UNL     1      46.732   2.584  17.670  0.00  0.00    +0.000 OA
ATOM     29  H   UNL     1      48.979   3.615  19.674  0.00  0.00    +0.000 HD
ATOM     30  H   UNL     1      47.866   2.301  19.795  0.00  0.00    +0.000 HD
ENDBRANCH  22  26
BRANCH  20  32
ATOM     31  C   UNL     1      50.153   7.596  19.058  0.00  0.00    +0.000 C 
ATOM     32  O   UNL     1      50.172   7.484  17.640  0.00  0.00    +0.000 OA
ENDBRANCH  20  32
ENDBRANCH  18  25
ENDBRANCH   1  18
TORSDOF 8
ENDMDL
MODEL 7
REMARK VINA RESULT:    -7.179      4.132      7.554
REMARK INTER + INTRA:         -11.117
REMARK INTER:                  -9.932
REMARK INTRA:                  -1.185
REMARK UNBOUND:                -0.790
REMARK  Name = 
REMARK  9 active torsions:
REMARK  status: ('A' for Active; 'I' for Inactive)
REMARK    1  A    between atoms: C_1  and  O_2
REMARK    2  A    between atoms: O_2  and  C_3
REMARK    3  A    between atoms: C_5  and  C_6
REMARK    4  A    between atoms: C_11  and  N_12
REMARK    5  A    between atoms: N_12  and  C_13
REMARK    6  A    between atoms: C_13  and  C_14
REMARK    7  A    between atoms: C_19  and  C_20
REMARK    8  A    between atoms: C_24  and  C_25
REMARK    9  A    between atoms: C_25  and  O_26
REMARK                            x       y       z     vdW  Elec       q    Type
REMARK                         _______ _______ _______ _____ _____    ______ ____
ROOT
ATOM      1  C   UNL     1      48.584   8.200  12.534  0.00  0.00    +0.000 C 
ENDROOT
BRANCH   1   2
ATOM      2  C   UNL     1      47.172   7.933  12.069  0.00  0.00    +0.000 A 
ATOM      3  C   UNL     1      46.141   8.832  12.357  0.00  0.00    +0.000 A 
ATOM      4  C   UNL     1      44.826   8.510  12.029  0.00  0.00    +0.000 A 
ATOM      5  C   UNL     1      44.539   7.299  11.395  0.00  0.00    +0.000 A 
ATOM      6  F   UNL     1      43.251   7.045  11.113  0.00  0.00    +0.000 F 
ATOM      7  C   UNL     1      45.543   6.374  11.062  0.00  0.00    +0.000 A 
ATOM      8  C   UNL     1      46.863   6.728  11.409  0.00  0.00    +0.000 A 
BRANCH   7   9
ATOM      9  C   UNL     1      45.255   5.069  10.414  0.00  0.00    +0.000 A 
ATOM     10  C   UNL     1      44.503   4.078  11.070  0.00  0.00    +0.000 A 
ATOM     11  C   UNL     1      44.180   2.871  10.446  0.00  0.00    +0.000 A 
ATOM     12  C   UNL     1      44.616   2.615   9.149  0.00  0.00    +0.000 A 
ATOM     13  C   UNL     1      45.391   3.559   8.467  0.00  0.00    +0.000 A 
ATOM     14  C   UNL     1      45.685   4.780   9.103  0.00  0.00    +0.000 A 
BRANCH  13  15
ATOM     15  C   UNL     1      45.832   3.338   7.043  0.00  0.00    +0.000 C 
BRANCH  15  16
ATOM     16  O   UNL     1      46.826   4.273   6.642  0.00  0.00    +0.000 OA
ATOM     17  H   UNL     1      47.046   4.797   7.431  0.00  0.00    +0.000 HD
ENDBRANCH  15  16
ENDBRANCH  13  15
ENDBRANCH   7   9
ENDBRANCH   1   2
BRANCH   1  18
ATOM     18  N   UNL     1      49.180   7.053  13.166  0.00  0.00    +0.000 N 
ATOM     19  H   UNL     1      49.993   6.610  12.762  0.00  0.00    +0.000 HD
BRANCH  18  25
ATOM     20  C   UNL     1      48.071   5.474  14.717  0.00  0.00    +0.000 A 
ATOM     21  C   UNL     1      47.839   5.135  16.055  0.00  0.00    +0.000 A 
ATOM     22  C   UNL     1      48.363   5.917  17.084  0.00  0.00    +0.000 A 
ATOM     23  C   UNL     1      49.118   7.016  16.715  0.00  0.00    +0.000 A 
ATOM     24  N   UNL     1      49.367   7.373  15.425  0.00  0.00    +0.000 NA
ATOM     25  C   UNL     1      48.854   6.612  14.430  0.00  0.00    +0.000 A 
BRANCH  22  26
ATOM     26  C   UNL     1      48.077   5.515  18.484  0.00  0.00    +0.000 C 
ATOM     27  N   UNL     1      46.807   5.154  18.833  0.00  0.00    +0.000 N 
ATOM     28  O   UNL     1      48.965   5.502  19.331  0.00  0.00    +0.000 OA
ATOM     29  H   UNL     1      45.999   5.156  18.227  0.00  0.00    +0.000 HD
ATOM     30  H   UNL     1      46.663   4.901  19.801  0.00  0.00    +0.000 HD
ENDBRANCH  22  26
BRANCH  20  32
ATOM     31  C   UNL     1      46.851   3.548  14.015  0.00  0.00    +0.000 C 
ATOM     32  O   UNL     1      47.602   4.710  13.680  0.00  0.00    +0.000 OA
ENDBRANCH  20  32
ENDBRANCH  18  25
ENDBRANCH   1  18
TORSDOF 8
ENDMDL
MODEL 8
REMARK VINA RESULT:    -6.805      5.624      7.216
REMARK INTER + INTRA:         -10.580
REMARK INTER:                  -9.692
REMARK INTRA:                  -0.888
REMARK UNBOUND:                -0.790
REMARK  Name = 
REMARK  9 active torsions:
REMARK  status: ('A' for Active; 'I' for Inactive)
REMARK    1  A    between atoms: C_1  and  O_2
REMARK    2  A    between atoms: O_2  and  C_3
REMARK    3  A    between atoms: C_5  and  C_6
REMARK    4  A    between atoms: C_11  and  N_12
REMARK    5  A    between atoms: N_12  and  C_13
REMARK    6  A    between atoms: C_13  and  C_14
REMARK    7  A    between atoms: C_19  and  C_20
REMARK    8  A    between atoms: C_24  and  C_25
REMARK    9  A    between atoms: C_25  and  O_26
REMARK                            x       y       z     vdW  Elec       q    Type
REMARK                         _______ _______ _______ _____ _____    ______ ____
ROOT
ATOM      1  C   UNL     1      46.908   3.959  15.749  0.00  0.00    +0.000 C 
ENDROOT
BRANCH   1   2
ATOM      2  C   UNL     1      47.802   4.127  16.955  0.00  0.00    +0.000 A 
ATOM      3  C   UNL     1      47.346   4.791  18.098  0.00  0.00    +0.000 A 
ATOM      4  C   UNL     1      48.223   5.044  19.149  0.00  0.00    +0.000 A 
ATOM      5  C   UNL     1      49.552   4.620  19.072  0.00  0.00    +0.000 A 
ATOM      6  F   UNL     1      50.348   4.903  20.116  0.00  0.00    +0.000 F 
ATOM      7  C   UNL     1      50.050   3.927  17.956  0.00  0.00    +0.000 A 
ATOM      8  C   UNL     1      49.139   3.687  16.907  0.00  0.00    +0.000 A 
BRANCH   7   9
ATOM      9  C   UNL     1      51.466   3.492  17.843  0.00  0.00    +0.000 A 
ATOM     10  C   UNL     1      52.516   4.427  17.798  0.00  0.00    +0.000 A 
ATOM     11  C   UNL     1      53.853   4.025  17.749  0.00  0.00    +0.000 A 
ATOM     12  C   UNL     1      54.176   2.671  17.726  0.00  0.00    +0.000 A 
ATOM     13  C   UNL     1      53.165   1.706  17.741  0.00  0.00    +0.000 A 
ATOM     14  C   UNL     1      51.824   2.129  17.816  0.00  0.00    +0.000 A 
BRANCH  13  15
ATOM     15  C   UNL     1      53.480   0.231  17.774  0.00  0.00    +0.000 C 
BRANCH  15  16
ATOM     16  O   UNL     1      52.502  -0.507  18.494  0.00  0.00    +0.000 OA
ATOM     17  H   UNL     1      51.773   0.109  18.680  0.00  0.00    +0.000 HD
ENDBRANCH  15  16
ENDBRANCH  13  15
ENDBRANCH   7   9
ENDBRANCH   1   2
BRANCH   1  18
ATOM     18  N   UNL     1      46.850   5.146  14.939  0.00  0.00    +0.000 N 
ATOM     19  H   UNL     1      47.255   6.011  15.268  0.00  0.00    +0.000 HD
BRANCH  18  25
ATOM     20  C   UNL     1      46.764   6.180  12.691  0.00  0.00    +0.000 A 
ATOM     21  C   UNL     1      46.315   6.050  11.372  0.00  0.00    +0.000 A 
ATOM     22  C   UNL     1      45.568   4.937  10.986  0.00  0.00    +0.000 A 
ATOM     23  C   UNL     1      45.311   3.986  11.957  0.00  0.00    +0.000 A 
ATOM     24  N   UNL     1      45.736   4.078  13.248  0.00  0.00    +0.000 NA
ATOM     25  C   UNL     1      46.459   5.161  13.618  0.00  0.00    +0.000 A 
BRANCH  22  26
ATOM     26  C   UNL     1      45.109   4.856   9.577  0.00  0.00    +0.000 C 
ATOM     27  N   UNL     1      43.836   4.441   9.309  0.00  0.00    +0.000 N 
ATOM     28  O   UNL     1      45.856   5.157   8.652  0.00  0.00    +0.000 OA
ATOM     29  H   UNL     1      43.150   4.144   9.987  0.00  0.00    +0.000 HD
ATOM     30  H   UNL     1      43.576   4.393   8.333  0.00  0.00    +0.000 HD
ENDBRANCH  22  26
BRANCH  20  32
ATOM     31  C   UNL     1      48.736   7.488  12.384  0.00  0.00    +0.000 C 
ATOM     32  O   UNL     1      47.530   7.243  13.098  0.00  0.00    +0.000 OA
ENDBRANCH  20  32
ENDBRANCH  18  25
ENDBRANCH   1  18
TORSDOF 8
ENDMDL
MODEL 9
REMARK VINA RESULT:    -6.496      4.347      6.148
REMARK INTER + INTRA:         -10.135
REMARK INTER:                  -9.155
REMARK INTRA:                  -0.980
REMARK UNBOUND:                -0.790
REMARK  Name = 
REMARK  9 active torsions:
REMARK  status: ('A' for Active; 'I' for Inactive)
REMARK    1  A    between atoms: C_1  and  O_2
REMARK    2  A    between atoms: O_2  and  C_3
REMARK    3  A    between atoms: C_5  and  C_6
REMARK    4  A    between atoms: C_11  and  N_12
REMARK    5  A    between atoms: N_12  and  C_13
REMARK    6  A    between atoms: C_13  and  C_14
REMARK    7  A    between atoms: C_19  and  C_20
REMARK    8  A    between atoms: C_24  and  C_25
REMARK    9  A    between atoms: C_25  and  O_26
REMARK                            x       y       z     vdW  Elec       q    Type
REMARK                         _______ _______ _______ _____ _____    ______ ____
ROOT
ATOM      1  C   UNL     1      47.877   7.757  13.643  0.00  0.00    +0.000 C 
ENDROOT
BRANCH   1   2
ATOM      2  C   UNL     1      48.434   7.792  15.047  0.00  0.00    +0.000 A 
ATOM      3  C   UNL     1      48.267   8.919  15.857  0.00  0.00    +0.000 A 
ATOM      4  C   UNL     1      48.893   8.981  17.099  0.00  0.00    +0.000 A 
ATOM      5  C   UNL     1      49.673   7.911  17.544  0.00  0.00    +0.000 A 
ATOM      6  F   UNL     1      50.256   8.037  18.747  0.00  0.00    +0.000 F 
ATOM      7  C   UNL     1      49.851   6.747  16.778  0.00  0.00    +0.000 A 
ATOM      8  C   UNL     1      49.206   6.715  15.524  0.00  0.00    +0.000 A 
BRANCH   7   9
ATOM      9  C   UNL     1      50.699   5.611  17.222  0.00  0.00    +0.000 A 
ATOM     10  C   UNL     1      51.931   5.827  17.865  0.00  0.00    +0.000 A 
ATOM     11  C   UNL     1      52.707   4.765  18.336  0.00  0.00    +0.000 A 
ATOM     12  C   UNL     1      52.278   3.453  18.160  0.00  0.00    +0.000 A 
ATOM     13  C   UNL     1      51.074   3.188  17.501  0.00  0.00    +0.000 A 
ATOM     14  C   UNL     1      50.293   4.272  17.056  0.00  0.00    +0.000 A 
BRANCH  13  15
ATOM     15  C   UNL     1      50.552   1.782  17.342  0.00  0.00    +0.000 C 
BRANCH  15  16
ATOM     16  O   UNL     1      49.924   1.586  16.081  0.00  0.00    +0.000 OA
ATOM     17  H   UNL     1      49.814   2.468  15.688  0.00  0.00    +0.000 HD
ENDBRANCH  15  16
ENDBRANCH  13  15
ENDBRANCH   7   9
ENDBRANCH   1   2
BRANCH   1  18
ATOM     18  N   UNL     1      46.490   7.378  13.613  0.00  0.00    +0.000 N 
ATOM     19  H   UNL     1      45.800   7.918  14.118  0.00  0.00    +0.000 HD
BRANCH  18  25
ATOM     20  C   UNL     1      45.769   5.072  13.076  0.00  0.00    +0.000 A 
ATOM     21  C   UNL     1      45.206   4.229  12.111  0.00  0.00    +0.000 A 
ATOM     22  C   UNL     1      44.858   4.725  10.855  0.00  0.00    +0.000 A 
ATOM     23  C   UNL     1      45.086   6.070  10.626  0.00  0.00    +0.000 A 
ATOM     24  N   UNL     1      45.627   6.920  11.542  0.00  0.00    +0.000 NA
ATOM     25  C   UNL     1      45.966   6.432  12.759  0.00  0.00    +0.000 A 
BRANCH  22  26
ATOM     26  C   UNL     1      44.273   3.784   9.867  0.00  0.00    +0.000 C 
ATOM     27  N   UNL     1      44.178   4.159   8.557  0.00  0.00    +0.000 N 
ATOM     28  O   UNL     1      43.877   2.675  10.210  0.00  0.00    +0.000 OA
ATOM     29  H   UNL     1      44.446   5.053   8.172  0.00  0.00    +0.000 HD
ATOM     30  H   UNL     1      43.763   3.487   7.927  0.00  0.00    +0.000 HD
ENDBRANCH  22  26
BRANCH  20  32
ATOM     31  C   UNL     1      47.186   3.724  14.443  0.00  0.00    +0.000 C 
ATOM     32  O   UNL     1      46.091   4.627  14.332  0.00  0.00    +0.000 OA
ENDBRANCH  20  32
ENDBRANCH  18  25
ENDBRANCH   1  18
TORSDOF 8
ENDMDL
