MODEL 1
REMARK VINA RESULT:    -8.364      0.000      0.000
REMARK INTER + INTRA:         -12.720
REMARK INTER:                 -11.787
REMARK INTRA:                  -0.933
REMARK UNBOUND:                -0.933
REMARK  Name = 
REMARK  7 active torsions:
REMARK  status: ('A' for Active; 'I' for Inactive)
REMARK    1  A    between atoms: C_2  and  C_4
REMARK    2  A    between atoms: C_7  and  N_8
REMARK    3  A    between atoms: N_8  and  C_9
REMARK    4  A    between atoms: C_9  and  C_10
REMARK    5  A    between atoms: C_10  and  C_11
REMARK    6  A    between atoms: C_15  and  O_16
REMARK    7  A    between atoms: O_16  and  C_17
REMARK                            x       y       z     vdW  Elec       q    Type
REMARK                         _______ _______ _______ _____ _____    ______ ____
ROOT
ATOM      1  N   UNL     1      43.763   4.846   9.917  0.00  0.00    +0.000 N 
ATOM      2  H   UNL     1      43.092   5.224   9.252  0.00  0.00    +0.000 HD
ENDROOT
BRANCH   1   6
ATOM      3  C   UNL     1      46.245   2.074   8.038  0.00  0.00    +0.000 A 
ATOM      4  C   UNL     1      46.370   3.405   7.670  0.00  0.00    +0.000 A 
ATOM      5  C   UNL     1      45.562   4.352   8.305  0.00  0.00    +0.000 A 
ATOM      6  C   UNL     1      44.668   3.970   9.306  0.00  0.00    +0.000 A 
ATOM      7  C   UNL     1      44.608   2.593   9.570  0.00  0.00    +0.000 A 
ATOM      8  N   UNL     1      45.372   1.635   8.984  0.00  0.00    +0.000 NA
BRANCH   3  10
ATOM      9  N   UNL     1      46.786  -0.262   7.672  0.00  0.00    +0.000 N 
ATOM     10  C   UNL     1      47.083   1.037   7.356  0.00  0.00    +0.000 C 
ATOM     11  O   UNL     1      47.969   1.317   6.556  0.00  0.00    +0.000 OA
ATOM     12  H   UNL     1      47.288  -1.013   7.224  0.00  0.00    +0.000 HD
ATOM     13  H   UNL     1      46.027  -0.460   8.317  0.00  0.00    +0.000 HD
ENDBRANCH   3  10
ENDBRANCH   1   6
BRANCH   1  14
ATOM     14  C   UNL     1      43.140   4.470  11.193  0.00  0.00    +0.000 C 
BRANCH  14  15
ATOM     15  C   UNL     1      43.413   5.554  12.248  0.00  0.00    +0.000 C 
BRANCH  15  16
ATOM     16  C   UNL     1      44.857   5.598  12.689  0.00  0.00    +0.000 A 
ATOM     17  C   UNL     1      45.657   6.703  12.374  0.00  0.00    +0.000 A 
ATOM     18  C   UNL     1      46.988   6.754  12.794  0.00  0.00    +0.000 A 
ATOM     19  C   UNL     1      47.539   5.699  13.523  0.00  0.00    +0.000 A 
ATOM     20  C   UNL     1      46.760   4.585  13.827  0.00  0.00    +0.000 A 
ATOM     21  C   UNL     1      45.422   4.541  13.417  0.00  0.00    +0.000 A 
BRANCH  20  22
ATOM     22  O   UNL     1      47.196   3.506  14.555  0.00  0.00    +0.000 OA
BRANCH  22  23
ATOM     23  C   UNL     1      47.911   3.743  15.789  0.00  0.00    +0.000 C 
ATOM     24  C   UNL     1      48.448   2.496  16.537  0.00  0.00    +0.000 C 
ATOM     25  C   UNL     1      47.949   3.117  17.851  0.00  0.00    +0.000 C 
ATOM     26  C   UNL     1      47.000   3.992  17.018  0.00  0.00    +0.000 C 
ENDBRANCH  22  23
ENDBRANCH  20  22
ENDBRANCH  15  16
ENDBRANCH  14  15
ENDBRANCH   1  14
TORSDOF 7
ENDMDL
MODEL 2
REMARK VINA RESULT:    -7.523      2.039      3.600
REMARK INTER + INTRA:         -11.534
REMARK INTER:                 -10.617
REMARK INTRA:                  -0.917
REMARK UNBOUND:                -0.933
REMARK  Name = 
REMARK  7 active torsions:
REMARK  status: ('A' for Active; 'I' for Inactive)
REMARK    1  A    between atoms: C_2  and  C_4
REMARK    2  A    between atoms: C_7  and  N_8
REMARK    3  A    between atoms: N_8  and  C_9
REMARK    4  A    between atoms: C_9  and  C_10
REMARK    5  A    between atoms: C_10  and  C_11
REMARK    6  A    between atoms: C_15  and  O_16
REMARK    7  A    between atoms: O_16  and  C_17
REMARK                            x       y       z     vdW  Elec       q    Type
REMARK                         _______ _______ _______ _____ _____    ______ ____
ROOT
ATOM      1  N   UNL     1      43.601   4.640   9.921  0.00  0.00    +0.000 N 
ATOM      2  H   UNL     1      42.778   4.773   9.338  0.00  0.00    +0.000 HD
ENDROOT
BRANCH   1   6
ATOM      3  C   UNL     1      46.362   2.284   7.871  0.00  0.00    +0.000 A 
ATOM      4  C   UNL     1      46.411   3.656   7.672  0.00  0.00    +0.000 A 
ATOM      5  C   UNL     1      45.508   4.464   8.368  0.00  0.00    +0.000 A 
ATOM      6  C   UNL     1      44.594   3.905   9.263  0.00  0.00    +0.000 A 
ATOM      7  C   UNL     1      44.619   2.505   9.358  0.00  0.00    +0.000 A 
ATOM      8  N   UNL     1      45.477   1.677   8.707  0.00  0.00    +0.000 NA
BRANCH   3  10
ATOM      9  N   UNL     1      48.418   2.007   6.614  0.00  0.00    +0.000 N 
ATOM     10  C   UNL     1      47.303   1.394   7.119  0.00  0.00    +0.000 C 
ATOM     11  O   UNL     1      47.106   0.193   6.969  0.00  0.00    +0.000 OA
ATOM     12  H   UNL     1      49.111   1.461   6.126  0.00  0.00    +0.000 HD
ATOM     13  H   UNL     1      48.564   2.998   6.781  0.00  0.00    +0.000 HD
ENDBRANCH   3  10
ENDBRANCH   1   6
BRANCH   1  14
ATOM     14  C   UNL     1      43.259   4.313  11.312  0.00  0.00    +0.000 C 
BRANCH  14  15
ATOM     15  C   UNL     1      43.529   5.525  12.217  0.00  0.00    +0.000 C 
BRANCH  15  16
ATOM     16  C   UNL     1      44.974   5.632  12.644  0.00  0.00    +0.000 A 
ATOM     17  C   UNL     1      45.484   4.776  13.628  0.00  0.00    +0.000 A 
ATOM     18  C   UNL     1      46.823   4.860  14.014  0.00  0.00    +0.000 A 
ATOM     19  C   UNL     1      47.667   5.808  13.431  0.00  0.00    +0.000 A 
ATOM     20  C   UNL     1      47.168   6.678  12.465  0.00  0.00    +0.000 A 
ATOM     21  C   UNL     1      45.829   6.584  12.069  0.00  0.00    +0.000 A 
BRANCH  20  22
ATOM     22  O   UNL     1      47.916   7.629  11.814  0.00  0.00    +0.000 OA
BRANCH  22  23
ATOM     23  C   UNL     1      49.238   7.936  12.313  0.00  0.00    +0.000 C 
ATOM     24  C   UNL     1      49.629   9.435  12.381  0.00  0.00    +0.000 C 
ATOM     25  C   UNL     1      51.002   9.062  11.802  0.00  0.00    +0.000 C 
ATOM     26  C   UNL     1      50.371   7.767  11.270  0.00  0.00    +0.000 C 
ENDBRANCH  22  23
ENDBRANCH  20  22
ENDBRANCH  15  16
ENDBRANCH  14  15
ENDBRANCH   1  14
TORSDOF 7
ENDMDL
MODEL 3
REMARK VINA RESULT:    -7.247      2.205      4.005
REMARK INTER + INTRA:         -11.146
REMARK INTER:                 -10.136
REMARK INTRA:                  -1.010
REMARK UNBOUND:                -0.933
REMARK  Name = 
REMARK  7 active torsions:
REMARK  status: ('A' for Active; 'I' for Inactive)
REMARK    1  A    between atoms: C_2  and  C_4
REMARK    2  A    between atoms: C_7  and  N_8
REMARK    3  A    between atoms: N_8  and  C_9
REMARK    4  A    between atoms: C_9  and  C_10
REMARK    5  A    between atoms: C_10  and  C_11
REMARK    6  A    between atoms: C_15  and  O_16
REMARK    7  A    between atoms: O_16  and  C_17
REMARK                            x       y       z     vdW  Elec       q    Type
REMARK                         _______ _______ _______ _____ _____    ______ ____
ROOT
ATOM      1  N   UNL     1      43.687   3.698  10.627  0.00  0.00    +0.000 N 
ATOM      2  H   UNL     1      43.859   3.183  11.488  0.00  0.00    +0.000 HD
ENDROOT
BRANCH   1   6
ATOM      3  C   UNL     1      46.441   2.763   7.642  0.00  0.00    +0.000 A 
ATOM      4  C   UNL     1      46.156   4.103   7.859  0.00  0.00    +0.000 A 
ATOM      5  C   UNL     1      45.252   4.437   8.871  0.00  0.00    +0.000 A 
ATOM      6  C   UNL     1      44.669   3.446   9.662  0.00  0.00    +0.000 A 
ATOM      7  C   UNL     1      45.010   2.126   9.328  0.00  0.00    +0.000 A 
ATOM      8  N   UNL     1      45.884   1.750   8.358  0.00  0.00    +0.000 NA
BRANCH   3  10
ATOM      9  N   UNL     1      47.239   3.060   5.370  0.00  0.00    +0.000 N 
ATOM     10  C   UNL     1      47.388   2.377   6.547  0.00  0.00    +0.000 C 
ATOM     11  O   UNL     1      48.252   1.518   6.687  0.00  0.00    +0.000 OA
ATOM     12  H   UNL     1      47.864   2.875   4.601  0.00  0.00    +0.000 HD
ATOM     13  H   UNL     1      46.531   3.785   5.298  0.00  0.00    +0.000 HD
ENDBRANCH   3  10
ENDBRANCH   1   6
BRANCH   1  14
ATOM     14  C   UNL     1      43.253   5.079  10.876  0.00  0.00    +0.000 C 
BRANCH  14  15
ATOM     15  C   UNL     1      43.505   5.451  12.345  0.00  0.00    +0.000 C 
BRANCH  15  16
ATOM     16  C   UNL     1      44.969   5.648  12.661  0.00  0.00    +0.000 A 
ATOM     17  C   UNL     1      45.636   4.750  13.504  0.00  0.00    +0.000 A 
ATOM     18  C   UNL     1      46.993   4.919  13.785  0.00  0.00    +0.000 A 
ATOM     19  C   UNL     1      47.699   5.992  13.237  0.00  0.00    +0.000 A 
ATOM     20  C   UNL     1      47.044   6.903  12.412  0.00  0.00    +0.000 A 
ATOM     21  C   UNL     1      45.687   6.725  12.120  0.00  0.00    +0.000 A 
BRANCH  20  22
ATOM     22  O   UNL     1      47.648   7.977  11.805  0.00  0.00    +0.000 OA
BRANCH  22  23
ATOM     23  C   UNL     1      47.642   9.253  12.484  0.00  0.00    +0.000 C 
ATOM     24  C   UNL     1      46.861  10.405  11.802  0.00  0.00    +0.000 C 
ATOM     25  C   UNL     1      48.034  11.342  12.129  0.00  0.00    +0.000 C 
ATOM     26  C   UNL     1      48.924  10.098  12.268  0.00  0.00    +0.000 C 
ENDBRANCH  22  23
ENDBRANCH  20  22
ENDBRANCH  15  16
ENDBRANCH  14  15
ENDBRANCH   1  14
TORSDOF 7
ENDMDL
MODEL 4
REMARK VINA RESULT:    -7.190      1.716      2.157
REMARK INTER + INTRA:         -11.065
REMARK INTER:                 -10.467
REMARK INTRA:                  -0.597
REMARK UNBOUND:                -0.933
REMARK  Name = 
REMARK  7 active torsions:
REMARK  status: ('A' for Active; 'I' for Inactive)
REMARK    1  A    between atoms: C_2  and  C_4
REMARK    2  A    between atoms: C_7  and  N_8
REMARK    3  A    between atoms: N_8  and  C_9
REMARK    4  A    between atoms: C_9  and  C_10
REMARK    5  A    between atoms: C_10  and  C_11
REMARK    6  A    between atoms: C_15  and  O_16
REMARK    7  A    between atoms: O_16  and  C_17
REMARK                            x       y       z     vdW  Elec       q    Type
REMARK                         _______ _______ _______ _____ _____    ______ ____
ROOT
ATOM      1  N   UNL     1      43.924   5.020   9.870  0.00  0.00    +0.000 N 
ATOM      2  H   UNL     1      43.056   5.256   9.393  0.00  0.00    +0.000 HD
ENDROOT
BRANCH   1   6
ATOM      3  C   UNL     1      46.214   2.077   8.009  0.00  0.00    +0.000 A 
ATOM      4  C   UNL     1      45.207   1.663   8.868  0.00  0.00    +0.000 A 
ATOM      5  C   UNL     1      44.413   2.635   9.483  0.00  0.00    +0.000 A 
ATOM      6  C   UNL     1      44.615   3.991   9.220  0.00  0.00    +0.000 A 
ATOM      7  C   UNL     1      45.683   4.288   8.360  0.00  0.00    +0.000 A 
ATOM      8  N   UNL     1      46.479   3.382   7.735  0.00  0.00    +0.000 NA
BRANCH   3  10
ATOM      9  N   UNL     1      46.808  -0.249   7.657  0.00  0.00    +0.000 N 
ATOM     10  C   UNL     1      47.094   1.055   7.355  0.00  0.00    +0.000 C 
ATOM     11  O   UNL     1      48.004   1.354   6.590  0.00  0.00    +0.000 OA
ATOM     12  H   UNL     1      47.338  -0.990   7.226  0.00  0.00    +0.000 HD
ATOM     13  H   UNL     1      46.029  -0.462   8.273  0.00  0.00    +0.000 HD
ENDBRANCH   3  10
ENDBRANCH   1   6
BRANCH   1  14
ATOM     14  C   UNL     1      43.771   4.981  11.331  0.00  0.00    +0.000 C 
BRANCH  14  15
ATOM     15  C   UNL     1      45.112   4.622  11.988  0.00  0.00    +0.000 C 
BRANCH  15  16
ATOM     16  C   UNL     1      45.843   5.825  12.534  0.00  0.00    +0.000 A 
ATOM     17  C   UNL     1      45.268   7.100  12.446  0.00  0.00    +0.000 A 
ATOM     18  C   UNL     1      45.934   8.212  12.964  0.00  0.00    +0.000 A 
ATOM     19  C   UNL     1      47.186   8.069  13.565  0.00  0.00    +0.000 A 
ATOM     20  C   UNL     1      47.778   6.811  13.642  0.00  0.00    +0.000 A 
ATOM     21  C   UNL     1      47.104   5.694  13.135  0.00  0.00    +0.000 A 
BRANCH  20  22
ATOM     22  O   UNL     1      48.992   6.557  14.231  0.00  0.00    +0.000 OA
BRANCH  22  23
ATOM     23  C   UNL     1      49.132   6.770  15.655  0.00  0.00    +0.000 C 
ATOM     24  C   UNL     1      50.512   6.438  16.279  0.00  0.00    +0.000 C 
ATOM     25  C   UNL     1      49.777   5.759  17.445  0.00  0.00    +0.000 C 
ATOM     26  C   UNL     1      48.549   5.633  16.532  0.00  0.00    +0.000 C 
ENDBRANCH  22  23
ENDBRANCH  20  22
ENDBRANCH  15  16
ENDBRANCH  14  15
ENDBRANCH   1  14
TORSDOF 7
ENDMDL
MODEL 5
REMARK VINA RESULT:    -7.096      2.750      3.559
REMARK INTER + INTRA:         -10.933
REMARK INTER:                 -10.239
REMARK INTRA:                  -0.694
REMARK UNBOUND:                -0.933
REMARK  Name = 
REMARK  7 active torsions:
REMARK  status: ('A' for Active; 'I' for Inactive)
REMARK    1  A    between atoms: C_2  and  C_4
REMARK    2  A    between atoms: C_7  and  N_8
REMARK    3  A    between atoms: N_8  and  C_9
REMARK    4  A    between atoms: C_9  and  C_10
REMARK    5  A    between atoms: C_10  and  C_11
REMARK    6  A    between atoms: C_15  and  O_16
REMARK    7  A    between atoms: O_16  and  C_17
REMARK                            x       y       z     vdW  Elec       q    Type
REMARK                         _______ _______ _______ _____ _____    ______ ____
ROOT
ATOM      1  N   UNL     1      43.710   4.836   9.792  0.00  0.00    +0.000 N 
ATOM      2  H   UNL     1      42.789   4.762   9.365  0.00  0.00    +0.000 HD
ENDROOT
BRANCH   1   6
ATOM      3  C   UNL     1      46.230   2.046   7.994  0.00  0.00    +0.000 A 
ATOM      4  C   UNL     1      46.405   3.381   7.661  0.00  0.00    +0.000 A 
ATOM      5  C   UNL     1      45.584   4.333   8.271  0.00  0.00    +0.000 A 
ATOM      6  C   UNL     1      44.627   3.952   9.213  0.00  0.00    +0.000 A 
ATOM      7  C   UNL     1      44.522   2.571   9.444  0.00  0.00    +0.000 A 
ATOM      8  N   UNL     1      45.297   1.608   8.881  0.00  0.00    +0.000 NA
BRANCH   3  10
ATOM      9  N   UNL     1      46.784  -0.293   7.663  0.00  0.00    +0.000 N 
ATOM     10  C   UNL     1      47.081   1.003   7.336  0.00  0.00    +0.000 C 
ATOM     11  O   UNL     1      47.978   1.277   6.547  0.00  0.00    +0.000 OA
ATOM     12  H   UNL     1      47.295  -1.048   7.232  0.00  0.00    +0.000 HD
ATOM     13  H   UNL     1      46.016  -0.486   8.299  0.00  0.00    +0.000 HD
ENDBRANCH   3  10
ENDBRANCH   1   6
BRANCH   1  14
ATOM     14  C   UNL     1      43.643   4.956  11.255  0.00  0.00    +0.000 C 
BRANCH  14  15
ATOM     15  C   UNL     1      45.050   5.188  11.826  0.00  0.00    +0.000 C 
BRANCH  15  16
ATOM     16  C   UNL     1      45.361   6.648  12.055  0.00  0.00    +0.000 A 
ATOM     17  C   UNL     1      44.563   7.639  11.470  0.00  0.00    +0.000 A 
ATOM     18  C   UNL     1      44.837   8.990  11.693  0.00  0.00    +0.000 A 
ATOM     19  C   UNL     1      45.917   9.368  12.492  0.00  0.00    +0.000 A 
ATOM     20  C   UNL     1      46.730   8.393  13.065  0.00  0.00    +0.000 A 
ATOM     21  C   UNL     1      46.446   7.039  12.852  0.00  0.00    +0.000 A 
BRANCH  20  22
ATOM     22  O   UNL     1      47.801   8.656  13.884  0.00  0.00    +0.000 OA
BRANCH  22  23
ATOM     23  C   UNL     1      49.087   8.929  13.281  0.00  0.00    +0.000 C 
ATOM     24  C   UNL     1      49.146   8.941  11.732  0.00  0.00    +0.000 C 
ATOM     25  C   UNL     1      50.453   8.139  11.816  0.00  0.00    +0.000 C 
ATOM     26  C   UNL     1      50.042   7.710  13.232  0.00  0.00    +0.000 C 
ENDBRANCH  22  23
ENDBRANCH  20  22
ENDBRANCH  15  16
ENDBRANCH  14  15
ENDBRANCH   1  14
TORSDOF 7
ENDMDL
MODEL 6
REMARK VINA RESULT:    -6.991      3.093      7.519
REMARK INTER + INTRA:         -10.784
REMARK INTER:                  -9.775
REMARK INTRA:                  -1.009
REMARK UNBOUND:                -0.933
REMARK  Name = 
REMARK  7 active torsions:
REMARK  status: ('A' for Active; 'I' for Inactive)
REMARK    1  A    between atoms: C_2  and  C_4
REMARK    2  A    between atoms: C_7  and  N_8
REMARK    3  A    between atoms: N_8  and  C_9
REMARK    4  A    between atoms: C_9  and  C_10
REMARK    5  A    between atoms: C_10  and  C_11
REMARK    6  A    between atoms: C_15  and  O_16
REMARK    7  A    between atoms: O_16  and  C_17
REMARK                            x       y       z     vdW  Elec       q    Type
REMARK                         _______ _______ _______ _____ _____    ______ ____
ROOT
ATOM      1  N   UNL     1      46.974   6.719  12.708  0.00  0.00    +0.000 N 
ATOM      2  H   UNL     1      47.416   6.397  11.849  0.00  0.00    +0.000 HD
ENDROOT
BRANCH   1   6
ATOM      3  C   UNL     1      48.117   4.680  16.159  0.00  0.00    +0.000 A 
ATOM      4  C   UNL     1      47.137   4.104  15.364  0.00  0.00    +0.000 A 
ATOM      5  C   UNL     1      46.757   4.761  14.191  0.00  0.00    +0.000 A 
ATOM      6  C   UNL     1      47.368   5.959  13.815  0.00  0.00    +0.000 A 
ATOM      7  C   UNL     1      48.322   6.460  14.715  0.00  0.00    +0.000 A 
ATOM      8  N   UNL     1      48.727   5.859  15.863  0.00  0.00    +0.000 NA
BRANCH   3  10
ATOM      9  N   UNL     1      47.496   3.581  18.231  0.00  0.00    +0.000 N 
ATOM     10  C   UNL     1      48.524   4.007  17.434  0.00  0.00    +0.000 C 
ATOM     11  O   UNL     1      49.696   3.833  17.748  0.00  0.00    +0.000 OA
ATOM     12  H   UNL     1      47.698   3.090  19.088  0.00  0.00    +0.000 HD
ATOM     13  H   UNL     1      46.537   3.716  17.926  0.00  0.00    +0.000 HD
ENDBRANCH   3  10
ENDBRANCH   1   6
BRANCH   1  14
ATOM     14  C   UNL     1      45.554   7.047  12.521  0.00  0.00    +0.000 C 
BRANCH  14  15
ATOM     15  C   UNL     1      45.121   6.700  11.089  0.00  0.00    +0.000 C 
BRANCH  15  16
ATOM     16  C   UNL     1      44.702   5.258  10.932  0.00  0.00    +0.000 A 
ATOM     17  C   UNL     1      43.984   4.617  11.950  0.00  0.00    +0.000 A 
ATOM     18  C   UNL     1      43.580   3.289  11.801  0.00  0.00    +0.000 A 
ATOM     19  C   UNL     1      43.898   2.580  10.642  0.00  0.00    +0.000 A 
ATOM     20  C   UNL     1      44.628   3.199   9.630  0.00  0.00    +0.000 A 
ATOM     21  C   UNL     1      45.020   4.535   9.773  0.00  0.00    +0.000 A 
BRANCH  20  22
ATOM     22  O   UNL     1      44.973   2.602   8.442  0.00  0.00    +0.000 OA
BRANCH  22  23
ATOM     23  C   UNL     1      46.334   2.726   7.970  0.00  0.00    +0.000 C 
ATOM     24  C   UNL     1      46.529   3.298   6.542  0.00  0.00    +0.000 C 
ATOM     25  C   UNL     1      47.580   2.205   6.291  0.00  0.00    +0.000 C 
ATOM     26  C   UNL     1      46.951   1.406   7.443  0.00  0.00    +0.000 C 
ENDBRANCH  22  23
ENDBRANCH  20  22
ENDBRANCH  15  16
ENDBRANCH  14  15
ENDBRANCH   1  14
TORSDOF 7
ENDMDL
MODEL 7
REMARK VINA RESULT:    -6.636      3.971      7.936
REMARK INTER + INTRA:         -10.284
REMARK INTER:                  -9.652
REMARK INTRA:                  -0.632
REMARK UNBOUND:                -0.933
REMARK  Name = 
REMARK  7 active torsions:
REMARK  status: ('A' for Active; 'I' for Inactive)
REMARK    1  A    between atoms: C_2  and  C_4
REMARK    2  A    between atoms: C_7  and  N_8
REMARK    3  A    between atoms: N_8  and  C_9
REMARK    4  A    between atoms: C_9  and  C_10
REMARK    5  A    between atoms: C_10  and  C_11
REMARK    6  A    between atoms: C_15  and  O_16
REMARK    7  A    between atoms: O_16  and  C_17
REMARK                            x       y       z     vdW  Elec       q    Type
REMARK                         _______ _______ _______ _____ _____    ______ ____
ROOT
ATOM      1  N   UNL     1      47.332   4.617  16.191  0.00  0.00    +0.000 N 
ATOM      2  H   UNL     1      47.587   5.582  15.994  0.00  0.00    +0.000 HD
ENDROOT
BRANCH   1   6
ATOM      3  C   UNL     1      50.645   2.319  17.245  0.00  0.00    +0.000 A 
ATOM      4  C   UNL     1      50.557   3.601  17.767  0.00  0.00    +0.000 A 
ATOM      5  C   UNL     1      49.442   4.378  17.443  0.00  0.00    +0.000 A 
ATOM      6  C   UNL     1      48.427   3.866  16.633  0.00  0.00    +0.000 A 
ATOM      7  C   UNL     1      48.643   2.570  16.139  0.00  0.00    +0.000 A 
ATOM      8  N   UNL     1      49.705   1.775  16.426  0.00  0.00    +0.000 NA
BRANCH   3  10
ATOM      9  N   UNL     1      51.571   0.235  18.075  0.00  0.00    +0.000 N 
ATOM     10  C   UNL     1      51.842   1.474  17.558  0.00  0.00    +0.000 C 
ATOM     11  O   UNL     1      52.992   1.849  17.357  0.00  0.00    +0.000 OA
ATOM     12  H   UNL     1      52.328  -0.399  18.277  0.00  0.00    +0.000 HD
ATOM     13  H   UNL     1      50.606  -0.054  18.202  0.00  0.00    +0.000 HD
ENDBRANCH   3  10
ENDBRANCH   1   6
BRANCH   1  14
ATOM     14  C   UNL     1      46.430   4.055  15.177  0.00  0.00    +0.000 C 
BRANCH  14  15
ATOM     15  C   UNL     1      46.476   4.912  13.902  0.00  0.00    +0.000 C 
BRANCH  15  16
ATOM     16  C   UNL     1      45.317   4.647  12.971  0.00  0.00    +0.000 A 
ATOM     17  C   UNL     1      44.103   5.325  13.144  0.00  0.00    +0.000 A 
ATOM     18  C   UNL     1      43.035   5.095  12.275  0.00  0.00    +0.000 A 
ATOM     19  C   UNL     1      43.160   4.178  11.230  0.00  0.00    +0.000 A 
ATOM     20  C   UNL     1      44.355   3.483  11.058  0.00  0.00    +0.000 A 
ATOM     21  C   UNL     1      45.430   3.724  11.921  0.00  0.00    +0.000 A 
BRANCH  20  22
ATOM     22  O   UNL     1      44.591   2.579  10.052  0.00  0.00    +0.000 OA
BRANCH  22  23
ATOM     23  C   UNL     1      45.729   2.784   9.184  0.00  0.00    +0.000 C 
ATOM     24  C   UNL     1      45.493   3.634   7.909  0.00  0.00    +0.000 C 
ATOM     25  C   UNL     1      46.317   2.605   7.119  0.00  0.00    +0.000 C 
ATOM     26  C   UNL     1      46.038   1.594   8.241  0.00  0.00    +0.000 C 
ENDBRANCH  22  23
ENDBRANCH  20  22
ENDBRANCH  15  16
ENDBRANCH  14  15
ENDBRANCH   1  14
TORSDOF 7
ENDMDL
MODEL 8
REMARK VINA RESULT:    -6.583      3.453      7.911
REMARK INTER + INTRA:         -10.209
REMARK INTER:                  -9.771
REMARK INTRA:                  -0.438
REMARK UNBOUND:                -0.933
REMARK  Name = 
REMARK  7 active torsions:
REMARK  status: ('A' for Active; 'I' for Inactive)
REMARK    1  A    between atoms: C_2  and  C_4
REMARK    2  A    between atoms: C_7  and  N_8
REMARK    3  A    between atoms: N_8  and  C_9
REMARK    4  A    between atoms: C_9  and  C_10
REMARK    5  A    between atoms: C_10  and  C_11
REMARK    6  A    between atoms: C_15  and  O_16
REMARK    7  A    between atoms: O_16  and  C_17
REMARK                            x       y       z     vdW  Elec       q    Type
REMARK                         _______ _______ _______ _____ _____    ______ ____
ROOT
ATOM      1  N   UNL     1      47.056   5.253  13.457  0.00  0.00    +0.000 N 
ATOM      2  H   UNL     1      46.131   4.862  13.292  0.00  0.00    +0.000 HD
ENDROOT
BRANCH   1   6
ATOM      3  C   UNL     1      48.354   4.524  17.350  0.00  0.00    +0.000 A 
ATOM      4  C   UNL     1      48.755   5.707  16.748  0.00  0.00    +0.000 A 
ATOM      5  C   UNL     1      48.311   5.980  15.451  0.00  0.00    +0.000 A 
ATOM      6  C   UNL     1      47.462   5.093  14.787  0.00  0.00    +0.000 A 
ATOM      7  C   UNL     1      47.151   3.916  15.485  0.00  0.00    +0.000 A 
ATOM      8  N   UNL     1      47.553   3.606  16.745  0.00  0.00    +0.000 NA
BRANCH   3  10
ATOM      9  N   UNL     1      48.299   3.068  19.290  0.00  0.00    +0.000 N 
ATOM     10  C   UNL     1      48.835   4.197  18.731  0.00  0.00    +0.000 C 
ATOM     11  O   UNL     1      49.662   4.879  19.325  0.00  0.00    +0.000 OA
ATOM     12  H   UNL     1      48.604   2.770  20.204  0.00  0.00    +0.000 HD
ATOM     13  H   UNL     1      47.638   2.511  18.758  0.00  0.00    +0.000 HD
ENDBRANCH   3  10
ENDBRANCH   1   6
BRANCH   1  14
ATOM     14  C   UNL     1      47.244   6.550  12.793  0.00  0.00    +0.000 C 
BRANCH  14  15
ATOM     15  C   UNL     1      45.914   7.027  12.189  0.00  0.00    +0.000 C 
BRANCH  15  16
ATOM     16  C   UNL     1      45.292   6.014  11.257  0.00  0.00    +0.000 A 
ATOM     17  C   UNL     1      44.089   5.385  11.601  0.00  0.00    +0.000 A 
ATOM     18  C   UNL     1      43.503   4.460  10.735  0.00  0.00    +0.000 A 
ATOM     19  C   UNL     1      44.115   4.144   9.521  0.00  0.00    +0.000 A 
ATOM     20  C   UNL     1      45.321   4.748   9.175  0.00  0.00    +0.000 A 
ATOM     21  C   UNL     1      45.901   5.686  10.037  0.00  0.00    +0.000 A 
BRANCH  20  22
ATOM     22  O   UNL     1      45.993   4.527   7.998  0.00  0.00    +0.000 OA
BRANCH  22  23
ATOM     23  C   UNL     1      45.937   3.210   7.402  0.00  0.00    +0.000 C 
ATOM     24  C   UNL     1      46.123   2.002   8.355  0.00  0.00    +0.000 C 
ATOM     25  C   UNL     1      47.047   1.366   7.305  0.00  0.00    +0.000 C 
ATOM     26  C   UNL     1      47.250   2.767   6.708  0.00  0.00    +0.000 C 
ENDBRANCH  22  23
ENDBRANCH  20  22
ENDBRANCH  15  16
ENDBRANCH  14  15
ENDBRANCH   1  14
TORSDOF 7
ENDMDL
MODEL 9
REMARK VINA RESULT:    -6.279      4.182      8.377
REMARK INTER + INTRA:          -9.781
REMARK INTER:                  -9.308
REMARK INTRA:                  -0.473
REMARK UNBOUND:                -0.933
REMARK  Name = 
REMARK  7 active torsions:
REMARK  status: ('A' for Active; 'I' for Inactive)
REMARK    1  A    between atoms: C_2  and  C_4
REMARK    2  A    between atoms: C_7  and  N_8
REMARK    3  A    between atoms: N_8  and  C_9
REMARK    4  A    between atoms: C_9  and  C_10
REMARK    5  A    between atoms: C_10  and  C_11
REMARK    6  A    between atoms: C_15  and  O_16
REMARK    7  A    between atoms: O_16  and  C_17
REMARK                            x       y       z     vdW  Elec       q    Type
REMARK                         _______ _______ _______ _____ _____    ______ ____
ROOT
ATOM      1  N   UNL     1      46.820   3.710  15.261  0.00  0.00    +0.000 N 
ATOM      2  H   UNL     1      45.825   3.858  15.412  0.00  0.00    +0.000 HD
ENDROOT
BRANCH   1   6
ATOM      3  C   UNL     1      49.212   4.554  18.569  0.00  0.00    +0.000 A 
ATOM      4  C   UNL     1      49.097   5.531  17.591  0.00  0.00    +0.000 A 
ATOM      5  C   UNL     1      48.281   5.275  16.485  0.00  0.00    +0.000 A 
ATOM      6  C   UNL     1      47.578   4.073  16.381  0.00  0.00    +0.000 A 
ATOM      7  C   UNL     1      47.799   3.151  17.415  0.00  0.00    +0.000 A 
ATOM      8  N   UNL     1      48.578   3.353  18.510  0.00  0.00    +0.000 NA
BRANCH   3  10
ATOM      9  N   UNL     1      49.546   4.510  20.971  0.00  0.00    +0.000 N 
ATOM     10  C   UNL     1      50.100   4.794  19.752  0.00  0.00    +0.000 C 
ATOM     11  O   UNL     1      51.250   5.206  19.648  0.00  0.00    +0.000 OA
ATOM     12  H   UNL     1      50.098   4.616  21.808  0.00  0.00    +0.000 HD
ATOM     13  H   UNL     1      48.600   4.144  21.019  0.00  0.00    +0.000 HD
ENDBRANCH   3  10
ENDBRANCH   1   6
BRANCH   1  14
ATOM     14  C   UNL     1      47.255   4.132  13.923  0.00  0.00    +0.000 C 
BRANCH  14  15
ATOM     15  C   UNL     1      46.472   5.380  13.487  0.00  0.00    +0.000 C 
BRANCH  15  16
ATOM     16  C   UNL     1      45.242   5.050  12.674  0.00  0.00    +0.000 A 
ATOM     17  C   UNL     1      44.127   5.896  12.707  0.00  0.00    +0.000 A 
ATOM     18  C   UNL     1      42.995   5.603  11.944  0.00  0.00    +0.000 A 
ATOM     19  C   UNL     1      42.957   4.456  11.148  0.00  0.00    +0.000 A 
ATOM     20  C   UNL     1      44.052   3.596  11.121  0.00  0.00    +0.000 A 
ATOM     21  C   UNL     1      45.192   3.898  11.875  0.00  0.00    +0.000 A 
BRANCH  20  22
ATOM     22  O   UNL     1      44.128   2.457  10.357  0.00  0.00    +0.000 OA
BRANCH  22  23
ATOM     23  C   UNL     1      44.456   2.580   8.954  0.00  0.00    +0.000 C 
ATOM     24  C   UNL     1      45.863   2.099   8.519  0.00  0.00    +0.000 C 
ATOM     25  C   UNL     1      45.984   3.361   7.652  0.00  0.00    +0.000 C 
ATOM     26  C   UNL     1      44.894   4.003   8.523  0.00  0.00    +0.000 C 
ENDBRANCH  22  23
ENDBRANCH  20  22
ENDBRANCH  15  16
ENDBRANCH  14  15
ENDBRANCH   1  14
TORSDOF 7
ENDMDL
