MODEL 1
REMARK VINA RESULT:    -8.722      0.000      0.000
REMARK INTER + INTRA:         -11.216
REMARK INTER:                 -11.272
REMARK INTRA:                   0.056
REMARK UNBOUND:                 0.056
REMARK  Name = 
REMARK  8 active torsions:
REMARK  status: ('A' for Active; 'I' for Inactive)
REMARK    1  A    between atoms: C_1  and  O_2
REMARK    2  A    between atoms: O_2  and  C_3
REMARK    3  A    between atoms: C_5  and  C_6
REMARK    4  A    between atoms: C_6  and  C_7
REMARK    5  A    between atoms: C_6  and  N_8
REMARK    6  A    between atoms: N_8  and  C_9
REMARK    7  A    between atoms: C_12  and  C_13
REMARK    8  A    between atoms: C_17  and  C_18
REMARK                            x       y       z     vdW  Elec       q    Type
REMARK                         _______ _______ _______ _____ _____    ______ ____
ROOT
ATOM      1  N   UNL     1      44.039   5.055   9.906  0.00  0.00    +0.000 N 
ATOM      2  H   UNL     1      44.364   6.015   9.847  0.00  0.00    +0.000 HD
ENDROOT
BRANCH   1   3
ATOM      3  C   UNL     1      44.905   4.249   9.139  0.00  0.00    +0.000 A 
ATOM      4  N   UNL     1      45.793   4.840   8.310  0.00  0.00    +0.000 NA
ATOM      5  C   UNL     1      46.627   4.066   7.567  0.00  0.00    +0.000 A 
ATOM      6  C   UNL     1      46.653   2.688   7.612  0.00  0.00    +0.000 A 
ATOM      7  C   UNL     1      45.760   2.078   8.490  0.00  0.00    +0.000 A 
ATOM      8  C   UNL     1      44.855   2.849   9.250  0.00  0.00    +0.000 A 
ATOM      9  C   UNL     1      43.938   2.118  10.187  0.00  0.00    +0.000 C 
BRANCH   6  10
ATOM     10  C   UNL     1      47.560   1.841   6.794  0.00  0.00    +0.000 C 
ATOM     11  N   UNL     1      48.698   2.389   6.275  0.00  0.00    +0.000 N 
ATOM     12  O   UNL     1      47.291   0.666   6.567  0.00  0.00    +0.000 OA
ATOM     13  H   UNL     1      48.975   3.356   6.345  0.00  0.00    +0.000 HD
ATOM     14  H   UNL     1      49.263   1.783   5.696  0.00  0.00    +0.000 HD
ENDBRANCH   6  10
ENDBRANCH   1   3
BRANCH   1  15
ATOM     15  C   UNL     1      43.849   4.640  11.305  0.00  0.00    +0.000 C 
ATOM     16  C   UNL     1      42.655   5.370  11.927  0.00  0.00    +0.000 C 
BRANCH  15  19
ATOM     17  C   UNL     1      46.870   4.224  13.615  0.00  0.00    +0.000 A 
ATOM     18  C   UNL     1      45.658   3.943  12.997  0.00  0.00    +0.000 A 
ATOM     19  C   UNL     1      45.110   4.890  12.122  0.00  0.00    +0.000 A 
ATOM     20  C   UNL     1      45.805   6.095  11.947  0.00  0.00    +0.000 A 
ATOM     21  C   UNL     1      47.007   6.283  12.608  0.00  0.00    +0.000 A 
ATOM     22  N   UNL     1      47.556   5.375  13.435  0.00  0.00    +0.000 NA
BRANCH  17  24
ATOM     23  C   UNL     1      47.498   3.679  15.801  0.00  0.00    +0.000 C 
ATOM     24  O   UNL     1      47.393   3.251  14.444  0.00  0.00    +0.000 OA
ENDBRANCH  17  24
ENDBRANCH  15  19
ENDBRANCH   1  15
TORSDOF 5
ENDMDL
MODEL 2
REMARK VINA RESULT:    -8.231      1.823      2.564
REMARK INTER + INTRA:         -10.581
REMARK INTER:                 -10.382
REMARK INTRA:                  -0.199
REMARK UNBOUND:                 0.056
REMARK  Name = 
REMARK  8 active torsions:
REMARK  status: ('A' for Active; 'I' for Inactive)
REMARK    1  A    between atoms: C_1  and  O_2
REMARK    2  A    between atoms: O_2  and  C_3
REMARK    3  A    between atoms: C_5  and  C_6
REMARK    4  A    between atoms: C_6  and  C_7
REMARK    5  A    between atoms: C_6  and  N_8
REMARK    6  A    between atoms: N_8  and  C_9
REMARK    7  A    between atoms: C_12  and  C_13
REMARK    8  A    between atoms: C_17  and  C_18
REMARK                            x       y       z     vdW  Elec       q    Type
REMARK                         _______ _______ _______ _____ _____    ______ ____
ROOT
ATOM      1  N   UNL     1      43.841   5.063   9.793  0.00  0.00    +0.000 N 
ATOM      2  H   UNL     1      44.042   6.007   9.477  0.00  0.00    +0.000 HD
ENDROOT
BRANCH   1   3
ATOM      3  C   UNL     1      44.709   4.179   9.120  0.00  0.00    +0.000 A 
ATOM      4  N   UNL     1      45.549   4.668   8.182  0.00  0.00    +0.000 NA
ATOM      5  C   UNL     1      46.385   3.819   7.529  0.00  0.00    +0.000 A 
ATOM      6  C   UNL     1      46.460   2.463   7.773  0.00  0.00    +0.000 A 
ATOM      7  C   UNL     1      45.617   1.962   8.763  0.00  0.00    +0.000 A 
ATOM      8  C   UNL     1      44.711   2.809   9.435  0.00  0.00    +0.000 A 
ATOM      9  C   UNL     1      43.850   2.197  10.502  0.00  0.00    +0.000 C 
BRANCH   6  10
ATOM     10  C   UNL     1      47.369   1.532   7.054  0.00  0.00    +0.000 C 
ATOM     11  N   UNL     1      48.487   2.028   6.446  0.00  0.00    +0.000 N 
ATOM     12  O   UNL     1      47.118   0.333   6.987  0.00  0.00    +0.000 OA
ATOM     13  H   UNL     1      48.746   3.000   6.384  0.00  0.00    +0.000 HD
ATOM     14  H   UNL     1      49.054   1.361   5.940  0.00  0.00    +0.000 HD
ENDBRANCH   6  10
ENDBRANCH   1   3
BRANCH   1  15
ATOM     15  C   UNL     1      43.852   4.976  11.262  0.00  0.00    +0.000 C 
ATOM     16  C   UNL     1      42.508   5.432  11.839  0.00  0.00    +0.000 C 
BRANCH  15  19
ATOM     17  C   UNL     1      46.055   7.875  12.436  0.00  0.00    +0.000 A 
ATOM     18  C   UNL     1      45.032   7.205  11.779  0.00  0.00    +0.000 A 
ATOM     19  C   UNL     1      44.989   5.805  11.846  0.00  0.00    +0.000 A 
ATOM     20  C   UNL     1      46.013   5.155  12.548  0.00  0.00    +0.000 A 
ATOM     21  C   UNL     1      46.992   5.912  13.171  0.00  0.00    +0.000 A 
ATOM     22  N   UNL     1      47.034   7.256  13.133  0.00  0.00    +0.000 NA
BRANCH  17  24
ATOM     23  C   UNL     1      44.814   9.775  11.870  0.00  0.00    +0.000 C 
ATOM     24  O   UNL     1      46.042   9.256  12.374  0.00  0.00    +0.000 OA
ENDBRANCH  17  24
ENDBRANCH  15  19
ENDBRANCH   1  15
TORSDOF 5
ENDMDL
MODEL 3
REMARK VINA RESULT:    -8.172      1.107      1.885
REMARK INTER + INTRA:         -10.504
REMARK INTER:                 -10.395
REMARK INTRA:                  -0.109
REMARK UNBOUND:                 0.056
REMARK  Name = 
REMARK  8 active torsions:
REMARK  status: ('A' for Active; 'I' for Inactive)
REMARK    1  A    between atoms: C_1  and  O_2
REMARK    2  A    between atoms: O_2  and  C_3
REMARK    3  A    between atoms: C_5  and  C_6
REMARK    4  A    between atoms: C_6  and  C_7
REMARK    5  A    between atoms: C_6  and  N_8
REMARK    6  A    between atoms: N_8  and  C_9
REMARK    7  A    between atoms: C_12  and  C_13
REMARK    8  A    between atoms: C_17  and  C_18
REMARK                            x       y       z     vdW  Elec       q    Type
REMARK                         _______ _______ _______ _____ _____    ______ ____
ROOT
ATOM      1  N   UNL     1      44.029   5.009   9.939  0.00  0.00    +0.000 N 
ATOM      2  H   UNL     1      44.317   5.981   9.874  0.00  0.00    +0.000 HD
ENDROOT
BRANCH   1   3
ATOM      3  C   UNL     1      44.904   4.237   9.147  0.00  0.00    +0.000 A 
ATOM      4  N   UNL     1      45.798   4.864   8.352  0.00  0.00    +0.000 NA
ATOM      5  C   UNL     1      46.642   4.123   7.586  0.00  0.00    +0.000 A 
ATOM      6  C   UNL     1      46.671   2.744   7.575  0.00  0.00    +0.000 A 
ATOM      7  C   UNL     1      45.771   2.096   8.418  0.00  0.00    +0.000 A 
ATOM      8  C   UNL     1      44.857   2.834   9.201  0.00  0.00    +0.000 A 
ATOM      9  C   UNL     1      43.933   2.063  10.098  0.00  0.00    +0.000 C 
BRANCH   6  10
ATOM     10  C   UNL     1      47.588   1.934   6.731  0.00  0.00    +0.000 C 
ATOM     11  N   UNL     1      48.712   2.515   6.217  0.00  0.00    +0.000 N 
ATOM     12  O   UNL     1      47.340   0.759   6.479  0.00  0.00    +0.000 OA
ATOM     13  H   UNL     1      48.970   3.486   6.307  0.00  0.00    +0.000 HD
ATOM     14  H   UNL     1      49.284   1.933   5.621  0.00  0.00    +0.000 HD
ENDBRANCH   6  10
ENDBRANCH   1   3
BRANCH   1  15
ATOM     15  C   UNL     1      43.889   4.584  11.340  0.00  0.00    +0.000 C 
ATOM     16  C   UNL     1      42.720   5.312  12.011  0.00  0.00    +0.000 C 
BRANCH  15  19
ATOM     17  C   UNL     1      46.893   6.228  13.047  0.00  0.00    +0.000 A 
ATOM     18  C   UNL     1      45.777   6.090  12.232  0.00  0.00    +0.000 A 
ATOM     19  C   UNL     1      45.180   4.827  12.112  0.00  0.00    +0.000 A 
ATOM     20  C   UNL     1      45.771   3.759  12.801  0.00  0.00    +0.000 A 
ATOM     21  C   UNL     1      46.884   3.997  13.590  0.00  0.00    +0.000 A 
ATOM     22  N   UNL     1      47.456   5.208  13.730  0.00  0.00    +0.000 NA
BRANCH  17  24
ATOM     23  C   UNL     1      46.473   8.526  12.936  0.00  0.00    +0.000 C 
ATOM     24  O   UNL     1      47.431   7.496  13.163  0.00  0.00    +0.000 OA
ENDBRANCH  17  24
ENDBRANCH  15  19
ENDBRANCH   1  15
TORSDOF 5
ENDMDL
MODEL 4
REMARK VINA RESULT:    -8.057      1.767      1.956
REMARK INTER + INTRA:         -10.355
REMARK INTER:                 -10.217
REMARK INTRA:                  -0.138
REMARK UNBOUND:                 0.056
REMARK  Name = 
REMARK  8 active torsions:
REMARK  status: ('A' for Active; 'I' for Inactive)
REMARK    1  A    between atoms: C_1  and  O_2
REMARK    2  A    between atoms: O_2  and  C_3
REMARK    3  A    between atoms: C_5  and  C_6
REMARK    4  A    between atoms: C_6  and  C_7
REMARK    5  A    between atoms: C_6  and  N_8
REMARK    6  A    between atoms: N_8  and  C_9
REMARK    7  A    between atoms: C_12  and  C_13
REMARK    8  A    between atoms: C_17  and  C_18
REMARK                            x       y       z     vdW  Elec       q    Type
REMARK                         _______ _______ _______ _____ _____    ______ ____
ROOT
ATOM      1  N   UNL     1      43.960   5.157   9.858  0.00  0.00    +0.000 N 
ATOM      2  H   UNL     1      44.233   6.051   9.462  0.00  0.00    +0.000 HD
ENDROOT
BRANCH   1   3
ATOM      3  C   UNL     1      44.725   4.148   9.238  0.00  0.00    +0.000 A 
ATOM      4  N   UNL     1      45.589   4.487   8.256  0.00  0.00    +0.000 NA
ATOM      5  C   UNL     1      46.327   3.517   7.654  0.00  0.00    +0.000 A 
ATOM      6  C   UNL     1      46.275   2.180   7.993  0.00  0.00    +0.000 A 
ATOM      7  C   UNL     1      45.409   1.834   9.027  0.00  0.00    +0.000 A 
ATOM      8  C   UNL     1      44.602   2.810   9.650  0.00  0.00    +0.000 A 
ATOM      9  C   UNL     1      43.707   2.360  10.768  0.00  0.00    +0.000 C 
BRANCH   6  10
ATOM     10  C   UNL     1      47.076   1.118   7.330  0.00  0.00    +0.000 C 
ATOM     11  N   UNL     1      46.819  -0.191   7.620  0.00  0.00    +0.000 N 
ATOM     12  O   UNL     1      47.971   1.404   6.540  0.00  0.00    +0.000 OA
ATOM     13  H   UNL     1      46.157  -0.528   8.301  0.00  0.00    +0.000 HD
ATOM     14  H   UNL     1      47.414  -0.874   7.170  0.00  0.00    +0.000 HD
ENDBRANCH   6  10
ENDBRANCH   1   3
BRANCH   1  15
ATOM     15  C   UNL     1      44.010   5.186  11.328  0.00  0.00    +0.000 C 
ATOM     16  C   UNL     1      42.649   5.587  11.906  0.00  0.00    +0.000 C 
BRANCH  15  19
ATOM     17  C   UNL     1      47.313   6.655  12.579  0.00  0.00    +0.000 A 
ATOM     18  C   UNL     1      46.353   5.704  12.257  0.00  0.00    +0.000 A 
ATOM     19  C   UNL     1      45.095   6.137  11.816  0.00  0.00    +0.000 A 
ATOM     20  C   UNL     1      44.865   7.518  11.760  0.00  0.00    +0.000 A 
ATOM     21  C   UNL     1      45.886   8.389  12.102  0.00  0.00    +0.000 A 
ATOM     22  N   UNL     1      47.105   7.988  12.507  0.00  0.00    +0.000 NA
BRANCH  17  24
ATOM     23  C   UNL     1      49.410   7.225  13.445  0.00  0.00    +0.000 C 
ATOM     24  O   UNL     1      48.551   6.187  12.978  0.00  0.00    +0.000 OA
ENDBRANCH  17  24
ENDBRANCH  15  19
ENDBRANCH   1  15
TORSDOF 5
ENDMDL
MODEL 5
REMARK VINA RESULT:    -7.936      1.643      2.518
REMARK INTER + INTRA:         -10.199
REMARK INTER:                  -9.278
REMARK INTRA:                  -0.922
REMARK UNBOUND:                 0.056
REMARK  Name = 
REMARK  8 active torsions:
REMARK  status: ('A' for Active; 'I' for Inactive)
REMARK    1  A    between atoms: C_1  and  O_2
REMARK    2  A    between atoms: O_2  and  C_3
REMARK    3  A    between atoms: C_5  and  C_6
REMARK    4  A    between atoms: C_6  and  C_7
REMARK    5  A    between atoms: C_6  and  N_8
REMARK    6  A    between atoms: N_8  and  C_9
REMARK    7  A    between atoms: C_12  and  C_13
REMARK    8  A    between atoms: C_17  and  C_18
REMARK                            x       y       z     vdW  Elec       q    Type
REMARK                         _______ _______ _______ _____ _____    ______ ____
ROOT
ATOM      1  N   UNL     1      43.685   4.577  10.144  0.00  0.00    +0.000 N 
ATOM      2  H   UNL     1      43.993   5.509   9.886  0.00  0.00    +0.000 HD
ENDROOT
BRANCH   1   3
ATOM      3  C   UNL     1      44.495   3.642   9.467  0.00  0.00    +0.000 A 
ATOM      4  N   UNL     1      44.132   2.340   9.461  0.00  0.00    +0.000 NA
ATOM      5  C   UNL     1      44.911   1.435   8.812  0.00  0.00    +0.000 A 
ATOM      6  C   UNL     1      46.062   1.756   8.123  0.00  0.00    +0.000 A 
ATOM      7  C   UNL     1      46.420   3.102   8.101  0.00  0.00    +0.000 A 
ATOM      8  C   UNL     1      45.653   4.063   8.793  0.00  0.00    +0.000 A 
ATOM      9  C   UNL     1      46.094   5.495   8.706  0.00  0.00    +0.000 C 
BRANCH   6  10
ATOM     10  C   UNL     1      46.919   0.765   7.419  0.00  0.00    +0.000 C 
ATOM     11  N   UNL     1      46.693  -0.568   7.611  0.00  0.00    +0.000 N 
ATOM     12  O   UNL     1      47.832   1.130   6.685  0.00  0.00    +0.000 OA
ATOM     13  H   UNL     1      46.018  -0.970   8.242  0.00  0.00    +0.000 HD
ATOM     14  H   UNL     1      47.325  -1.201   7.139  0.00  0.00    +0.000 HD
ENDBRANCH   6  10
ENDBRANCH   1   3
BRANCH   1  15
ATOM     15  C   UNL     1      43.612   4.422  11.605  0.00  0.00    +0.000 C 
ATOM     16  C   UNL     1      42.605   5.410  12.202  0.00  0.00    +0.000 C 
BRANCH  15  19
ATOM     17  C   UNL     1      46.837   5.942  12.992  0.00  0.00    +0.000 A 
ATOM     18  C   UNL     1      45.639   5.850  12.296  0.00  0.00    +0.000 A 
ATOM     19  C   UNL     1      44.984   4.612  12.240  0.00  0.00    +0.000 A 
ATOM     20  C   UNL     1      45.600   3.520  12.866  0.00  0.00    +0.000 A 
ATOM     21  C   UNL     1      46.797   3.712  13.535  0.00  0.00    +0.000 A 
ATOM     22  N   UNL     1      47.427   4.898  13.615  0.00  0.00    +0.000 NA
BRANCH  17  24
ATOM     23  C   UNL     1      46.488   8.250  13.144  0.00  0.00    +0.000 C 
ATOM     24  O   UNL     1      47.434   7.187  13.051  0.00  0.00    +0.000 OA
ENDBRANCH  17  24
ENDBRANCH  15  19
ENDBRANCH   1  15
TORSDOF 5
ENDMDL
MODEL 6
REMARK VINA RESULT:    -7.231      2.390      5.911
REMARK INTER + INTRA:          -9.288
REMARK INTER:                  -8.340
REMARK INTRA:                  -0.947
REMARK UNBOUND:                 0.056
REMARK  Name = 
REMARK  8 active torsions:
REMARK  status: ('A' for Active; 'I' for Inactive)
REMARK    1  A    between atoms: C_1  and  O_2
REMARK    2  A    between atoms: O_2  and  C_3
REMARK    3  A    between atoms: C_5  and  C_6
REMARK    4  A    between atoms: C_6  and  C_7
REMARK    5  A    between atoms: C_6  and  N_8
REMARK    6  A    between atoms: N_8  and  C_9
REMARK    7  A    between atoms: C_12  and  C_13
REMARK    8  A    between atoms: C_17  and  C_18
REMARK                            x       y       z     vdW  Elec       q    Type
REMARK                         _______ _______ _______ _____ _____    ______ ____
ROOT
ATOM      1  N   UNL     1      44.515   5.674  12.776  0.00  0.00    +0.000 N 
ATOM      2  H   UNL     1      44.574   4.716  13.106  0.00  0.00    +0.000 HD
ENDROOT
BRANCH   1   3
ATOM      3  C   UNL     1      45.818   6.210  12.740  0.00  0.00    +0.000 A 
ATOM      4  N   UNL     1      45.992   7.491  12.346  0.00  0.00    +0.000 NA
ATOM      5  C   UNL     1      47.248   8.010  12.307  0.00  0.00    +0.000 A 
ATOM      6  C   UNL     1      48.385   7.320  12.672  0.00  0.00    +0.000 A 
ATOM      7  C   UNL     1      48.203   6.010  13.110  0.00  0.00    +0.000 A 
ATOM      8  C   UNL     1      46.918   5.427  13.129  0.00  0.00    +0.000 A 
ATOM      9  C   UNL     1      46.803   4.017  13.632  0.00  0.00    +0.000 C 
BRANCH   6  10
ATOM     10  C   UNL     1      49.759   7.886  12.623  0.00  0.00    +0.000 C 
ATOM     11  N   UNL     1      50.647   7.403  11.705  0.00  0.00    +0.000 N 
ATOM     12  O   UNL     1      50.106   8.766  13.405  0.00  0.00    +0.000 OA
ATOM     13  H   UNL     1      50.484   6.639  11.068  0.00  0.00    +0.000 HD
ATOM     14  H   UNL     1      51.579   7.795  11.736  0.00  0.00    +0.000 HD
ENDBRANCH   6  10
ENDBRANCH   1   3
BRANCH   1  15
ATOM     15  C   UNL     1      43.752   5.760  11.520  0.00  0.00    +0.000 C 
ATOM     16  C   UNL     1      42.255   5.574  11.785  0.00  0.00    +0.000 C 
BRANCH  15  19
ATOM     17  C   UNL     1      45.543   4.030   8.616  0.00  0.00    +0.000 A 
ATOM     18  C   UNL     1      45.054   5.056   9.415  0.00  0.00    +0.000 A 
ATOM     19  C   UNL     1      44.247   4.730  10.513  0.00  0.00    +0.000 A 
ATOM     20  C   UNL     1      43.946   3.377  10.722  0.00  0.00    +0.000 A 
ATOM     21  C   UNL     1      44.481   2.426   9.869  0.00  0.00    +0.000 A 
ATOM     22  N   UNL     1      45.275   2.722   8.824  0.00  0.00    +0.000 NA
BRANCH  17  24
ATOM     23  C   UNL     1      47.009   3.274   6.958  0.00  0.00    +0.000 C 
ATOM     24  O   UNL     1      46.363   4.391   7.563  0.00  0.00    +0.000 OA
ENDBRANCH  17  24
ENDBRANCH  15  19
ENDBRANCH   1  15
TORSDOF 5
ENDMDL
MODEL 7
REMARK VINA RESULT:    -6.860      1.585      6.280
REMARK INTER + INTRA:          -8.809
REMARK INTER:                  -9.186
REMARK INTRA:                   0.377
REMARK UNBOUND:                 0.056
REMARK  Name = 
REMARK  8 active torsions:
REMARK  status: ('A' for Active; 'I' for Inactive)
REMARK    1  A    between atoms: C_1  and  O_2
REMARK    2  A    between atoms: O_2  and  C_3
REMARK    3  A    between atoms: C_5  and  C_6
REMARK    4  A    between atoms: C_6  and  C_7
REMARK    5  A    between atoms: C_6  and  N_8
REMARK    6  A    between atoms: N_8  and  C_9
REMARK    7  A    between atoms: C_12  and  C_13
REMARK    8  A    between atoms: C_17  and  C_18
REMARK                            x       y       z     vdW  Elec       q    Type
REMARK                         _______ _______ _______ _____ _____    ______ ____
ROOT
ATOM      1  N   UNL     1      44.958   5.886  10.718  0.00  0.00    +0.000 N 
ATOM      2  H   UNL     1      44.557   6.802  10.894  0.00  0.00    +0.000 HD
ENDROOT
BRANCH   1   3
ATOM      3  C   UNL     1      45.571   5.437  11.905  0.00  0.00    +0.000 A 
ATOM      4  N   UNL     1      45.740   4.110  12.097  0.00  0.00    +0.000 NA
ATOM      5  C   UNL     1      46.329   3.673  13.241  0.00  0.00    +0.000 A 
ATOM      6  C   UNL     1      46.801   4.503  14.237  0.00  0.00    +0.000 A 
ATOM      7  C   UNL     1      46.657   5.872  14.026  0.00  0.00    +0.000 A 
ATOM      8  C   UNL     1      46.018   6.360  12.865  0.00  0.00    +0.000 A 
ATOM      9  C   UNL     1      45.919   7.849  12.702  0.00  0.00    +0.000 C 
BRANCH   6  10
ATOM     10  C   UNL     1      47.438   4.025  15.492  0.00  0.00    +0.000 C 
ATOM     11  N   UNL     1      47.292   4.757  16.636  0.00  0.00    +0.000 N 
ATOM     12  O   UNL     1      48.103   2.994  15.508  0.00  0.00    +0.000 OA
ATOM     13  H   UNL     1      46.826   5.647  16.714  0.00  0.00    +0.000 HD
ATOM     14  H   UNL     1      47.774   4.408  17.454  0.00  0.00    +0.000 HD
ENDBRANCH   6  10
ENDBRANCH   1   3
BRANCH   1  15
ATOM     15  C   UNL     1      43.966   4.974  10.125  0.00  0.00    +0.000 C 
ATOM     16  C   UNL     1      43.087   4.351  11.214  0.00  0.00    +0.000 C 
BRANCH  15  19
ATOM     17  C   UNL     1      46.279   3.085   7.733  0.00  0.00    +0.000 A 
ATOM     18  C   UNL     1      45.637   4.153   8.348  0.00  0.00    +0.000 A 
ATOM     19  C   UNL     1      44.651   3.886   9.307  0.00  0.00    +0.000 A 
ATOM     20  C   UNL     1      44.340   2.544   9.567  0.00  0.00    +0.000 A 
ATOM     21  C   UNL     1      45.035   1.548   8.901  0.00  0.00    +0.000 A 
ATOM     22  N   UNL     1      45.999   1.789   7.993  0.00  0.00    +0.000 NA
BRANCH  17  24
ATOM     23  C   UNL     1      47.995   2.242   6.386  0.00  0.00    +0.000 C 
ATOM     24  O   UNL     1      47.268   3.391   6.817  0.00  0.00    +0.000 OA
ENDBRANCH  17  24
ENDBRANCH  15  19
ENDBRANCH   1  15
TORSDOF 5
ENDMDL
MODEL 8
REMARK VINA RESULT:    -6.691      2.546      6.052
REMARK INTER + INTRA:          -8.591
REMARK INTER:                  -8.174
REMARK INTRA:                  -0.417
REMARK UNBOUND:                 0.056
REMARK  Name = 
REMARK  8 active torsions:
REMARK  status: ('A' for Active; 'I' for Inactive)
REMARK    1  A    between atoms: C_1  and  O_2
REMARK    2  A    between atoms: O_2  and  C_3
REMARK    3  A    between atoms: C_5  and  C_6
REMARK    4  A    between atoms: C_6  and  C_7
REMARK    5  A    between atoms: C_6  and  N_8
REMARK    6  A    between atoms: N_8  and  C_9
REMARK    7  A    between atoms: C_12  and  C_13
REMARK    8  A    between atoms: C_17  and  C_18
REMARK                            x       y       z     vdW  Elec       q    Type
REMARK                         _______ _______ _______ _____ _____    ______ ____
ROOT
ATOM      1  N   UNL     1      44.543   5.784  12.706  0.00  0.00    +0.000 N 
ATOM      2  H   UNL     1      44.624   4.840  13.070  0.00  0.00    +0.000 HD
ENDROOT
BRANCH   1   3
ATOM      3  C   UNL     1      45.835   6.342  12.634  0.00  0.00    +0.000 A 
ATOM      4  N   UNL     1      46.902   5.575  12.950  0.00  0.00    +0.000 NA
ATOM      5  C   UNL     1      48.150   6.109  12.885  0.00  0.00    +0.000 A 
ATOM      6  C   UNL     1      48.419   7.402  12.487  0.00  0.00    +0.000 A 
ATOM      7  C   UNL     1      47.324   8.185  12.130  0.00  0.00    +0.000 A 
ATOM      8  C   UNL     1      46.012   7.673  12.220  0.00  0.00    +0.000 A 
ATOM      9  C   UNL     1      44.886   8.572  11.799  0.00  0.00    +0.000 C 
BRANCH   6  10
ATOM     10  C   UNL     1      49.784   7.990  12.423  0.00  0.00    +0.000 C 
ATOM     11  N   UNL     1      50.689   7.685  13.398  0.00  0.00    +0.000 N 
ATOM     12  O   UNL     1      50.098   8.754  11.516  0.00  0.00    +0.000 OA
ATOM     13  H   UNL     1      50.511   7.125  14.218  0.00  0.00    +0.000 HD
ATOM     14  H   UNL     1      51.591   8.137  13.329  0.00  0.00    +0.000 HD
ENDBRANCH   6  10
ENDBRANCH   1   3
BRANCH   1  15
ATOM     15  C   UNL     1      43.763   5.811  11.459  0.00  0.00    +0.000 C 
ATOM     16  C   UNL     1      42.275   5.590  11.748  0.00  0.00    +0.000 C 
BRANCH  15  19
ATOM     17  C   UNL     1      45.615   4.035   8.621  0.00  0.00    +0.000 A 
ATOM     18  C   UNL     1      45.114   5.073   9.396  0.00  0.00    +0.000 A 
ATOM     19  C   UNL     1      44.275   4.765  10.476  0.00  0.00    +0.000 A 
ATOM     20  C   UNL     1      43.958   3.418  10.691  0.00  0.00    +0.000 A 
ATOM     21  C   UNL     1      44.507   2.453   9.863  0.00  0.00    +0.000 A 
ATOM     22  N   UNL     1      45.330   2.732   8.835  0.00  0.00    +0.000 NA
BRANCH  17  24
ATOM     23  C   UNL     1      46.941   3.245   6.864  0.00  0.00    +0.000 C 
ATOM     24  O   UNL     1      46.465   4.378   7.587  0.00  0.00    +0.000 OA
ENDBRANCH  17  24
ENDBRANCH  15  19
ENDBRANCH   1  15
TORSDOF 5
ENDMDL
MODEL 9
REMARK VINA RESULT:    -6.646      2.443      6.775
REMARK INTER + INTRA:          -8.533
REMARK INTER:                  -8.105
REMARK INTRA:                  -0.428
REMARK UNBOUND:                 0.056
REMARK  Name = 
REMARK  8 active torsions:
REMARK  status: ('A' for Active; 'I' for Inactive)
REMARK    1  A    between atoms: C_1  and  O_2
REMARK    2  A    between atoms: O_2  and  C_3
REMARK    3  A    between atoms: C_5  and  C_6
REMARK    4  A    between atoms: C_6  and  C_7
REMARK    5  A    between atoms: C_6  and  N_8
REMARK    6  A    between atoms: N_8  and  C_9
REMARK    7  A    between atoms: C_12  and  C_13
REMARK    8  A    between atoms: C_17  and  C_18
REMARK                            x       y       z     vdW  Elec       q    Type
REMARK                         _______ _______ _______ _____ _____    ______ ____
ROOT
ATOM      1  N   UNL     1      47.550   6.665  12.099  0.00  0.00    +0.000 N 
ATOM      2  H   UNL     1      48.315   7.332  12.126  0.00  0.00    +0.000 HD
ENDROOT
BRANCH   1   3
ATOM      3  C   UNL     1      47.528   5.968  13.324  0.00  0.00    +0.000 A 
ATOM      4  N   UNL     1      46.853   4.800  13.405  0.00  0.00    +0.000 NA
ATOM      5  C   UNL     1      46.827   4.127  14.586  0.00  0.00    +0.000 A 
ATOM      6  C   UNL     1      47.473   4.544  15.731  0.00  0.00    +0.000 A 
ATOM      7  C   UNL     1      48.196   5.732  15.640  0.00  0.00    +0.000 A 
ATOM      8  C   UNL     1      48.215   6.474  14.441  0.00  0.00    +0.000 A 
ATOM      9  C   UNL     1      49.032   7.733  14.417  0.00  0.00    +0.000 C 
BRANCH   6  10
ATOM     10  C   UNL     1      47.439   3.812  17.024  0.00  0.00    +0.000 C 
ATOM     11  N   UNL     1      48.476   3.955  17.901  0.00  0.00    +0.000 N 
ATOM     12  O   UNL     1      46.501   3.072  17.305  0.00  0.00    +0.000 OA
ATOM     13  H   UNL     1      49.321   4.482  17.738  0.00  0.00    +0.000 HD
ATOM     14  H   UNL     1      48.423   3.409  18.750  0.00  0.00    +0.000 HD
ENDBRANCH   6  10
ENDBRANCH   1   3
BRANCH   1  15
ATOM     15  C   UNL     1      46.288   7.313  11.708  0.00  0.00    +0.000 C 
ATOM     16  C   UNL     1      45.652   8.022  12.908  0.00  0.00    +0.000 C 
BRANCH  15  19
ATOM     17  C   UNL     1      44.747   4.456   9.684  0.00  0.00    +0.000 A 
ATOM     18  C   UNL     1      45.667   5.416  10.083  0.00  0.00    +0.000 A 
ATOM     19  C   UNL     1      45.318   6.300  11.114  0.00  0.00    +0.000 A 
ATOM     20  C   UNL     1      44.034   6.186  11.663  0.00  0.00    +0.000 A 
ATOM     21  C   UNL     1      43.185   5.195  11.197  0.00  0.00    +0.000 A 
ATOM     22  N   UNL     1      43.514   4.327  10.223  0.00  0.00    +0.000 NA
BRANCH  17  24
ATOM     23  C   UNL     1      44.941   2.216   9.040  0.00  0.00    +0.000 C 
ATOM     24  O   UNL     1      45.142   3.584   8.688  0.00  0.00    +0.000 OA
ENDBRANCH  17  24
ENDBRANCH  15  19
ENDBRANCH   1  15
TORSDOF 5
ENDMDL
