MODEL 1
REMARK VINA RESULT:    -8.460      0.000      0.000
REMARK INTER + INTRA:         -10.613
REMARK INTER:                  -9.943
REMARK INTRA:                  -0.670
REMARK UNBOUND:                -0.670
REMARK  Name = 
REMARK  3 active torsions:
REMARK  status: ('A' for Active; 'I' for Inactive)
REMARK    1  A    between atoms: C_2  and  C_4
REMARK    2  A    between atoms: N_8  and  C_9
REMARK    3  A    between atoms: C_9  and  C_10
REMARK                            x       y       z     vdW  Elec       q    Type
REMARK                         _______ _______ _______ _____ _____    ______ ____
ROOT
ATOM      1  C   UNL     1      46.524   2.657   7.492  0.00  0.00    +0.000 A 
ATOM      2  C   UNL     1      46.193   4.000   7.642  0.00  0.00    +0.000 A 
ATOM      3  C   UNL     1      45.335   4.380   8.677  0.00  0.00    +0.000 A 
ATOM      4  C   UNL     1      44.818   3.416   9.533  0.00  0.00    +0.000 A 
ATOM      5  N   UNL     1      43.899   3.696  10.547  0.00  0.00    +0.000 N 
ATOM      6  N   UNL     1      45.115   2.108   9.380  0.00  0.00    +0.000 NA
ATOM      7  C   UNL     1      45.950   1.752   8.369  0.00  0.00    +0.000 A 
ATOM      8  H   UNL     1      43.752   2.820  11.044  0.00  0.00    +0.000 HD
ENDROOT
BRANCH   1  10
ATOM      9  N   UNL     1      47.705   3.009   5.399  0.00  0.00    +0.000 N 
ATOM     10  C   UNL     1      47.433   2.159   6.436  0.00  0.00    +0.000 C 
ATOM     11  O   UNL     1      47.951   1.056   6.506  0.00  0.00    +0.000 OA
ATOM     12  H   UNL     1      48.412   2.700   4.742  0.00  0.00    +0.000 HD
ATOM     13  H   UNL     1      47.507   3.998   5.438  0.00  0.00    +0.000 HD
ENDBRANCH   1  10
BRANCH   5  14
ATOM     14  C   UNL     1      43.858   4.926  11.351  0.00  0.00    +0.000 C 
ATOM     15  C   UNL     1      42.547   5.141  12.104  0.00  0.00    +0.000 C 
ATOM     16  C   UNL     1      42.946   6.101  11.037  0.00  0.00    +0.000 C 
BRANCH  14  17
ATOM     17  C   UNL     1      45.159   5.244  12.091  0.00  0.00    +0.000 A 
ATOM     18  C   UNL     1      45.949   6.354  11.734  0.00  0.00    +0.000 A 
ATOM     19  C   UNL     1      47.096   6.697  12.455  0.00  0.00    +0.000 A 
ATOM     20  C   UNL     1      47.474   5.924  13.545  0.00  0.00    +0.000 A 
ATOM     21  F   UNL     1      48.557   6.266  14.254  0.00  0.00    +0.000 F 
ATOM     22  C   UNL     1      46.740   4.806  13.911  0.00  0.00    +0.000 A 
ATOM     23  C   UNL     1      45.597   4.465  13.181  0.00  0.00    +0.000 A 
ENDBRANCH  14  17
ENDBRANCH   5  14
TORSDOF 3
ENDMDL
MODEL 2
REMARK VINA RESULT:    -6.872      3.945      6.234
REMARK INTER + INTRA:          -8.747
REMARK INTER:                  -8.239
REMARK INTRA:                  -0.509
REMARK UNBOUND:                -0.670
REMARK  Name = 
REMARK  3 active torsions:
REMARK  status: ('A' for Active; 'I' for Inactive)
REMARK    1  A    between atoms: C_2  and  C_4
REMARK    2  A    between atoms: N_8  and  C_9
REMARK    3  A    between atoms: C_9  and  C_10
REMARK                            x       y       z     vdW  Elec       q    Type
REMARK                         _______ _______ _______ _____ _____    ______ ____
ROOT
ATOM      1  C   UNL     1      48.391   6.685  13.600  0.00  0.00    +0.000 A 
ATOM      2  C   UNL     1      47.551   5.642  13.978  0.00  0.00    +0.000 A 
ATOM      3  C   UNL     1      46.410   5.376  13.218  0.00  0.00    +0.000 A 
ATOM      4  C   UNL     1      46.124   6.158  12.105  0.00  0.00    +0.000 A 
ATOM      5  N   UNL     1      44.970   6.009  11.332  0.00  0.00    +0.000 N 
ATOM      6  N   UNL     1      46.922   7.186  11.746  0.00  0.00    +0.000 NA
ATOM      7  C   UNL     1      48.028   7.434  12.493  0.00  0.00    +0.000 A 
ATOM      8  H   UNL     1      45.062   6.665  10.560  0.00  0.00    +0.000 HD
ENDROOT
BRANCH   1  10
ATOM      9  N   UNL     1      50.546   7.802  13.670  0.00  0.00    +0.000 N 
ATOM     10  C   UNL     1      49.628   7.035  14.332  0.00  0.00    +0.000 C 
ATOM     11  O   UNL     1      49.806   6.690  15.490  0.00  0.00    +0.000 OA
ATOM     12  H   UNL     1      51.336   8.127  14.216  0.00  0.00    +0.000 HD
ATOM     13  H   UNL     1      50.325   8.312  12.826  0.00  0.00    +0.000 HD
ENDBRANCH   1  10
BRANCH   5  14
ATOM     14  C   UNL     1      44.291   4.738  11.042  0.00  0.00    +0.000 C 
ATOM     15  C   UNL     1      42.771   4.796  11.166  0.00  0.00    +0.000 C 
ATOM     16  C   UNL     1      43.549   3.927  12.092  0.00  0.00    +0.000 C 
BRANCH  14  17
ATOM     17  C   UNL     1      44.875   3.962   9.859  0.00  0.00    +0.000 A 
ATOM     18  C   UNL     1      45.496   4.629   8.784  0.00  0.00    +0.000 A 
ATOM     19  C   UNL     1      46.101   3.925   7.739  0.00  0.00    +0.000 A 
ATOM     20  C   UNL     1      46.085   2.537   7.752  0.00  0.00    +0.000 A 
ATOM     21  F   UNL     1      46.687   1.860   6.766  0.00  0.00    +0.000 F 
ATOM     22  C   UNL     1      45.458   1.844   8.776  0.00  0.00    +0.000 A 
ATOM     23  C   UNL     1      44.850   2.554   9.815  0.00  0.00    +0.000 A 
ENDBRANCH  14  17
ENDBRANCH   5  14
TORSDOF 3
ENDMDL
MODEL 3
REMARK VINA RESULT:    -6.672      3.987      6.426
REMARK INTER + INTRA:          -8.512
REMARK INTER:                  -8.702
REMARK INTRA:                   0.190
REMARK UNBOUND:                -0.670
REMARK  Name = 
REMARK  3 active torsions:
REMARK  status: ('A' for Active; 'I' for Inactive)
REMARK    1  A    between atoms: C_2  and  C_4
REMARK    2  A    between atoms: N_8  and  C_9
REMARK    3  A    between atoms: C_9  and  C_10
REMARK                            x       y       z     vdW  Elec       q    Type
REMARK                         _______ _______ _______ _____ _____    ______ ____
ROOT
ATOM      1  C   UNL     1      47.879   5.756  14.730  0.00  0.00    +0.000 A 
ATOM      2  C   UNL     1      47.459   6.101  13.450  0.00  0.00    +0.000 A 
ATOM      3  C   UNL     1      46.679   5.200  12.720  0.00  0.00    +0.000 A 
ATOM      4  C   UNL     1      46.343   3.971  13.276  0.00  0.00    +0.000 A 
ATOM      5  N   UNL     1      45.631   2.983  12.593  0.00  0.00    +0.000 N 
ATOM      6  N   UNL     1      46.767   3.619  14.509  0.00  0.00    +0.000 NA
ATOM      7  C   UNL     1      47.524   4.505  15.207  0.00  0.00    +0.000 A 
ATOM      8  H   UNL     1      45.480   2.231  13.263  0.00  0.00    +0.000 HD
ENDROOT
BRANCH   1  10
ATOM      9  N   UNL     1      48.227   7.918  15.780  0.00  0.00    +0.000 N 
ATOM     10  C   UNL     1      48.695   6.647  15.583  0.00  0.00    +0.000 C 
ATOM     11  O   UNL     1      49.718   6.257  16.122  0.00  0.00    +0.000 OA
ATOM     12  H   UNL     1      48.735   8.482  16.452  0.00  0.00    +0.000 HD
ATOM     13  H   UNL     1      47.278   8.189  15.569  0.00  0.00    +0.000 HD
ENDBRANCH   1  10
BRANCH   5  14
ATOM     14  C   UNL     1      44.561   3.220  11.614  0.00  0.00    +0.000 C 
ATOM     15  C   UNL     1      43.469   4.173  12.095  0.00  0.00    +0.000 C 
ATOM     16  C   UNL     1      43.129   2.751  11.809  0.00  0.00    +0.000 C 
BRANCH  14  17
ATOM     17  C   UNL     1      45.045   3.371  10.170  0.00  0.00    +0.000 A 
ATOM     18  C   UNL     1      45.355   4.636   9.633  0.00  0.00    +0.000 A 
ATOM     19  C   UNL     1      45.872   4.775   8.342  0.00  0.00    +0.000 A 
ATOM     20  C   UNL     1      46.079   3.645   7.564  0.00  0.00    +0.000 A 
ATOM     21  F   UNL     1      46.600   3.773   6.337  0.00  0.00    +0.000 F 
ATOM     22  C   UNL     1      45.759   2.384   8.045  0.00  0.00    +0.000 A 
ATOM     23  C   UNL     1      45.236   2.253   9.335  0.00  0.00    +0.000 A 
ENDBRANCH  14  17
ENDBRANCH   5  14
TORSDOF 3
ENDMDL
MODEL 4
REMARK VINA RESULT:    -5.979      4.315      6.866
REMARK INTER + INTRA:          -7.697
REMARK INTER:                  -8.078
REMARK INTRA:                   0.381
REMARK UNBOUND:                -0.670
REMARK  Name = 
REMARK  3 active torsions:
REMARK  status: ('A' for Active; 'I' for Inactive)
REMARK    1  A    between atoms: C_2  and  C_4
REMARK    2  A    between atoms: N_8  and  C_9
REMARK    3  A    between atoms: C_9  and  C_10
REMARK                            x       y       z     vdW  Elec       q    Type
REMARK                         _______ _______ _______ _____ _____    ______ ____
ROOT
ATOM      1  C   UNL     1      48.411   5.649  15.716  0.00  0.00    +0.000 A 
ATOM      2  C   UNL     1      48.119   6.154  14.453  0.00  0.00    +0.000 A 
ATOM      3  C   UNL     1      47.115   5.551  13.692  0.00  0.00    +0.000 A 
ATOM      4  C   UNL     1      46.429   4.454  14.199  0.00  0.00    +0.000 A 
ATOM      5  N   UNL     1      45.463   3.747  13.480  0.00  0.00    +0.000 N 
ATOM      6  N   UNL     1      46.722   3.943  15.414  0.00  0.00    +0.000 NA
ATOM      7  C   UNL     1      47.701   4.539  16.143  0.00  0.00    +0.000 A 
ATOM      8  H   UNL     1      45.094   3.046  14.119  0.00  0.00    +0.000 HD
ENDROOT
BRANCH   1  10
ATOM      9  N   UNL     1      49.259   6.087  17.949  0.00  0.00    +0.000 N 
ATOM     10  C   UNL     1      49.446   6.226  16.601  0.00  0.00    +0.000 C 
ATOM     11  O   UNL     1      50.443   6.768  16.151  0.00  0.00    +0.000 OA
ATOM     12  H   UNL     1      50.026   6.388  18.540  0.00  0.00    +0.000 HD
ATOM     13  H   UNL     1      48.597   5.435  18.344  0.00  0.00    +0.000 HD
ENDBRANCH   1  10
BRANCH   5  14
ATOM     14  C   UNL     1      44.517   4.327  12.516  0.00  0.00    +0.000 C 
ATOM     15  C   UNL     1      44.010   5.718  12.893  0.00  0.00    +0.000 C 
ATOM     16  C   UNL     1      43.051   4.579  12.830  0.00  0.00    +0.000 C 
BRANCH  14  17
ATOM     17  C   UNL     1      44.873   4.079  11.049  0.00  0.00    +0.000 A 
ATOM     18  C   UNL     1      44.533   2.870  10.411  0.00  0.00    +0.000 A 
ATOM     19  C   UNL     1      44.784   2.666   9.051  0.00  0.00    +0.000 A 
ATOM     20  C   UNL     1      45.389   3.671   8.310  0.00  0.00    +0.000 A 
ATOM     21  F   UNL     1      45.605   3.489   7.001  0.00  0.00    +0.000 F 
ATOM     22  C   UNL     1      45.766   4.865   8.907  0.00  0.00    +0.000 A 
ATOM     23  C   UNL     1      45.518   5.060  10.270  0.00  0.00    +0.000 A 
ENDBRANCH  14  17
ENDBRANCH   5  14
TORSDOF 3
ENDMDL
