MODEL 1
REMARK VINA RESULT:    -7.996      0.000      0.000
REMARK INTER + INTRA:         -11.703
REMARK INTER:                 -10.800
REMARK INTRA:                  -0.902
REMARK UNBOUND:                -0.902
REMARK  Name = 
REMARK  6 active torsions:
REMARK  status: ('A' for Active; 'I' for Inactive)
REMARK    1  A    between atoms: C_2  and  C_25
REMARK    2  A    between atoms: N_3  and  C_4
REMARK    3  A    between atoms: C_4  and  C_5
REMARK    4  A    between atoms: C_8  and  C_9
REMARK    5  A    between atoms: C_9  and  N_10
REMARK    6  A    between atoms: C_11  and  C_13
REMARK                            x       y       z     vdW  Elec       q    Type
REMARK                         _______ _______ _______ _____ _____    ______ ____
ROOT
ATOM      1  C   UNL     1      44.913   6.036  11.117  0.00  0.00    +0.000 A 
ATOM      2  C   UNL     1      44.503   7.334  11.414  0.00  0.00    +0.000 A 
ATOM      3  C   UNL     1      45.278   8.111  12.274  0.00  0.00    +0.000 A 
ATOM      4  C   UNL     1      46.434   7.574  12.842  0.00  0.00    +0.000 A 
ATOM      5  C   UNL     1      46.771   6.273  12.485  0.00  0.00    +0.000 A 
ATOM      6  N   UNL     1      46.038   5.495  11.652  0.00  0.00    +0.000 NA
ENDROOT
BRANCH   1   7
ATOM      7  C   UNL     1      44.096   5.179  10.180  0.00  0.00    +0.000 C 
BRANCH   7  10
ATOM      8  O   UNL     1      44.958   2.505  10.074  0.00  0.00    +0.000 OA
ATOM      9  C   UNL     1      45.222   3.252   9.140  0.00  0.00    +0.000 C 
ATOM     10  N   UNL     1      44.893   4.591   9.124  0.00  0.00    +0.000 N 
ATOM     11  H   UNL     1      45.014   5.099   8.252  0.00  0.00    +0.000 HD
BRANCH   9  12
ATOM     12  C   UNL     1      45.938   2.740   7.938  0.00  0.00    +0.000 A 
ATOM     13  C   UNL     1      46.467   1.454   7.955  0.00  0.00    +0.000 A 
ATOM     14  N   UNL     1      47.160   0.937   6.908  0.00  0.00    +0.000 NA
ATOM     15  C   UNL     1      47.298   1.765   5.847  0.00  0.00    +0.000 A 
ATOM     16  C   UNL     1      46.766   3.045   5.826  0.00  0.00    +0.000 A 
ATOM     17  N   UNL     1      46.070   3.571   6.865  0.00  0.00    +0.000 NA
ENDBRANCH   9  12
ENDBRANCH   7  10
ENDBRANCH   1   7
BRANCH   4  18
ATOM     18  C   UNL     1      47.307   8.379  13.759  0.00  0.00    +0.000 C 
BRANCH  18  19
ATOM     19  N   UNL     1      47.738   7.590  14.887  0.00  0.00    +0.000 N 
ATOM     20  C   UNL     1      48.981   7.008  14.931  0.00  0.00    +0.000 C 
ATOM     21  O   UNL     1      49.809   7.174  14.037  0.00  0.00    +0.000 OA
ATOM     22  H   UNL     1      47.011   7.237  15.498  0.00  0.00    +0.000 HD
BRANCH  20  23
ATOM     23  C   UNL     1      49.292   6.239  16.142  0.00  0.00    +0.000 A 
ATOM     24  C   UNL     1      50.375   6.599  16.932  0.00  0.00    +0.000 A 
ATOM     25  S   UNL     1      50.538   5.649  18.340  0.00  0.00    +0.000 S 
ATOM     26  C   UNL     1      49.199   4.689  17.916  0.00  0.00    +0.000 A 
ATOM     27  N   UNL     1      48.794   3.660  18.709  0.00  0.00    +0.000 NA
ATOM     28  C   UNL     1      47.784   2.999  18.250  0.00  0.00    +0.000 A 
ATOM     29  N   UNL     1      47.144   3.270  17.069  0.00  0.00    +0.000 N 
ATOM     30  C   UNL     1      47.506   4.308  16.246  0.00  0.00    +0.000 A 
ATOM     31  O   UNL     1      46.896   4.538  15.206  0.00  0.00    +0.000 OA
ATOM     32  C   UNL     1      48.633   5.089  16.718  0.00  0.00    +0.000 A 
ATOM     33  H   UNL     1      46.358   2.712  16.765  0.00  0.00    +0.000 HD
ENDBRANCH  20  23
ENDBRANCH  18  19
ENDBRANCH   4  18
TORSDOF 6
ENDMDL
MODEL 2
REMARK VINA RESULT:    -7.663      1.630      1.934
REMARK INTER + INTRA:         -11.253
REMARK INTER:                 -10.384
REMARK INTRA:                  -0.869
REMARK UNBOUND:                -0.902
REMARK  Name = 
REMARK  6 active torsions:
REMARK  status: ('A' for Active; 'I' for Inactive)
REMARK    1  A    between atoms: C_2  and  C_25
REMARK    2  A    between atoms: N_3  and  C_4
REMARK    3  A    between atoms: C_4  and  C_5
REMARK    4  A    between atoms: C_8  and  C_9
REMARK    5  A    between atoms: C_9  and  N_10
REMARK    6  A    between atoms: C_11  and  C_13
REMARK                            x       y       z     vdW  Elec       q    Type
REMARK                         _______ _______ _______ _____ _____    ______ ____
ROOT
ATOM      1  C   UNL     1      45.294   4.787  12.294  0.00  0.00    +0.000 A 
ATOM      2  C   UNL     1      45.001   6.111  11.974  0.00  0.00    +0.000 A 
ATOM      3  C   UNL     1      45.813   7.126  12.477  0.00  0.00    +0.000 A 
ATOM      4  C   UNL     1      46.888   6.808  13.309  0.00  0.00    +0.000 A 
ATOM      5  C   UNL     1      47.109   5.460  13.570  0.00  0.00    +0.000 A 
ATOM      6  N   UNL     1      46.338   4.452  13.095  0.00  0.00    +0.000 NA
ENDROOT
BRANCH   1   7
ATOM      7  C   UNL     1      44.435   3.669  11.753  0.00  0.00    +0.000 C 
BRANCH   7  10
ATOM      8  O   UNL     1      44.152   4.246   9.016  0.00  0.00    +0.000 OA
ATOM      9  C   UNL     1      44.909   3.345   9.359  0.00  0.00    +0.000 C 
ATOM     10  N   UNL     1      45.073   2.950  10.669  0.00  0.00    +0.000 N 
ATOM     11  H   UNL     1      45.828   2.303  10.879  0.00  0.00    +0.000 HD
BRANCH   9  12
ATOM     12  C   UNL     1      45.714   2.605   8.346  0.00  0.00    +0.000 A 
ATOM     13  C   UNL     1      46.117   3.256   7.187  0.00  0.00    +0.000 A 
ATOM     14  N   UNL     1      46.822   2.633   6.207  0.00  0.00    +0.000 NA
ATOM     15  C   UNL     1      47.102   1.330   6.444  0.00  0.00    +0.000 A 
ATOM     16  C   UNL     1      46.705   0.681   7.603  0.00  0.00    +0.000 A 
ATOM     17  N   UNL     1      46.003   1.295   8.589  0.00  0.00    +0.000 NA
ENDBRANCH   9  12
ENDBRANCH   7  10
ENDBRANCH   1   7
BRANCH   4  18
ATOM     18  C   UNL     1      47.797   7.867  13.859  0.00  0.00    +0.000 C 
BRANCH  18  19
ATOM     19  N   UNL     1      47.962   7.717  15.284  0.00  0.00    +0.000 N 
ATOM     20  C   UNL     1      49.098   7.173  15.829  0.00  0.00    +0.000 C 
ATOM     21  O   UNL     1      50.055   6.836  15.135  0.00  0.00    +0.000 OA
ATOM     22  H   UNL     1      47.117   7.747  15.844  0.00  0.00    +0.000 HD
BRANCH  20  23
ATOM     23  C   UNL     1      49.135   7.088  17.294  0.00  0.00    +0.000 A 
ATOM     24  C   UNL     1      49.263   8.244  18.052  0.00  0.00    +0.000 A 
ATOM     25  S   UNL     1      49.205   7.967  19.734  0.00  0.00    +0.000 S 
ATOM     26  C   UNL     1      49.064   6.286  19.510  0.00  0.00    +0.000 A 
ATOM     27  N   UNL     1      48.977   5.441  20.573  0.00  0.00    +0.000 NA
ATOM     28  C   UNL     1      48.903   4.192  20.256  0.00  0.00    +0.000 A 
ATOM     29  N   UNL     1      48.911   3.709  18.974  0.00  0.00    +0.000 N 
ATOM     30  C   UNL     1      48.978   4.524  17.871  0.00  0.00    +0.000 A 
ATOM     31  O   UNL     1      48.958   4.061  16.734  0.00  0.00    +0.000 OA
ATOM     32  C   UNL     1      49.056   5.941  18.170  0.00  0.00    +0.000 A 
ATOM     33  H   UNL     1      48.851   2.717  18.793  0.00  0.00    +0.000 HD
ENDBRANCH  20  23
ENDBRANCH  18  19
ENDBRANCH   4  18
TORSDOF 6
ENDMDL
MODEL 3
REMARK VINA RESULT:    -7.351      1.771      2.358
REMARK INTER + INTRA:         -10.832
REMARK INTER:                 -10.237
REMARK INTRA:                  -0.594
REMARK UNBOUND:                -0.902
REMARK  Name = 
REMARK  6 active torsions:
REMARK  status: ('A' for Active; 'I' for Inactive)
REMARK    1  A    between atoms: C_2  and  C_25
REMARK    2  A    between atoms: N_3  and  C_4
REMARK    3  A    between atoms: C_4  and  C_5
REMARK    4  A    between atoms: C_8  and  C_9
REMARK    5  A    between atoms: C_9  and  N_10
REMARK    6  A    between atoms: C_11  and  C_13
REMARK                            x       y       z     vdW  Elec       q    Type
REMARK                         _______ _______ _______ _____ _____    ______ ____
ROOT
ATOM      1  C   UNL     1      44.800   5.488  11.341  0.00  0.00    +0.000 A 
ATOM      2  C   UNL     1      44.849   6.880  11.393  0.00  0.00    +0.000 A 
ATOM      3  C   UNL     1      45.779   7.495  12.230  0.00  0.00    +0.000 A 
ATOM      4  C   UNL     1      46.627   6.714  13.017  0.00  0.00    +0.000 A 
ATOM      5  C   UNL     1      46.513   5.334  12.896  0.00  0.00    +0.000 A 
ATOM      6  N   UNL     1      45.619   4.709  12.092  0.00  0.00    +0.000 NA
ENDROOT
BRANCH   1   7
ATOM      7  C   UNL     1      43.808   4.799  10.434  0.00  0.00    +0.000 C 
BRANCH   7  10
ATOM      8  O   UNL     1      45.696   5.156   8.382  0.00  0.00    +0.000 OA
ATOM      9  C   UNL     1      45.368   4.018   8.698  0.00  0.00    +0.000 C 
ATOM     10  N   UNL     1      44.410   3.742   9.650  0.00  0.00    +0.000 N 
ATOM     11  H   UNL     1      44.309   2.777   9.956  0.00  0.00    +0.000 HD
BRANCH   9  12
ATOM     12  C   UNL     1      46.002   2.838   8.045  0.00  0.00    +0.000 A 
ATOM     13  C   UNL     1      45.782   1.569   8.568  0.00  0.00    +0.000 A 
ATOM     14  N   UNL     1      46.356   0.455   8.044  0.00  0.00    +0.000 NA
ATOM     15  C   UNL     1      47.158   0.672   6.977  0.00  0.00    +0.000 A 
ATOM     16  C   UNL     1      47.374   1.937   6.450  0.00  0.00    +0.000 A 
ATOM     17  N   UNL     1      46.804   3.055   6.964  0.00  0.00    +0.000 NA
ENDBRANCH   9  12
ENDBRANCH   7  10
ENDBRANCH   1   7
BRANCH   4  18
ATOM     18  C   UNL     1      47.654   7.333  13.920  0.00  0.00    +0.000 C 
BRANCH  18  19
ATOM     19  N   UNL     1      47.798   6.574  15.137  0.00  0.00    +0.000 N 
ATOM     20  C   UNL     1      49.030   6.287  15.671  0.00  0.00    +0.000 C 
ATOM     21  O   UNL     1      50.070   6.708  15.170  0.00  0.00    +0.000 OA
ATOM     22  H   UNL     1      47.000   6.016  15.420  0.00  0.00    +0.000 HD
BRANCH  20  23
ATOM     23  C   UNL     1      49.028   5.513  16.919  0.00  0.00    +0.000 A 
ATOM     24  C   UNL     1      48.562   4.206  16.922  0.00  0.00    +0.000 A 
ATOM     25  S   UNL     1      48.710   3.432  18.435  0.00  0.00    +0.000 S 
ATOM     26  C   UNL     1      49.352   4.835  19.153  0.00  0.00    +0.000 A 
ATOM     27  N   UNL     1      49.695   4.856  20.470  0.00  0.00    +0.000 NA
ATOM     28  C   UNL     1      50.142   5.993  20.886  0.00  0.00    +0.000 A 
ATOM     29  N   UNL     1      50.273   7.114  20.109  0.00  0.00    +0.000 N 
ATOM     30  C   UNL     1      49.956   7.135  18.773  0.00  0.00    +0.000 A 
ATOM     31  O   UNL     1      50.108   8.150  18.099  0.00  0.00    +0.000 OA
ATOM     32  C   UNL     1      49.455   5.879  18.250  0.00  0.00    +0.000 A 
ATOM     33  H   UNL     1      50.628   7.976  20.498  0.00  0.00    +0.000 HD
ENDBRANCH  20  23
ENDBRANCH  18  19
ENDBRANCH   4  18
TORSDOF 6
ENDMDL
MODEL 4
REMARK VINA RESULT:    -7.205      2.986      4.809
REMARK INTER + INTRA:         -10.635
REMARK INTER:                  -9.596
REMARK INTRA:                  -1.038
REMARK UNBOUND:                -0.902
REMARK  Name = 
REMARK  6 active torsions:
REMARK  status: ('A' for Active; 'I' for Inactive)
REMARK    1  A    between atoms: C_2  and  C_25
REMARK    2  A    between atoms: N_3  and  C_4
REMARK    3  A    between atoms: C_4  and  C_5
REMARK    4  A    between atoms: C_8  and  C_9
REMARK    5  A    between atoms: C_9  and  N_10
REMARK    6  A    between atoms: C_11  and  C_13
REMARK                            x       y       z     vdW  Elec       q    Type
REMARK                         _______ _______ _______ _____ _____    ______ ____
ROOT
ATOM      1  C   UNL     1      45.366   3.948  12.296  0.00  0.00    +0.000 A 
ATOM      2  C   UNL     1      45.480   5.324  12.103  0.00  0.00    +0.000 A 
ATOM      3  C   UNL     1      46.350   6.052  12.913  0.00  0.00    +0.000 A 
ATOM      4  C   UNL     1      47.073   5.404  13.915  0.00  0.00    +0.000 A 
ATOM      5  C   UNL     1      46.901   4.029  14.032  0.00  0.00    +0.000 A 
ATOM      6  N   UNL     1      46.064   3.294  13.260  0.00  0.00    +0.000 NA
ENDROOT
BRANCH   1   7
ATOM      7  C   UNL     1      44.438   3.135  11.425  0.00  0.00    +0.000 C 
BRANCH   7  10
ATOM      8  O   UNL     1      44.351   4.333   8.883  0.00  0.00    +0.000 OA
ATOM      9  C   UNL     1      45.027   3.323   9.042  0.00  0.00    +0.000 C 
ATOM     10  N   UNL     1      45.089   2.632  10.234  0.00  0.00    +0.000 N 
ATOM     11  H   UNL     1      45.787   1.899  10.322  0.00  0.00    +0.000 HD
BRANCH   9  12
ATOM     12  C   UNL     1      45.840   2.770   7.922  0.00  0.00    +0.000 A 
ATOM     13  C   UNL     1      46.371   1.491   8.031  0.00  0.00    +0.000 A 
ATOM     14  N   UNL     1      47.149   0.939   7.064  0.00  0.00    +0.000 NA
ATOM     15  C   UNL     1      47.367   1.727   5.986  0.00  0.00    +0.000 A 
ATOM     16  C   UNL     1      46.833   3.001   5.873  0.00  0.00    +0.000 A 
ATOM     17  N   UNL     1      46.053   3.561   6.832  0.00  0.00    +0.000 NA
ENDBRANCH   9  12
ENDBRANCH   7  10
ENDBRANCH   1   7
BRANCH   4  18
ATOM     18  C   UNL     1      48.033   6.146  14.798  0.00  0.00    +0.000 C 
BRANCH  18  19
ATOM     19  N   UNL     1      48.892   7.004  14.022  0.00  0.00    +0.000 N 
ATOM     20  C   UNL     1      49.766   7.882  14.614  0.00  0.00    +0.000 C 
ATOM     21  O   UNL     1      49.900   7.942  15.834  0.00  0.00    +0.000 OA
ATOM     22  H   UNL     1      48.629   7.154  13.054  0.00  0.00    +0.000 HD
BRANCH  20  23
ATOM     23  C   UNL     1      50.587   8.689  13.703  0.00  0.00    +0.000 A 
ATOM     24  C   UNL     1      51.969   8.686  13.830  0.00  0.00    +0.000 A 
ATOM     25  S   UNL     1      52.766   9.613  12.640  0.00  0.00    +0.000 S 
ATOM     26  C   UNL     1      51.289  10.097  11.947  0.00  0.00    +0.000 A 
ATOM     27  N   UNL     1      51.257  10.926  10.868  0.00  0.00    +0.000 NA
ATOM     28  C   UNL     1      50.069  11.232  10.466  0.00  0.00    +0.000 A 
ATOM     29  N   UNL     1      48.909  10.789  11.045  0.00  0.00    +0.000 N 
ATOM     30  C   UNL     1      48.892   9.938  12.123  0.00  0.00    +0.000 A 
ATOM     31  O   UNL     1      47.835   9.540  12.603  0.00  0.00    +0.000 OA
ATOM     32  C   UNL     1      50.203   9.555  12.612  0.00  0.00    +0.000 A 
ATOM     33  H   UNL     1      48.009  11.068  10.683  0.00  0.00    +0.000 HD
ENDBRANCH  20  23
ENDBRANCH  18  19
ENDBRANCH   4  18
TORSDOF 6
ENDMDL
MODEL 5
REMARK VINA RESULT:    -7.171      3.145      8.641
REMARK INTER + INTRA:         -10.589
REMARK INTER:                  -9.653
REMARK INTRA:                  -0.936
REMARK UNBOUND:                -0.902
REMARK  Name = 
REMARK  6 active torsions:
REMARK  status: ('A' for Active; 'I' for Inactive)
REMARK    1  A    between atoms: C_2  and  C_25
REMARK    2  A    between atoms: N_3  and  C_4
REMARK    3  A    between atoms: C_4  and  C_5
REMARK    4  A    between atoms: C_8  and  C_9
REMARK    5  A    between atoms: C_9  and  N_10
REMARK    6  A    between atoms: C_11  and  C_13
REMARK                            x       y       z     vdW  Elec       q    Type
REMARK                         _______ _______ _______ _____ _____    ______ ____
ROOT
ATOM      1  C   UNL     1      50.012   7.452  15.268  0.00  0.00    +0.000 A 
ATOM      2  C   UNL     1      50.112   8.584  14.462  0.00  0.00    +0.000 A 
ATOM      3  C   UNL     1      49.257   8.716  13.368  0.00  0.00    +0.000 A 
ATOM      4  C   UNL     1      48.334   7.709  13.083  0.00  0.00    +0.000 A 
ATOM      5  C   UNL     1      48.299   6.619  13.945  0.00  0.00    +0.000 A 
ATOM      6  N   UNL     1      49.117   6.463  15.015  0.00  0.00    +0.000 NA
ENDROOT
BRANCH   1   7
ATOM      7  C   UNL     1      50.920   7.290  16.464  0.00  0.00    +0.000 C 
BRANCH   7  10
ATOM      8  O   UNL     1      50.064   5.607  18.547  0.00  0.00    +0.000 OA
ATOM      9  C   UNL     1      50.819   5.159  17.692  0.00  0.00    +0.000 C 
ATOM     10  N   UNL     1      51.338   5.919  16.665  0.00  0.00    +0.000 N 
ATOM     11  H   UNL     1      51.831   5.435  15.919  0.00  0.00    +0.000 HD
BRANCH   9  12
ATOM     12  C   UNL     1      51.232   3.727  17.720  0.00  0.00    +0.000 A 
ATOM     13  C   UNL     1      52.393   3.366  18.394  0.00  0.00    +0.000 A 
ATOM     14  N   UNL     1      52.846   2.086  18.431  0.00  0.00    +0.000 NA
ATOM     15  C   UNL     1      52.084   1.189  17.763  0.00  0.00    +0.000 A 
ATOM     16  C   UNL     1      50.922   1.548  17.096  0.00  0.00    +0.000 A 
ATOM     17  N   UNL     1      50.460   2.822  17.055  0.00  0.00    +0.000 NA
ENDBRANCH   9  12
ENDBRANCH   7  10
ENDBRANCH   1   7
BRANCH   4  18
ATOM     18  C   UNL     1      47.384   7.818  11.927  0.00  0.00    +0.000 C 
BRANCH  18  19
ATOM     19  N   UNL     1      46.724   6.560  11.680  0.00  0.00    +0.000 N 
ATOM     20  C   UNL     1      45.355   6.445  11.690  0.00  0.00    +0.000 C 
ATOM     21  O   UNL     1      44.623   7.418  11.855  0.00  0.00    +0.000 OA
ATOM     22  H   UNL     1      47.286   5.723  11.793  0.00  0.00    +0.000 HD
BRANCH  20  23
ATOM     23  C   UNL     1      44.817   5.107  11.415  0.00  0.00    +0.000 A 
ATOM     24  C   UNL     1      44.084   4.442  12.388  0.00  0.00    +0.000 A 
ATOM     25  S   UNL     1      43.468   2.938  11.870  0.00  0.00    +0.000 S 
ATOM     26  C   UNL     1      44.207   3.097  10.345  0.00  0.00    +0.000 A 
ATOM     27  N   UNL     1      44.080   2.127   9.399  0.00  0.00    +0.000 NA
ATOM     28  C   UNL     1      44.716   2.367   8.301  0.00  0.00    +0.000 A 
ATOM     29  N   UNL     1      45.470   3.486   8.063  0.00  0.00    +0.000 N 
ATOM     30  C   UNL     1      45.611   4.498   8.980  0.00  0.00    +0.000 A 
ATOM     31  O   UNL     1      46.275   5.500   8.726  0.00  0.00    +0.000 OA
ATOM     32  C   UNL     1      44.910   4.284  10.231  0.00  0.00    +0.000 A 
ATOM     33  H   UNL     1      45.945   3.613   7.181  0.00  0.00    +0.000 HD
ENDBRANCH  20  23
ENDBRANCH  18  19
ENDBRANCH   4  18
TORSDOF 6
ENDMDL
MODEL 6
REMARK VINA RESULT:    -6.610      2.329      3.077
REMARK INTER + INTRA:          -9.831
REMARK INTER:                  -9.087
REMARK INTRA:                  -0.744
REMARK UNBOUND:                -0.902
REMARK  Name = 
REMARK  6 active torsions:
REMARK  status: ('A' for Active; 'I' for Inactive)
REMARK    1  A    between atoms: C_2  and  C_25
REMARK    2  A    between atoms: N_3  and  C_4
REMARK    3  A    between atoms: C_4  and  C_5
REMARK    4  A    between atoms: C_8  and  C_9
REMARK    5  A    between atoms: C_9  and  N_10
REMARK    6  A    between atoms: C_11  and  C_13
REMARK                            x       y       z     vdW  Elec       q    Type
REMARK                         _______ _______ _______ _____ _____    ______ ____
ROOT
ATOM      1  C   UNL     1      46.098   6.717  12.058  0.00  0.00    +0.000 A 
ATOM      2  C   UNL     1      46.247   8.051  12.430  0.00  0.00    +0.000 A 
ATOM      3  C   UNL     1      47.097   8.369  13.489  0.00  0.00    +0.000 A 
ATOM      4  C   UNL     1      47.765   7.352  14.173  0.00  0.00    +0.000 A 
ATOM      5  C   UNL     1      47.561   6.050  13.729  0.00  0.00    +0.000 A 
ATOM      6  N   UNL     1      46.743   5.711  12.704  0.00  0.00    +0.000 NA
ENDROOT
BRANCH   1   7
ATOM      7  C   UNL     1      45.192   6.348  10.908  0.00  0.00    +0.000 C 
BRANCH   7  10
ATOM      8  O   UNL     1      43.715   4.476   9.418  0.00  0.00    +0.000 OA
ATOM      9  C   UNL     1      44.938   4.470   9.335  0.00  0.00    +0.000 C 
ATOM     10  N   UNL     1      45.751   5.309  10.068  0.00  0.00    +0.000 N 
ATOM     11  H   UNL     1      46.738   5.342   9.828  0.00  0.00    +0.000 HD
BRANCH   9  12
ATOM     12  C   UNL     1      45.631   3.526   8.415  0.00  0.00    +0.000 A 
ATOM     13  C   UNL     1      45.693   2.176   8.742  0.00  0.00    +0.000 A 
ATOM     14  N   UNL     1      46.339   1.267   7.966  0.00  0.00    +0.000 NA
ATOM     15  C   UNL     1      46.917   1.772   6.853  0.00  0.00    +0.000 A 
ATOM     16  C   UNL     1      46.851   3.117   6.522  0.00  0.00    +0.000 A 
ATOM     17  N   UNL     1      46.207   4.033   7.288  0.00  0.00    +0.000 NA
ENDBRANCH   9  12
ENDBRANCH   7  10
ENDBRANCH   1   7
BRANCH   4  18
ATOM     18  C   UNL     1      48.701   7.650  15.307  0.00  0.00    +0.000 C 
BRANCH  18  19
ATOM     19  N   UNL     1      49.393   6.459  15.733  0.00  0.00    +0.000 N 
ATOM     20  C   UNL     1      49.197   5.912  16.977  0.00  0.00    +0.000 C 
ATOM     21  O   UNL     1      48.382   6.377  17.770  0.00  0.00    +0.000 OA
ATOM     22  H   UNL     1      50.230   6.212  15.216  0.00  0.00    +0.000 HD
BRANCH  20  23
ATOM     23  C   UNL     1      49.961   4.694  17.275  0.00  0.00    +0.000 A 
ATOM     24  C   UNL     1      49.386   3.448  17.066  0.00  0.00    +0.000 A 
ATOM     25  S   UNL     1      50.443   2.147  17.387  0.00  0.00    +0.000 S 
ATOM     26  C   UNL     1      51.688   3.203  17.868  0.00  0.00    +0.000 A 
ATOM     27  N   UNL     1      52.893   2.725  18.283  0.00  0.00    +0.000 NA
ATOM     28  C   UNL     1      53.731   3.637  18.645  0.00  0.00    +0.000 A 
ATOM     29  N   UNL     1      53.476   4.983  18.635  0.00  0.00    +0.000 N 
ATOM     30  C   UNL     1      52.283   5.512  18.208  0.00  0.00    +0.000 A 
ATOM     31  O   UNL     1      52.094   6.725  18.188  0.00  0.00    +0.000 OA
ATOM     32  C   UNL     1      51.304   4.530  17.782  0.00  0.00    +0.000 A 
ATOM     33  H   UNL     1      54.177   5.646  18.933  0.00  0.00    +0.000 HD
ENDBRANCH  20  23
ENDBRANCH  18  19
ENDBRANCH   4  18
TORSDOF 6
ENDMDL
MODEL 7
REMARK VINA RESULT:    -6.509      5.051      7.520
REMARK INTER + INTRA:          -9.695
REMARK INTER:                  -8.824
REMARK INTRA:                  -0.871
REMARK UNBOUND:                -0.902
REMARK  Name = 
REMARK  6 active torsions:
REMARK  status: ('A' for Active; 'I' for Inactive)
REMARK    1  A    between atoms: C_2  and  C_25
REMARK    2  A    between atoms: N_3  and  C_4
REMARK    3  A    between atoms: C_4  and  C_5
REMARK    4  A    between atoms: C_8  and  C_9
REMARK    5  A    between atoms: C_9  and  N_10
REMARK    6  A    between atoms: C_11  and  C_13
REMARK                            x       y       z     vdW  Elec       q    Type
REMARK                         _______ _______ _______ _____ _____    ______ ____
ROOT
ATOM      1  C   UNL     1      50.643   8.793  11.331  0.00  0.00    +0.000 A 
ATOM      2  C   UNL     1      50.160   7.512  11.595  0.00  0.00    +0.000 A 
ATOM      3  C   UNL     1      48.834   7.357  11.998  0.00  0.00    +0.000 A 
ATOM      4  C   UNL     1      48.020   8.480  12.154  0.00  0.00    +0.000 A 
ATOM      5  C   UNL     1      48.583   9.717  11.863  0.00  0.00    +0.000 A 
ATOM      6  N   UNL     1      49.868   9.899  11.469  0.00  0.00    +0.000 NA
ENDROOT
BRANCH   1   7
ATOM      7  C   UNL     1      52.072   8.986  10.884  0.00  0.00    +0.000 C 
BRANCH   7  10
ATOM      8  O   UNL     1      54.419   7.469  10.576  0.00  0.00    +0.000 OA
ATOM      9  C   UNL     1      53.565   7.429   9.698  0.00  0.00    +0.000 C 
ATOM     10  N   UNL     1      52.409   8.178   9.730  0.00  0.00    +0.000 N 
ATOM     11  H   UNL     1      51.690   7.972   9.041  0.00  0.00    +0.000 HD
BRANCH   9  12
ATOM     12  C   UNL     1      53.740   6.544   8.511  0.00  0.00    +0.000 A 
ATOM     13  C   UNL     1      53.292   6.974   7.268  0.00  0.00    +0.000 A 
ATOM     14  N   UNL     1      53.388   6.205   6.152  0.00  0.00    +0.000 NA
ATOM     15  C   UNL     1      53.951   4.990   6.341  0.00  0.00    +0.000 A 
ATOM     16  C   UNL     1      54.404   4.562   7.580  0.00  0.00    +0.000 A 
ATOM     17  N   UNL     1      54.315   5.322   8.700  0.00  0.00    +0.000 NA
ENDBRANCH   9  12
ENDBRANCH   7  10
ENDBRANCH   1   7
BRANCH   4  18
ATOM     18  C   UNL     1      46.583   8.358  12.570  0.00  0.00    +0.000 C 
BRANCH  18  19
ATOM     19  N   UNL     1      46.095   7.019  12.355  0.00  0.00    +0.000 N 
ATOM     20  C   UNL     1      44.913   6.774  11.700  0.00  0.00    +0.000 C 
ATOM     21  O   UNL     1      44.239   7.680  11.215  0.00  0.00    +0.000 OA
ATOM     22  H   UNL     1      46.485   6.293  12.947  0.00  0.00    +0.000 HD
BRANCH  20  23
ATOM     23  C   UNL     1      44.540   5.363  11.544  0.00  0.00    +0.000 A 
ATOM     24  C   UNL     1      43.856   4.711  12.561  0.00  0.00    +0.000 A 
ATOM     25  S   UNL     1      43.433   3.103  12.178  0.00  0.00    +0.000 S 
ATOM     26  C   UNL     1      44.198   3.204  10.661  0.00  0.00    +0.000 A 
ATOM     27  N   UNL     1      44.213   2.141   9.811  0.00  0.00    +0.000 NA
ATOM     28  C   UNL     1      44.853   2.350   8.709  0.00  0.00    +0.000 A 
ATOM     29  N   UNL     1      45.482   3.522   8.380  0.00  0.00    +0.000 N 
ATOM     30  C   UNL     1      45.477   4.625   9.197  0.00  0.00    +0.000 A 
ATOM     31  O   UNL     1      46.030   5.669   8.861  0.00  0.00    +0.000 OA
ATOM     32  C   UNL     1      44.765   4.448  10.448  0.00  0.00    +0.000 A 
ATOM     33  H   UNL     1      45.968   3.620   7.500  0.00  0.00    +0.000 HD
ENDBRANCH  20  23
ENDBRANCH  18  19
ENDBRANCH   4  18
TORSDOF 6
ENDMDL
MODEL 8
REMARK VINA RESULT:    -6.493      5.671      8.208
REMARK INTER + INTRA:          -9.673
REMARK INTER:                  -8.811
REMARK INTRA:                  -0.862
REMARK UNBOUND:                -0.902
REMARK  Name = 
REMARK  6 active torsions:
REMARK  status: ('A' for Active; 'I' for Inactive)
REMARK    1  A    between atoms: C_2  and  C_25
REMARK    2  A    between atoms: N_3  and  C_4
REMARK    3  A    between atoms: C_4  and  C_5
REMARK    4  A    between atoms: C_8  and  C_9
REMARK    5  A    between atoms: C_9  and  N_10
REMARK    6  A    between atoms: C_11  and  C_13
REMARK                            x       y       z     vdW  Elec       q    Type
REMARK                         _______ _______ _______ _____ _____    ______ ____
ROOT
ATOM      1  C   UNL     1      49.274   7.219  13.864  0.00  0.00    +0.000 A 
ATOM      2  C   UNL     1      49.061   7.351  12.493  0.00  0.00    +0.000 A 
ATOM      3  C   UNL     1      49.968   8.089  11.734  0.00  0.00    +0.000 A 
ATOM      4  C   UNL     1      51.058   8.700  12.356  0.00  0.00    +0.000 A 
ATOM      5  C   UNL     1      51.195   8.510  13.726  0.00  0.00    +0.000 A 
ATOM      6  N   UNL     1      50.330   7.800  14.490  0.00  0.00    +0.000 NA
ENDROOT
BRANCH   1   7
ATOM      7  C   UNL     1      48.310   6.417  14.707  0.00  0.00    +0.000 C 
BRANCH   7  10
ATOM      8  O   UNL     1      47.498   3.831  13.960  0.00  0.00    +0.000 OA
ATOM      9  C   UNL     1      46.758   4.779  13.723  0.00  0.00    +0.000 C 
ATOM     10  N   UNL     1      47.091   6.088  13.998  0.00  0.00    +0.000 N 
ATOM     11  H   UNL     1      46.363   6.792  13.910  0.00  0.00    +0.000 HD
BRANCH   9  12
ATOM     12  C   UNL     1      45.421   4.560  13.101  0.00  0.00    +0.000 A 
ATOM     13  C   UNL     1      44.571   5.644  12.911  0.00  0.00    +0.000 A 
ATOM     14  N   UNL     1      43.327   5.510  12.383  0.00  0.00    +0.000 NA
ATOM     15  C   UNL     1      42.977   4.246  12.056  0.00  0.00    +0.000 A 
ATOM     16  C   UNL     1      43.826   3.165  12.239  0.00  0.00    +0.000 A 
ATOM     17  N   UNL     1      45.071   3.286  12.763  0.00  0.00    +0.000 NA
ENDBRANCH   9  12
ENDBRANCH   7  10
ENDBRANCH   1   7
BRANCH   4  18
ATOM     18  C   UNL     1      52.068   9.489  11.575  0.00  0.00    +0.000 C 
BRANCH  18  19
ATOM     19  N   UNL     1      52.227   8.954  10.246  0.00  0.00    +0.000 N 
ATOM     20  C   UNL     1      53.464   8.660   9.726  0.00  0.00    +0.000 C 
ATOM     21  O   UNL     1      54.493   8.788  10.385  0.00  0.00    +0.000 OA
ATOM     22  H   UNL     1      51.446   9.076   9.611  0.00  0.00    +0.000 HD
BRANCH  20  23
ATOM     23  C   UNL     1      53.478   8.113   8.363  0.00  0.00    +0.000 A 
ATOM     24  C   UNL     1      53.355   8.964   7.274  0.00  0.00    +0.000 A 
ATOM     25  S   UNL     1      53.475   8.168   5.769  0.00  0.00    +0.000 S 
ATOM     26  C   UNL     1      53.641   6.651   6.521  0.00  0.00    +0.000 A 
ATOM     27  N   UNL     1      53.779   5.514   5.785  0.00  0.00    +0.000 NA
ATOM     28  C   UNL     1      53.866   4.434   6.486  0.00  0.00    +0.000 A 
ATOM     29  N   UNL     1      53.824   4.383   7.855  0.00  0.00    +0.000 N 
ATOM     30  C   UNL     1      53.704   5.504   8.638  0.00  0.00    +0.000 A 
ATOM     31  O   UNL     1      53.693   5.427   9.863  0.00  0.00    +0.000 OA
ATOM     32  C   UNL     1      53.609   6.750   7.901  0.00  0.00    +0.000 A 
ATOM     33  H   UNL     1      53.896   3.502   8.344  0.00  0.00    +0.000 HD
ENDBRANCH  20  23
ENDBRANCH  18  19
ENDBRANCH   4  18
TORSDOF 6
ENDMDL
MODEL 9
REMARK VINA RESULT:    -6.403      3.179      4.685
REMARK INTER + INTRA:          -9.551
REMARK INTER:                  -8.483
REMARK INTRA:                  -1.068
REMARK UNBOUND:                -0.902
REMARK  Name = 
REMARK  6 active torsions:
REMARK  status: ('A' for Active; 'I' for Inactive)
REMARK    1  A    between atoms: C_2  and  C_25
REMARK    2  A    between atoms: N_3  and  C_4
REMARK    3  A    between atoms: C_4  and  C_5
REMARK    4  A    between atoms: C_8  and  C_9
REMARK    5  A    between atoms: C_9  and  N_10
REMARK    6  A    between atoms: C_11  and  C_13
REMARK                            x       y       z     vdW  Elec       q    Type
REMARK                         _______ _______ _______ _____ _____    ______ ____
ROOT
ATOM      1  C   UNL     1      48.254   7.854  13.526  0.00  0.00    +0.000 A 
ATOM      2  C   UNL     1      47.881   8.862  14.413  0.00  0.00    +0.000 A 
ATOM      3  C   UNL     1      48.474   8.910  15.674  0.00  0.00    +0.000 A 
ATOM      4  C   UNL     1      49.411   7.942  16.038  0.00  0.00    +0.000 A 
ATOM      5  C   UNL     1      49.727   6.977  15.088  0.00  0.00    +0.000 A 
ATOM      6  N   UNL     1      49.168   6.905  13.856  0.00  0.00    +0.000 NA
ENDROOT
BRANCH   1   7
ATOM      7  C   UNL     1      47.633   7.786  12.151  0.00  0.00    +0.000 C 
BRANCH   7  10
ATOM      8  O   UNL     1      44.945   7.367  12.862  0.00  0.00    +0.000 OA
ATOM      9  C   UNL     1      45.552   6.477  12.277  0.00  0.00    +0.000 C 
ATOM     10  N   UNL     1      46.885   6.565  11.937  0.00  0.00    +0.000 N 
ATOM     11  H   UNL     1      47.267   5.850  11.323  0.00  0.00    +0.000 HD
BRANCH   9  12
ATOM     12  C   UNL     1      44.860   5.214  11.894  0.00  0.00    +0.000 A 
ATOM     13  C   UNL     1      44.290   4.421  12.883  0.00  0.00    +0.000 A 
ATOM     14  N   UNL     1      43.676   3.242  12.608  0.00  0.00    +0.000 NA
ATOM     15  C   UNL     1      43.660   2.895  11.300  0.00  0.00    +0.000 A 
ATOM     16  C   UNL     1      44.223   3.688  10.311  0.00  0.00    +0.000 A 
ATOM     17  N   UNL     1      44.837   4.869  10.574  0.00  0.00    +0.000 NA
ENDBRANCH   9  12
ENDBRANCH   7  10
ENDBRANCH   1   7
BRANCH   4  18
ATOM     18  C   UNL     1      50.086   7.965  17.378  0.00  0.00    +0.000 C 
BRANCH  18  19
ATOM     19  N   UNL     1      50.895   6.787  17.570  0.00  0.00    +0.000 N 
ATOM     20  C   UNL     1      51.003   6.172  18.793  0.00  0.00    +0.000 C 
ATOM     21  O   UNL     1      50.373   6.562  19.774  0.00  0.00    +0.000 OA
ATOM     22  H   UNL     1      51.601   6.602  16.866  0.00  0.00    +0.000 HD
BRANCH  20  23
ATOM     23  C   UNL     1      51.853   4.977  18.843  0.00  0.00    +0.000 A 
ATOM     24  C   UNL     1      53.050   5.008  19.545  0.00  0.00    +0.000 A 
ATOM     25  S   UNL     1      53.868   3.510  19.566  0.00  0.00    +0.000 S 
ATOM     26  C   UNL     1      52.678   2.783  18.591  0.00  0.00    +0.000 A 
ATOM     27  N   UNL     1      52.777   1.477  18.218  0.00  0.00    +0.000 NA
ATOM     28  C   UNL     1      51.820   1.067  17.456  0.00  0.00    +0.000 A 
ATOM     29  N   UNL     1      50.773   1.841  17.029  0.00  0.00    +0.000 N 
ATOM     30  C   UNL     1      50.622   3.156  17.394  0.00  0.00    +0.000 A 
ATOM     31  O   UNL     1      49.659   3.816  17.013  0.00  0.00    +0.000 OA
ATOM     32  C   UNL     1      51.668   3.669  18.257  0.00  0.00    +0.000 A 
ATOM     33  H   UNL     1      50.055   1.458  16.430  0.00  0.00    +0.000 HD
ENDBRANCH  20  23
ENDBRANCH  18  19
ENDBRANCH   4  18
TORSDOF 6
ENDMDL
