MODEL 1
REMARK VINA RESULT:    -8.659      0.000      0.000
REMARK INTER + INTRA:         -12.295
REMARK INTER:                 -11.696
REMARK INTRA:                  -0.599
REMARK UNBOUND:                -0.599
REMARK  Name = 
REMARK  7 active torsions:
REMARK  status: ('A' for Active; 'I' for Inactive)
REMARK    1  A    between atoms: C_1  and  C_2
REMARK    2  A    between atoms: C_2  and  N_3
REMARK    3  A    between atoms: C_2  and  C_16
REMARK    4  A    between atoms: C_4  and  C_6
REMARK    5  A    between atoms: C_19  and  O_20
REMARK    6  A    between atoms: O_20  and  C_21
REMARK    7  A    between atoms: C_21  and  C_22
REMARK                            x       y       z     vdW  Elec       q    Type
REMARK                         _______ _______ _______ _____ _____    ______ ____
ROOT
ATOM      1  C   UNL     1      47.626   8.889  12.353  0.00  0.00    +0.000 C 
ATOM      2  C   UNL     1      46.598   8.044  13.111  0.00  0.00    +0.000 C 
ENDROOT
BRANCH   2   3
ATOM      3  C   UNL     1      46.023   6.899  12.297  0.00  0.00    +0.000 A 
ATOM      4  C   UNL     1      45.088   6.052  12.909  0.00  0.00    +0.000 A 
ATOM      5  C   UNL     1      44.488   5.010  12.200  0.00  0.00    +0.000 A 
ATOM      6  C   UNL     1      44.813   4.791  10.865  0.00  0.00    +0.000 A 
ATOM      7  C   UNL     1      45.792   5.580  10.262  0.00  0.00    +0.000 A 
ATOM      8  C   UNL     1      46.393   6.625  10.973  0.00  0.00    +0.000 A 
BRANCH   6   9
ATOM      9  O   UNL     1      44.260   3.811  10.080  0.00  0.00    +0.000 OA
BRANCH   9  10
ATOM     10  C   UNL     1      44.437   4.018   8.671  0.00  0.00    +0.000 C 
BRANCH  10  11
ATOM     11  C   UNL     1      45.490   3.103   8.087  0.00  0.00    +0.000 A 
ATOM     12  C   UNL     1      46.375   3.534   7.102  0.00  0.00    +0.000 A 
ATOM     13  C   UNL     1      47.304   2.632   6.591  0.00  0.00    +0.000 A 
ATOM     14  C   UNL     1      47.319   1.325   7.063  0.00  0.00    +0.000 A 
ATOM     15  C   UNL     1      46.397   0.969   8.030  0.00  0.00    +0.000 A 
ATOM     16  N   UNL     1      45.485   1.822   8.544  0.00  0.00    +0.000 NA
ENDBRANCH  10  11
ENDBRANCH   9  10
ENDBRANCH   6   9
ENDBRANCH   2   3
BRANCH   2  17
ATOM     17  N   UNL     1      47.188   7.544  14.334  0.00  0.00    +0.000 N 
ATOM     18  C   UNL     1      48.282   6.722  14.378  0.00  0.00    +0.000 C 
ATOM     19  O   UNL     1      48.912   6.384  13.381  0.00  0.00    +0.000 OA
ATOM     20  H   UNL     1      46.697   7.761  15.191  0.00  0.00    +0.000 HD
BRANCH  18  21
ATOM     21  C   UNL     1      48.676   6.283  15.722  0.00  0.00    +0.000 A 
ATOM     22  C   UNL     1      49.565   7.033  16.476  0.00  0.00    +0.000 A 
ATOM     23  S   UNL     1      49.884   6.364  18.014  0.00  0.00    +0.000 S 
ATOM     24  C   UNL     1      48.889   5.019  17.700  0.00  0.00    +0.000 A 
ATOM     25  N   UNL     1      48.742   4.022  18.614  0.00  0.00    +0.000 NA
ATOM     26  C   UNL     1      47.995   3.045  18.223  0.00  0.00    +0.000 A 
ATOM     27  N   UNL     1      47.372   2.975  17.004  0.00  0.00    +0.000 N 
ATOM     28  C   UNL     1      47.434   3.988  16.079  0.00  0.00    +0.000 A 
ATOM     29  O   UNL     1      46.762   3.945  15.055  0.00  0.00    +0.000 OA
ATOM     30  C   UNL     1      48.297   5.094  16.451  0.00  0.00    +0.000 A 
ATOM     31  H   UNL     1      46.775   2.197  16.769  0.00  0.00    +0.000 HD
ENDBRANCH  18  21
ENDBRANCH   2  17
TORSDOF 6
ENDMDL
MODEL 2
REMARK VINA RESULT:    -8.014      2.624      3.630
REMARK INTER + INTRA:         -11.424
REMARK INTER:                 -10.297
REMARK INTRA:                  -1.128
REMARK UNBOUND:                -0.599
REMARK  Name = 
REMARK  7 active torsions:
REMARK  status: ('A' for Active; 'I' for Inactive)
REMARK    1  A    between atoms: C_1  and  C_2
REMARK    2  A    between atoms: C_2  and  N_3
REMARK    3  A    between atoms: C_2  and  C_16
REMARK    4  A    between atoms: C_4  and  C_6
REMARK    5  A    between atoms: C_19  and  O_20
REMARK    6  A    between atoms: O_20  and  C_21
REMARK    7  A    between atoms: C_21  and  C_22
REMARK                            x       y       z     vdW  Elec       q    Type
REMARK                         _______ _______ _______ _____ _____    ______ ____
ROOT
ATOM      1  C   UNL     1      47.192   4.102  16.044  0.00  0.00    +0.000 C 
ATOM      2  C   UNL     1      47.651   4.916  14.831  0.00  0.00    +0.000 C 
ENDROOT
BRANCH   2   3
ATOM      3  C   UNL     1      46.756   4.762  13.614  0.00  0.00    +0.000 A 
ATOM      4  C   UNL     1      46.630   5.850  12.739  0.00  0.00    +0.000 A 
ATOM      5  C   UNL     1      45.860   5.755  11.578  0.00  0.00    +0.000 A 
ATOM      6  C   UNL     1      45.196   4.572  11.271  0.00  0.00    +0.000 A 
ATOM      7  C   UNL     1      45.253   3.504  12.166  0.00  0.00    +0.000 A 
ATOM      8  C   UNL     1      46.026   3.599  13.329  0.00  0.00    +0.000 A 
BRANCH   6   9
ATOM      9  O   UNL     1      44.437   4.374  10.145  0.00  0.00    +0.000 OA
BRANCH   9  10
ATOM     10  C   UNL     1      44.382   3.010   9.706  0.00  0.00    +0.000 C 
BRANCH  10  11
ATOM     11  C   UNL     1      45.392   2.716   8.621  0.00  0.00    +0.000 A 
ATOM     12  C   UNL     1      45.737   3.662   7.660  0.00  0.00    +0.000 A 
ATOM     13  C   UNL     1      46.658   3.317   6.674  0.00  0.00    +0.000 A 
ATOM     14  C   UNL     1      47.200   2.037   6.665  0.00  0.00    +0.000 A 
ATOM     15  C   UNL     1      46.795   1.148   7.643  0.00  0.00    +0.000 A 
ATOM     16  N   UNL     1      45.905   1.456   8.611  0.00  0.00    +0.000 NA
ENDBRANCH  10  11
ENDBRANCH   9  10
ENDBRANCH   6   9
ENDBRANCH   2   3
BRANCH   2  17
ATOM     17  N   UNL     1      47.763   6.311  15.197  0.00  0.00    +0.000 N 
ATOM     18  C   UNL     1      48.925   6.907  15.609  0.00  0.00    +0.000 C 
ATOM     19  O   UNL     1      50.005   6.326  15.641  0.00  0.00    +0.000 OA
ATOM     20  H   UNL     1      46.900   6.839  15.222  0.00  0.00    +0.000 HD
BRANCH  18  21
ATOM     21  C   UNL     1      48.799   8.318  15.993  0.00  0.00    +0.000 A 
ATOM     22  C   UNL     1      49.242   9.321  15.145  0.00  0.00    +0.000 A 
ATOM     23  S   UNL     1      48.993  10.893  15.765  0.00  0.00    +0.000 S 
ATOM     24  C   UNL     1      48.338  10.281  17.212  0.00  0.00    +0.000 A 
ATOM     25  N   UNL     1      47.941  11.113  18.213  0.00  0.00    +0.000 NA
ATOM     26  C   UNL     1      47.507  10.510  19.268  0.00  0.00    +0.000 A 
ATOM     27  N   UNL     1      47.423   9.150  19.414  0.00  0.00    +0.000 N 
ATOM     28  C   UNL     1      47.746   8.273  18.407  0.00  0.00    +0.000 A 
ATOM     29  O   UNL     1      47.539   7.072  18.530  0.00  0.00    +0.000 OA
ATOM     30  C   UNL     1      48.281   8.899  17.211  0.00  0.00    +0.000 A 
ATOM     31  H   UNL     1      47.046   8.739  20.254  0.00  0.00    +0.000 HD
ENDBRANCH  18  21
ENDBRANCH   2  17
TORSDOF 6
ENDMDL
MODEL 3
REMARK VINA RESULT:    -8.000      1.627      2.066
REMARK INTER + INTRA:         -11.405
REMARK INTER:                 -10.297
REMARK INTRA:                  -1.108
REMARK UNBOUND:                -0.599
REMARK  Name = 
REMARK  7 active torsions:
REMARK  status: ('A' for Active; 'I' for Inactive)
REMARK    1  A    between atoms: C_1  and  C_2
REMARK    2  A    between atoms: C_2  and  N_3
REMARK    3  A    between atoms: C_2  and  C_16
REMARK    4  A    between atoms: C_4  and  C_6
REMARK    5  A    between atoms: C_19  and  O_20
REMARK    6  A    between atoms: O_20  and  C_21
REMARK    7  A    between atoms: C_21  and  C_22
REMARK                            x       y       z     vdW  Elec       q    Type
REMARK                         _______ _______ _______ _____ _____    ______ ____
ROOT
ATOM      1  C   UNL     1      47.946   8.612  12.293  0.00  0.00    +0.000 C 
ATOM      2  C   UNL     1      47.380   7.620  13.314  0.00  0.00    +0.000 C 
ENDROOT
BRANCH   2   3
ATOM      3  C   UNL     1      46.597   6.479  12.691  0.00  0.00    +0.000 A 
ATOM      4  C   UNL     1      46.020   6.679  11.429  0.00  0.00    +0.000 A 
ATOM      5  C   UNL     1      45.326   5.654  10.782  0.00  0.00    +0.000 A 
ATOM      6  C   UNL     1      45.194   4.408  11.386  0.00  0.00    +0.000 A 
ATOM      7  C   UNL     1      45.701   4.213  12.670  0.00  0.00    +0.000 A 
ATOM      8  C   UNL     1      46.396   5.240  13.318  0.00  0.00    +0.000 A 
BRANCH   6   9
ATOM      9  O   UNL     1      44.554   3.333  10.821  0.00  0.00    +0.000 OA
BRANCH   9  10
ATOM     10  C   UNL     1      44.214   3.512   9.439  0.00  0.00    +0.000 C 
BRANCH  10  11
ATOM     11  C   UNL     1      45.293   2.999   8.513  0.00  0.00    +0.000 A 
ATOM     12  C   UNL     1      45.746   1.684   8.567  0.00  0.00    +0.000 A 
ATOM     13  C   UNL     1      46.760   1.285   7.700  0.00  0.00    +0.000 A 
ATOM     14  C   UNL     1      47.303   2.207   6.813  0.00  0.00    +0.000 A 
ATOM     15  C   UNL     1      46.810   3.499   6.832  0.00  0.00    +0.000 A 
ATOM     16  N   UNL     1      45.829   3.914   7.660  0.00  0.00    +0.000 NA
ENDBRANCH  10  11
ENDBRANCH   9  10
ENDBRANCH   6   9
ENDBRANCH   2   3
BRANCH   2  17
ATOM     17  N   UNL     1      48.454   7.103  14.134  0.00  0.00    +0.000 N 
ATOM     18  C   UNL     1      48.932   7.725  15.256  0.00  0.00    +0.000 C 
ATOM     19  O   UNL     1      48.446   8.755  15.714  0.00  0.00    +0.000 OA
ATOM     20  H   UNL     1      48.919   6.272  13.792  0.00  0.00    +0.000 HD
BRANCH  18  21
ATOM     21  C   UNL     1      50.069   7.057  15.901  0.00  0.00    +0.000 A 
ATOM     22  C   UNL     1      51.347   7.584  15.797  0.00  0.00    +0.000 A 
ATOM     23  S   UNL     1      52.527   6.671  16.629  0.00  0.00    +0.000 S 
ATOM     24  C   UNL     1      51.376   5.511  17.107  0.00  0.00    +0.000 A 
ATOM     25  N   UNL     1      51.737   4.420  17.834  0.00  0.00    +0.000 NA
ATOM     26  C   UNL     1      50.769   3.602  18.086  0.00  0.00    +0.000 A 
ATOM     27  N   UNL     1      49.471   3.779  17.685  0.00  0.00    +0.000 N 
ATOM     28  C   UNL     1      49.047   4.899  17.010  0.00  0.00    +0.000 A 
ATOM     29  O   UNL     1      47.857   5.080  16.780  0.00  0.00    +0.000 OA
ATOM     30  C   UNL     1      50.105   5.831  16.664  0.00  0.00    +0.000 A 
ATOM     31  H   UNL     1      48.753   3.118  17.939  0.00  0.00    +0.000 HD
ENDBRANCH  18  21
ENDBRANCH   2  17
TORSDOF 6
ENDMDL
MODEL 4
REMARK VINA RESULT:    -7.992      1.814      2.293
REMARK INTER + INTRA:         -11.395
REMARK INTER:                 -10.438
REMARK INTRA:                  -0.957
REMARK UNBOUND:                -0.599
REMARK  Name = 
REMARK  7 active torsions:
REMARK  status: ('A' for Active; 'I' for Inactive)
REMARK    1  A    between atoms: C_1  and  C_2
REMARK    2  A    between atoms: C_2  and  N_3
REMARK    3  A    between atoms: C_2  and  C_16
REMARK    4  A    between atoms: C_4  and  C_6
REMARK    5  A    between atoms: C_19  and  O_20
REMARK    6  A    between atoms: O_20  and  C_21
REMARK    7  A    between atoms: C_21  and  C_22
REMARK                            x       y       z     vdW  Elec       q    Type
REMARK                         _______ _______ _______ _____ _____    ______ ____
ROOT
ATOM      1  C   UNL     1      49.420   7.369  13.065  0.00  0.00    +0.000 C 
ATOM      2  C   UNL     1      47.972   7.559  13.527  0.00  0.00    +0.000 C 
ENDROOT
BRANCH   2   3
ATOM      3  C   UNL     1      46.992   6.591  12.891  0.00  0.00    +0.000 A 
ATOM      4  C   UNL     1      46.335   6.986  11.716  0.00  0.00    +0.000 A 
ATOM      5  C   UNL     1      45.457   6.123  11.057  0.00  0.00    +0.000 A 
ATOM      6  C   UNL     1      45.216   4.849  11.560  0.00  0.00    +0.000 A 
ATOM      7  C   UNL     1      45.806   4.466  12.764  0.00  0.00    +0.000 A 
ATOM      8  C   UNL     1      46.686   5.331  13.424  0.00  0.00    +0.000 A 
BRANCH   6   9
ATOM      9  O   UNL     1      44.391   3.922  10.971  0.00  0.00    +0.000 OA
BRANCH   9  10
ATOM     10  C   UNL     1      44.161   4.145   9.573  0.00  0.00    +0.000 C 
BRANCH  10  11
ATOM     11  C   UNL     1      45.174   3.432   8.706  0.00  0.00    +0.000 A 
ATOM     12  C   UNL     1      45.413   2.066   8.825  0.00  0.00    +0.000 A 
ATOM     13  C   UNL     1      46.376   1.477   8.010  0.00  0.00    +0.000 A 
ATOM     14  C   UNL     1      47.084   2.266   7.110  0.00  0.00    +0.000 A 
ATOM     15  C   UNL     1      46.800   3.618   7.063  0.00  0.00    +0.000 A 
ATOM     16  N   UNL     1      45.872   4.215   7.840  0.00  0.00    +0.000 NA
ENDBRANCH  10  11
ENDBRANCH   9  10
ENDBRANCH   6   9
ENDBRANCH   2   3
BRANCH   2  17
ATOM     17  N   UNL     1      47.907   7.463  14.970  0.00  0.00    +0.000 N 
ATOM     18  C   UNL     1      48.516   8.340  15.826  0.00  0.00    +0.000 C 
ATOM     19  O   UNL     1      49.123   9.339  15.450  0.00  0.00    +0.000 OA
ATOM     20  H   UNL     1      47.447   6.644  15.344  0.00  0.00    +0.000 HD
BRANCH  18  21
ATOM     21  C   UNL     1      48.374   8.019  17.251  0.00  0.00    +0.000 A 
ATOM     22  C   UNL     1      48.002   8.998  18.161  0.00  0.00    +0.000 A 
ATOM     23  S   UNL     1      47.876   8.422  19.763  0.00  0.00    +0.000 S 
ATOM     24  C   UNL     1      48.370   6.860  19.303  0.00  0.00    +0.000 A 
ATOM     25  N   UNL     1      48.508   5.866  20.221  0.00  0.00    +0.000 NA
ATOM     26  C   UNL     1      48.934   4.747  19.737  0.00  0.00    +0.000 A 
ATOM     27  N   UNL     1      49.227   4.527  18.417  0.00  0.00    +0.000 N 
ATOM     28  C   UNL     1      49.037   5.478  17.444  0.00  0.00    +0.000 A 
ATOM     29  O   UNL     1      49.190   5.204  16.260  0.00  0.00    +0.000 OA
ATOM     30  C   UNL     1      48.599   6.770  17.941  0.00  0.00    +0.000 A 
ATOM     31  H   UNL     1      49.527   3.620  18.095  0.00  0.00    +0.000 HD
ENDBRANCH  18  21
ENDBRANCH   2  17
TORSDOF 6
ENDMDL
MODEL 5
REMARK VINA RESULT:    -7.987      1.899      2.627
REMARK INTER + INTRA:         -11.388
REMARK INTER:                 -10.437
REMARK INTRA:                  -0.950
REMARK UNBOUND:                -0.599
REMARK  Name = 
REMARK  7 active torsions:
REMARK  status: ('A' for Active; 'I' for Inactive)
REMARK    1  A    between atoms: C_1  and  C_2
REMARK    2  A    between atoms: C_2  and  N_3
REMARK    3  A    between atoms: C_2  and  C_16
REMARK    4  A    between atoms: C_4  and  C_6
REMARK    5  A    between atoms: C_19  and  O_20
REMARK    6  A    between atoms: O_20  and  C_21
REMARK    7  A    between atoms: C_21  and  C_22
REMARK                            x       y       z     vdW  Elec       q    Type
REMARK                         _______ _______ _______ _____ _____    ______ ____
ROOT
ATOM      1  C   UNL     1      48.994   7.523  12.873  0.00  0.00    +0.000 C 
ATOM      2  C   UNL     1      47.774   7.000  13.638  0.00  0.00    +0.000 C 
ENDROOT
BRANCH   2   3
ATOM      3  C   UNL     1      46.836   6.155  12.796  0.00  0.00    +0.000 A 
ATOM      4  C   UNL     1      46.515   6.604  11.506  0.00  0.00    +0.000 A 
ATOM      5  C   UNL     1      45.695   5.849  10.665  0.00  0.00    +0.000 A 
ATOM      6  C   UNL     1      45.177   4.632  11.096  0.00  0.00    +0.000 A 
ATOM      7  C   UNL     1      45.430   4.206  12.399  0.00  0.00    +0.000 A 
ATOM      8  C   UNL     1      46.251   4.962  13.243  0.00  0.00    +0.000 A 
BRANCH   6   9
ATOM      9  O   UNL     1      44.385   3.809  10.335  0.00  0.00    +0.000 OA
BRANCH   9  10
ATOM     10  C   UNL     1      44.469   4.053   8.924  0.00  0.00    +0.000 C 
BRANCH  10  11
ATOM     11  C   UNL     1      45.512   3.185   8.256  0.00  0.00    +0.000 A 
ATOM     12  C   UNL     1      46.376   3.686   7.287  0.00  0.00    +0.000 A 
ATOM     13  C   UNL     1      47.297   2.825   6.695  0.00  0.00    +0.000 A 
ATOM     14  C   UNL     1      47.322   1.488   7.074  0.00  0.00    +0.000 A 
ATOM     15  C   UNL     1      46.420   1.063   8.031  0.00  0.00    +0.000 A 
ATOM     16  N   UNL     1      45.518   1.874   8.621  0.00  0.00    +0.000 NA
ENDBRANCH  10  11
ENDBRANCH   9  10
ENDBRANCH   6   9
ENDBRANCH   2   3
BRANCH   2  17
ATOM     17  N   UNL     1      48.213   6.257  14.799  0.00  0.00    +0.000 N 
ATOM     18  C   UNL     1      48.653   6.834  15.960  0.00  0.00    +0.000 C 
ATOM     19  O   UNL     1      48.652   8.046  16.153  0.00  0.00    +0.000 OA
ATOM     20  H   UNL     1      48.268   5.252  14.694  0.00  0.00    +0.000 HD
BRANCH  18  21
ATOM     21  C   UNL     1      49.110   5.892  16.989  0.00  0.00    +0.000 A 
ATOM     22  C   UNL     1      48.196   5.212  17.779  0.00  0.00    +0.000 A 
ATOM     23  S   UNL     1      48.925   4.154  18.903  0.00  0.00    +0.000 S 
ATOM     24  C   UNL     1      50.488   4.614  18.410  0.00  0.00    +0.000 A 
ATOM     25  N   UNL     1      51.596   4.095  19.006  0.00  0.00    +0.000 NA
ATOM     26  C   UNL     1      52.712   4.567  18.562  0.00  0.00    +0.000 A 
ATOM     27  N   UNL     1      52.825   5.506  17.569  0.00  0.00    +0.000 N 
ATOM     28  C   UNL     1      51.739   6.006  16.892  0.00  0.00    +0.000 A 
ATOM     29  O   UNL     1      51.889   6.747  15.928  0.00  0.00    +0.000 OA
ATOM     30  C   UNL     1      50.455   5.538  17.382  0.00  0.00    +0.000 A 
ATOM     31  H   UNL     1      53.729   5.814  17.245  0.00  0.00    +0.000 HD
ENDBRANCH  18  21
ENDBRANCH   2  17
TORSDOF 6
ENDMDL
MODEL 6
REMARK VINA RESULT:    -7.713      3.301      4.289
REMARK INTER + INTRA:         -11.017
REMARK INTER:                  -9.855
REMARK INTRA:                  -1.162
REMARK UNBOUND:                -0.599
REMARK  Name = 
REMARK  7 active torsions:
REMARK  status: ('A' for Active; 'I' for Inactive)
REMARK    1  A    between atoms: C_1  and  C_2
REMARK    2  A    between atoms: C_2  and  N_3
REMARK    3  A    between atoms: C_2  and  C_16
REMARK    4  A    between atoms: C_4  and  C_6
REMARK    5  A    between atoms: C_19  and  O_20
REMARK    6  A    between atoms: O_20  and  C_21
REMARK    7  A    between atoms: C_21  and  C_22
REMARK                            x       y       z     vdW  Elec       q    Type
REMARK                         _______ _______ _______ _____ _____    ______ ____
ROOT
ATOM      1  C   UNL     1      45.077   9.359  12.476  0.00  0.00    +0.000 C 
ATOM      2  C   UNL     1      45.990   8.263  13.035  0.00  0.00    +0.000 C 
ENDROOT
BRANCH   2   3
ATOM      3  C   UNL     1      45.760   6.897  12.415  0.00  0.00    +0.000 A 
ATOM      4  C   UNL     1      45.856   5.768  13.241  0.00  0.00    +0.000 A 
ATOM      5  C   UNL     1      45.610   4.487  12.743  0.00  0.00    +0.000 A 
ATOM      6  C   UNL     1      45.265   4.309  11.407  0.00  0.00    +0.000 A 
ATOM      7  C   UNL     1      45.233   5.413  10.556  0.00  0.00    +0.000 A 
ATOM      8  C   UNL     1      45.480   6.697  11.056  0.00  0.00    +0.000 A 
BRANCH   6   9
ATOM      9  O   UNL     1      44.981   3.096  10.831  0.00  0.00    +0.000 OA
BRANCH   9  10
ATOM     10  C   UNL     1      44.468   3.187   9.494  0.00  0.00    +0.000 C 
BRANCH  10  11
ATOM     11  C   UNL     1      45.461   2.696   8.465  0.00  0.00    +0.000 A 
ATOM     12  C   UNL     1      45.865   3.489   7.395  0.00  0.00    +0.000 A 
ATOM     13  C   UNL     1      46.766   2.965   6.471  0.00  0.00    +0.000 A 
ATOM     14  C   UNL     1      47.229   1.664   6.631  0.00  0.00    +0.000 A 
ATOM     15  C   UNL     1      46.768   0.935   7.711  0.00  0.00    +0.000 A 
ATOM     16  N   UNL     1      45.896   1.416   8.622  0.00  0.00    +0.000 NA
ENDBRANCH  10  11
ENDBRANCH   9  10
ENDBRANCH   6   9
ENDBRANCH   2   3
BRANCH   2  17
ATOM     17  N   UNL     1      47.373   8.659  12.879  0.00  0.00    +0.000 N 
ATOM     18  C   UNL     1      48.199   8.994  13.918  0.00  0.00    +0.000 C 
ATOM     19  O   UNL     1      47.861   8.924  15.096  0.00  0.00    +0.000 OA
ATOM     20  H   UNL     1      47.704   8.766  11.929  0.00  0.00    +0.000 HD
BRANCH  18  21
ATOM     21  C   UNL     1      49.546   9.426  13.528  0.00  0.00    +0.000 A 
ATOM     22  C   UNL     1      50.090  10.591  14.047  0.00  0.00    +0.000 A 
ATOM     23  S   UNL     1      51.670  10.911  13.484  0.00  0.00    +0.000 S 
ATOM     24  C   UNL     1      51.655   9.534  12.483  0.00  0.00    +0.000 A 
ATOM     25  N   UNL     1      52.715   9.233  11.685  0.00  0.00    +0.000 NA
ATOM     26  C   UNL     1      52.547   8.186  10.947  0.00  0.00    +0.000 A 
ATOM     27  N   UNL     1      51.419   7.407  10.940  0.00  0.00    +0.000 N 
ATOM     28  C   UNL     1      50.355   7.632  11.778  0.00  0.00    +0.000 A 
ATOM     29  O   UNL     1      49.420   6.841  11.832  0.00  0.00    +0.000 OA
ATOM     30  C   UNL     1      50.475   8.823  12.600  0.00  0.00    +0.000 A 
ATOM     31  H   UNL     1      51.360   6.583  10.362  0.00  0.00    +0.000 HD
ENDBRANCH  18  21
ENDBRANCH   2  17
TORSDOF 6
ENDMDL
MODEL 7
REMARK VINA RESULT:    -7.675      2.130      4.251
REMARK INTER + INTRA:         -10.966
REMARK INTER:                  -9.869
REMARK INTRA:                  -1.097
REMARK UNBOUND:                -0.599
REMARK  Name = 
REMARK  7 active torsions:
REMARK  status: ('A' for Active; 'I' for Inactive)
REMARK    1  A    between atoms: C_1  and  C_2
REMARK    2  A    between atoms: C_2  and  N_3
REMARK    3  A    between atoms: C_2  and  C_16
REMARK    4  A    between atoms: C_4  and  C_6
REMARK    5  A    between atoms: C_19  and  O_20
REMARK    6  A    between atoms: O_20  and  C_21
REMARK    7  A    between atoms: C_21  and  C_22
REMARK                            x       y       z     vdW  Elec       q    Type
REMARK                         _______ _______ _______ _____ _____    ______ ____
ROOT
ATOM      1  C   UNL     1      47.091   4.223  15.956  0.00  0.00    +0.000 C 
ATOM      2  C   UNL     1      47.576   4.754  14.603  0.00  0.00    +0.000 C 
ENDROOT
BRANCH   2   3
ATOM      3  C   UNL     1      46.607   4.504  13.462  0.00  0.00    +0.000 A 
ATOM      4  C   UNL     1      46.245   5.586  12.648  0.00  0.00    +0.000 A 
ATOM      5  C   UNL     1      45.394   5.413  11.555  0.00  0.00    +0.000 A 
ATOM      6  C   UNL     1      44.887   4.153  11.254  0.00  0.00    +0.000 A 
ATOM      7  C   UNL     1      45.181   3.079  12.093  0.00  0.00    +0.000 A 
ATOM      8  C   UNL     1      46.034   3.253  13.189  0.00  0.00    +0.000 A 
BRANCH   6   9
ATOM      9  O   UNL     1      44.066   3.877  10.188  0.00  0.00    +0.000 OA
BRANCH   9  10
ATOM     10  C   UNL     1      44.554   4.364   8.930  0.00  0.00    +0.000 C 
BRANCH  10  11
ATOM     11  C   UNL     1      45.482   3.379   8.256  0.00  0.00    +0.000 A 
ATOM     12  C   UNL     1      45.513   2.034   8.615  0.00  0.00    +0.000 A 
ATOM     13  C   UNL     1      46.409   1.186   7.968  0.00  0.00    +0.000 A 
ATOM     14  C   UNL     1      47.257   1.702   6.994  0.00  0.00    +0.000 A 
ATOM     15  C   UNL     1      47.176   3.051   6.707  0.00  0.00    +0.000 A 
ATOM     16  N   UNL     1      46.318   3.896   7.316  0.00  0.00    +0.000 NA
ENDBRANCH  10  11
ENDBRANCH   9  10
ENDBRANCH   6   9
ENDBRANCH   2   3
BRANCH   2  17
ATOM     17  N   UNL     1      47.867   6.167  14.714  0.00  0.00    +0.000 N 
ATOM     18  C   UNL     1      48.916   6.682  15.428  0.00  0.00    +0.000 C 
ATOM     19  O   UNL     1      49.756   5.985  15.990  0.00  0.00    +0.000 OA
ATOM     20  H   UNL     1      47.194   6.797  14.299  0.00  0.00    +0.000 HD
BRANCH  18  21
ATOM     21  C   UNL     1      48.989   8.147  15.458  0.00  0.00    +0.000 A 
ATOM     22  C   UNL     1      48.970   8.829  16.665  0.00  0.00    +0.000 A 
ATOM     23  S   UNL     1      49.079  10.524  16.489  0.00  0.00    +0.000 S 
ATOM     24  C   UNL     1      49.096  10.405  14.791  0.00  0.00    +0.000 A 
ATOM     25  N   UNL     1      49.145  11.516  14.007  0.00  0.00    +0.000 NA
ATOM     26  C   UNL     1      49.106  11.277  12.739  0.00  0.00    +0.000 A 
ATOM     27  N   UNL     1      49.031  10.028  12.180  0.00  0.00    +0.000 N 
ATOM     28  C   UNL     1      49.050   8.876  12.928  0.00  0.00    +0.000 A 
ATOM     29  O   UNL     1      49.109   7.778  12.388  0.00  0.00    +0.000 OA
ATOM     30  C   UNL     1      49.050   9.090  14.364  0.00  0.00    +0.000 A 
ATOM     31  H   UNL     1      49.034   9.905  11.179  0.00  0.00    +0.000 HD
ENDBRANCH  18  21
ENDBRANCH   2  17
TORSDOF 6
ENDMDL
MODEL 8
REMARK VINA RESULT:    -7.355      4.291      8.365
REMARK INTER + INTRA:         -10.534
REMARK INTER:                  -9.444
REMARK INTRA:                  -1.090
REMARK UNBOUND:                -0.599
REMARK  Name = 
REMARK  7 active torsions:
REMARK  status: ('A' for Active; 'I' for Inactive)
REMARK    1  A    between atoms: C_1  and  C_2
REMARK    2  A    between atoms: C_2  and  N_3
REMARK    3  A    between atoms: C_2  and  C_16
REMARK    4  A    between atoms: C_4  and  C_6
REMARK    5  A    between atoms: C_19  and  O_20
REMARK    6  A    between atoms: O_20  and  C_21
REMARK    7  A    between atoms: C_21  and  C_22
REMARK                            x       y       z     vdW  Elec       q    Type
REMARK                         _______ _______ _______ _____ _____    ______ ____
ROOT
ATOM      1  C   UNL     1      48.343   7.728  17.686  0.00  0.00    +0.000 C 
ATOM      2  C   UNL     1      48.989   6.980  16.516  0.00  0.00    +0.000 C 
ENDROOT
BRANCH   2   3
ATOM      3  C   UNL     1      49.690   5.695  16.921  0.00  0.00    +0.000 A 
ATOM      4  C   UNL     1      48.911   4.545  17.114  0.00  0.00    +0.000 A 
ATOM      5  C   UNL     1      49.501   3.323  17.441  0.00  0.00    +0.000 A 
ATOM      6  C   UNL     1      50.881   3.226  17.585  0.00  0.00    +0.000 A 
ATOM      7  C   UNL     1      51.663   4.374  17.465  0.00  0.00    +0.000 A 
ATOM      8  C   UNL     1      51.072   5.599  17.137  0.00  0.00    +0.000 A 
BRANCH   6   9
ATOM      9  O   UNL     1      51.554   2.066  17.880  0.00  0.00    +0.000 OA
BRANCH   9  10
ATOM     10  C   UNL     1      52.916   2.264  18.284  0.00  0.00    +0.000 C 
BRANCH  10  11
ATOM     11  C   UNL     1      53.797   1.091  17.921  0.00  0.00    +0.000 A 
ATOM     12  C   UNL     1      54.729   1.162  16.890  0.00  0.00    +0.000 A 
ATOM     13  C   UNL     1      55.492   0.036  16.593  0.00  0.00    +0.000 A 
ATOM     14  C   UNL     1      55.297  -1.133  17.320  0.00  0.00    +0.000 A 
ATOM     15  C   UNL     1      54.340  -1.129  18.318  0.00  0.00    +0.000 A 
ATOM     16  N   UNL     1      53.587  -0.052  18.628  0.00  0.00    +0.000 NA
ENDBRANCH  10  11
ENDBRANCH   9  10
ENDBRANCH   6   9
ENDBRANCH   2   3
BRANCH   2  17
ATOM     17  N   UNL     1      47.992   6.709  15.503  0.00  0.00    +0.000 N 
ATOM     18  C   UNL     1      48.253   6.660  14.160  0.00  0.00    +0.000 C 
ATOM     19  O   UNL     1      49.381   6.774  13.689  0.00  0.00    +0.000 OA
ATOM     20  H   UNL     1      47.035   6.637  15.825  0.00  0.00    +0.000 HD
BRANCH  18  21
ATOM     21  C   UNL     1      47.082   6.434  13.306  0.00  0.00    +0.000 A 
ATOM     22  C   UNL     1      46.421   7.501  12.717  0.00  0.00    +0.000 A 
ATOM     23  S   UNL     1      45.095   7.030  11.751  0.00  0.00    +0.000 S 
ATOM     24  C   UNL     1      45.326   5.388  12.133  0.00  0.00    +0.000 A 
ATOM     25  N   UNL     1      44.492   4.428  11.648  0.00  0.00    +0.000 NA
ATOM     26  C   UNL     1      44.758   3.233  12.058  0.00  0.00    +0.000 A 
ATOM     27  N   UNL     1      45.788   2.905  12.901  0.00  0.00    +0.000 N 
ATOM     28  C   UNL     1      46.695   3.829  13.359  0.00  0.00    +0.000 A 
ATOM     29  O   UNL     1      47.674   3.479  14.008  0.00  0.00    +0.000 OA
ATOM     30  C   UNL     1      46.416   5.198  12.963  0.00  0.00    +0.000 A 
ATOM     31  H   UNL     1      45.963   1.947  13.161  0.00  0.00    +0.000 HD
ENDBRANCH  18  21
ENDBRANCH   2  17
TORSDOF 6
ENDMDL
MODEL 9
REMARK VINA RESULT:    -6.976      1.861      2.654
REMARK INTER + INTRA:         -10.022
REMARK INTER:                  -8.879
REMARK INTRA:                  -1.143
REMARK UNBOUND:                -0.599
REMARK  Name = 
REMARK  7 active torsions:
REMARK  status: ('A' for Active; 'I' for Inactive)
REMARK    1  A    between atoms: C_1  and  C_2
REMARK    2  A    between atoms: C_2  and  N_3
REMARK    3  A    between atoms: C_2  and  C_16
REMARK    4  A    between atoms: C_4  and  C_6
REMARK    5  A    between atoms: C_19  and  O_20
REMARK    6  A    between atoms: O_20  and  C_21
REMARK    7  A    between atoms: C_21  and  C_22
REMARK                            x       y       z     vdW  Elec       q    Type
REMARK                         _______ _______ _______ _____ _____    ______ ____
ROOT
ATOM      1  C   UNL     1      50.570   8.378  13.690  0.00  0.00    +0.000 C 
ATOM      2  C   UNL     1      49.181   8.515  14.322  0.00  0.00    +0.000 C 
ENDROOT
BRANCH   2   3
ATOM      3  C   UNL     1      48.046   8.090  13.407  0.00  0.00    +0.000 A 
ATOM      4  C   UNL     1      48.316   7.142  12.410  0.00  0.00    +0.000 A 
ATOM      5  C   UNL     1      47.305   6.676  11.567  0.00  0.00    +0.000 A 
ATOM      6  C   UNL     1      46.004   7.149  11.703  0.00  0.00    +0.000 A 
ATOM      7  C   UNL     1      45.733   8.143  12.643  0.00  0.00    +0.000 A 
ATOM      8  C   UNL     1      46.746   8.610  13.488  0.00  0.00    +0.000 A 
BRANCH   6   9
ATOM      9  O   UNL     1      44.940   6.735  10.941  0.00  0.00    +0.000 OA
BRANCH   9  10
ATOM     10  C   UNL     1      44.474   5.414  11.253  0.00  0.00    +0.000 C 
BRANCH  10  11
ATOM     11  C   UNL     1      44.804   4.419  10.164  0.00  0.00    +0.000 A 
ATOM     12  C   UNL     1      45.490   4.789   9.011  0.00  0.00    +0.000 A 
ATOM     13  C   UNL     1      45.740   3.826   8.038  0.00  0.00    +0.000 A 
ATOM     14  C   UNL     1      45.289   2.525   8.232  0.00  0.00    +0.000 A 
ATOM     15  C   UNL     1      44.601   2.240   9.396  0.00  0.00    +0.000 A 
ATOM     16  N   UNL     1      44.345   3.153  10.357  0.00  0.00    +0.000 NA
ENDBRANCH  10  11
ENDBRANCH   9  10
ENDBRANCH   6   9
ENDBRANCH   2   3
BRANCH   2  17
ATOM     17  N   UNL     1      49.136   7.767  15.559  0.00  0.00    +0.000 N 
ATOM     18  C   UNL     1      48.553   8.221  16.711  0.00  0.00    +0.000 C 
ATOM     19  O   UNL     1      47.948   9.287  16.785  0.00  0.00    +0.000 OA
ATOM     20  H   UNL     1      49.644   6.892  15.573  0.00  0.00    +0.000 HD
BRANCH  18  21
ATOM     21  C   UNL     1      48.677   7.326  17.867  0.00  0.00    +0.000 A 
ATOM     22  C   UNL     1      48.962   7.834  19.125  0.00  0.00    +0.000 A 
ATOM     23  S   UNL     1      49.051   6.636  20.338  0.00  0.00    +0.000 S 
ATOM     24  C   UNL     1      48.767   5.392  19.210  0.00  0.00    +0.000 A 
ATOM     25  N   UNL     1      48.748   4.086  19.592  0.00  0.00    +0.000 NA
ATOM     26  C   UNL     1      48.568   3.250  18.625  0.00  0.00    +0.000 A 
ATOM     27  N   UNL     1      48.396   3.598  17.311  0.00  0.00    +0.000 N 
ATOM     28  C   UNL     1      48.338   4.904  16.890  0.00  0.00    +0.000 A 
ATOM     29  O   UNL     1      48.058   5.177  15.728  0.00  0.00    +0.000 OA
ATOM     30  C   UNL     1      48.578   5.886  17.932  0.00  0.00    +0.000 A 
ATOM     31  H   UNL     1      48.230   2.898  16.605  0.00  0.00    +0.000 HD
ENDBRANCH  18  21
ENDBRANCH   2  17
TORSDOF 6
ENDMDL
