MODEL 1
REMARK VINA RESULT:    -7.602      0.000      0.000
REMARK INTER + INTRA:         -10.092
REMARK INTER:                  -9.602
REMARK INTRA:                  -0.490
REMARK UNBOUND:                -0.490
REMARK  Name = 
REMARK  5 active torsions:
REMARK  status: ('A' for Active; 'I' for Inactive)
REMARK    1  A    between atoms: C_2  and  O_3
REMARK    2  A    between atoms: C_2  and  C_4
REMARK    3  A    between atoms: C_7  and  O_8
REMARK    4  A    between atoms: O_8  and  C_9
REMARK    5  A    between atoms: C_9  and  C_10
REMARK                            x       y       z     vdW  Elec       q    Type
REMARK                         _______ _______ _______ _____ _____    ______ ____
ROOT
ATOM      1  C   UNL     1      46.312   2.033   7.908  0.00  0.00    +0.000 A 
ATOM      2  C   UNL     1      46.397   3.401   7.626  0.00  0.00    +0.000 A 
ATOM      3  C   UNL     1      45.492   4.275   8.233  0.00  0.00    +0.000 A 
ATOM      4  C   UNL     1      44.518   3.747   9.067  0.00  0.00    +0.000 A 
ATOM      5  N   UNL     1      44.411   2.432   9.353  0.00  0.00    +0.000 NA
ATOM      6  C   UNL     1      45.307   1.603   8.764  0.00  0.00    +0.000 A 
ENDROOT
BRANCH   1   8
ATOM      7  O   UNL     1      48.028   1.291   6.461  0.00  0.00    +0.000 OA
ATOM      8  C   UNL     1      47.193   1.017   7.304  0.00  0.00    +0.000 C 
BRANCH   8   9
ATOM      9  O   UNL     1      46.960  -0.238   7.741  0.00  0.00    +0.000 OA
ATOM     10  H   UNL     1      46.042  -0.554   7.661  0.00  0.00    +0.000 HD
ENDBRANCH   8   9
ENDBRANCH   1   8
BRANCH   4  11
ATOM     11  O   UNL     1      43.636   4.639   9.639  0.00  0.00    +0.000 OA
BRANCH  11  12
ATOM     12  C   UNL     1      43.345   4.300  11.000  0.00  0.00    +0.000 C 
BRANCH  12  13
ATOM     13  C   UNL     1      44.474   4.728  11.900  0.00  0.00    +0.000 A 
ATOM     14  C   UNL     1      45.019   6.014  11.865  0.00  0.00    +0.000 A 
ATOM     15  C   UNL     1      46.102   6.331  12.682  0.00  0.00    +0.000 A 
ATOM     16  C   UNL     1      46.616   5.341  13.502  0.00  0.00    +0.000 A 
ATOM     17  N   UNL     1      46.133   4.082  13.552  0.00  0.00    +0.000 NA
ATOM     18  C   UNL     1      45.081   3.804  12.747  0.00  0.00    +0.000 A 
ENDBRANCH  12  13
ENDBRANCH  11  12
ENDBRANCH   4  11
TORSDOF 5
ENDMDL
MODEL 2
REMARK VINA RESULT:    -7.003      2.534      5.838
REMARK INTER + INTRA:          -9.336
REMARK INTER:                  -8.945
REMARK INTRA:                  -0.391
REMARK UNBOUND:                -0.490
REMARK  Name = 
REMARK  5 active torsions:
REMARK  status: ('A' for Active; 'I' for Inactive)
REMARK    1  A    between atoms: C_2  and  O_3
REMARK    2  A    between atoms: C_2  and  C_4
REMARK    3  A    between atoms: C_7  and  O_8
REMARK    4  A    between atoms: O_8  and  C_9
REMARK    5  A    between atoms: C_9  and  C_10
REMARK                            x       y       z     vdW  Elec       q    Type
REMARK                         _______ _______ _______ _____ _____    ______ ____
ROOT
ATOM      1  C   UNL     1      46.488   5.256  12.994  0.00  0.00    +0.000 A 
ATOM      2  C   UNL     1      46.131   6.046  11.897  0.00  0.00    +0.000 A 
ATOM      3  C   UNL     1      45.308   5.502  10.909  0.00  0.00    +0.000 A 
ATOM      4  C   UNL     1      44.904   4.181  11.036  0.00  0.00    +0.000 A 
ATOM      5  N   UNL     1      45.236   3.395  12.082  0.00  0.00    +0.000 NA
ATOM      6  C   UNL     1      46.026   3.947  13.035  0.00  0.00    +0.000 A 
ENDROOT
BRANCH   1   8
ATOM      7  O   UNL     1      47.922   4.945  14.848  0.00  0.00    +0.000 OA
ATOM      8  C   UNL     1      47.375   5.714  14.079  0.00  0.00    +0.000 C 
BRANCH   8   9
ATOM      9  O   UNL     1      47.489   7.056  14.161  0.00  0.00    +0.000 OA
ATOM     10  H   UNL     1      46.987   7.568  13.502  0.00  0.00    +0.000 HD
ENDBRANCH   8   9
ENDBRANCH   1   8
BRANCH   4  11
ATOM     11  O   UNL     1      44.101   3.675  10.036  0.00  0.00    +0.000 OA
BRANCH  11  12
ATOM     12  C   UNL     1      44.548   4.081   8.738  0.00  0.00    +0.000 C 
BRANCH  12  13
ATOM     13  C   UNL     1      45.570   3.109   8.207  0.00  0.00    +0.000 A 
ATOM     14  C   UNL     1      46.521   3.466   7.247  0.00  0.00    +0.000 A 
ATOM     15  C   UNL     1      47.401   2.506   6.754  0.00  0.00    +0.000 A 
ATOM     16  C   UNL     1      47.293   1.210   7.231  0.00  0.00    +0.000 A 
ATOM     17  N   UNL     1      46.377   0.820   8.142  0.00  0.00    +0.000 NA
ATOM     18  C   UNL     1      45.536   1.774   8.602  0.00  0.00    +0.000 A 
ENDBRANCH  12  13
ENDBRANCH  11  12
ENDBRANCH   4  11
TORSDOF 5
ENDMDL
MODEL 3
REMARK VINA RESULT:    -6.392      2.537      6.330
REMARK INTER + INTRA:          -8.564
REMARK INTER:                  -8.111
REMARK INTRA:                  -0.453
REMARK UNBOUND:                -0.490
REMARK  Name = 
REMARK  5 active torsions:
REMARK  status: ('A' for Active; 'I' for Inactive)
REMARK    1  A    between atoms: C_2  and  O_3
REMARK    2  A    between atoms: C_2  and  C_4
REMARK    3  A    between atoms: C_7  and  O_8
REMARK    4  A    between atoms: O_8  and  C_9
REMARK    5  A    between atoms: C_9  and  C_10
REMARK                            x       y       z     vdW  Elec       q    Type
REMARK                         _______ _______ _______ _____ _____    ______ ____
ROOT
ATOM      1  C   UNL     1      45.407   7.269  12.460  0.00  0.00    +0.000 A 
ATOM      2  C   UNL     1      44.468   6.976  11.466  0.00  0.00    +0.000 A 
ATOM      3  C   UNL     1      44.293   5.648  11.069  0.00  0.00    +0.000 A 
ATOM      4  C   UNL     1      45.087   4.672  11.653  0.00  0.00    +0.000 A 
ATOM      5  N   UNL     1      46.002   4.928  12.611  0.00  0.00    +0.000 NA
ATOM      6  C   UNL     1      46.148   6.221  12.990  0.00  0.00    +0.000 A 
ENDROOT
BRANCH   1   8
ATOM      7  O   UNL     1      45.215   9.625  12.417  0.00  0.00    +0.000 OA
ATOM      8  C   UNL     1      45.697   8.635  12.935  0.00  0.00    +0.000 C 
BRANCH   8   9
ATOM      9  O   UNL     1      46.569   8.682  13.963  0.00  0.00    +0.000 OA
ATOM     10  H   UNL     1      46.196   8.513  14.848  0.00  0.00    +0.000 HD
ENDBRANCH   8   9
ENDBRANCH   1   8
BRANCH   4  11
ATOM     11  O   UNL     1      44.893   3.374  11.229  0.00  0.00    +0.000 OA
BRANCH  11  12
ATOM     12  C   UNL     1      44.270   3.324   9.940  0.00  0.00    +0.000 C 
BRANCH  12  13
ATOM     13  C   UNL     1      45.282   2.970   8.882  0.00  0.00    +0.000 A 
ATOM     14  C   UNL     1      45.781   3.908   7.974  0.00  0.00    +0.000 A 
ATOM     15  C   UNL     1      46.670   3.506   6.981  0.00  0.00    +0.000 A 
ATOM     16  C   UNL     1      47.024   2.168   6.919  0.00  0.00    +0.000 A 
ATOM     17  N   UNL     1      46.549   1.228   7.763  0.00  0.00    +0.000 NA
ATOM     18  C   UNL     1      45.687   1.648   8.717  0.00  0.00    +0.000 A 
ENDBRANCH  12  13
ENDBRANCH  11  12
ENDBRANCH   4  11
TORSDOF 5
ENDMDL
MODEL 4
REMARK VINA RESULT:    -5.856      2.927      5.917
REMARK INTER + INTRA:          -7.887
REMARK INTER:                  -7.484
REMARK INTRA:                  -0.402
REMARK UNBOUND:                -0.490
REMARK  Name = 
REMARK  5 active torsions:
REMARK  status: ('A' for Active; 'I' for Inactive)
REMARK    1  A    between atoms: C_2  and  O_3
REMARK    2  A    between atoms: C_2  and  C_4
REMARK    3  A    between atoms: C_7  and  O_8
REMARK    4  A    between atoms: O_8  and  C_9
REMARK    5  A    between atoms: C_9  and  C_10
REMARK                            x       y       z     vdW  Elec       q    Type
REMARK                         _______ _______ _______ _____ _____    ______ ____
ROOT
ATOM      1  C   UNL     1      47.612   6.224  13.047  0.00  0.00    +0.000 A 
ATOM      2  C   UNL     1      47.190   5.019  13.619  0.00  0.00    +0.000 A 
ATOM      3  C   UNL     1      46.056   4.385  13.106  0.00  0.00    +0.000 A 
ATOM      4  C   UNL     1      45.368   4.996  12.068  0.00  0.00    +0.000 A 
ATOM      5  N   UNL     1      45.751   6.159  11.500  0.00  0.00    +0.000 NA
ATOM      6  C   UNL     1      46.860   6.751  12.005  0.00  0.00    +0.000 A 
ENDROOT
BRANCH   1   8
ATOM      7  O   UNL     1      49.262   7.909  12.888  0.00  0.00    +0.000 OA
ATOM      8  C   UNL     1      48.774   6.994  13.526  0.00  0.00    +0.000 C 
BRANCH   8   9
ATOM      9  O   UNL     1      49.264   6.567  14.708  0.00  0.00    +0.000 OA
ATOM     10  H   UNL     1      49.379   5.603  14.799  0.00  0.00    +0.000 HD
ENDBRANCH   8   9
ENDBRANCH   1   8
BRANCH   4  11
ATOM     11  O   UNL     1      44.248   4.347  11.595  0.00  0.00    +0.000 OA
BRANCH  11  12
ATOM     12  C   UNL     1      44.024   4.616  10.206  0.00  0.00    +0.000 C 
BRANCH  12  13
ATOM     13  C   UNL     1      44.895   3.731   9.353  0.00  0.00    +0.000 A 
ATOM     14  C   UNL     1      45.724   4.236   8.347  0.00  0.00    +0.000 A 
ATOM     15  C   UNL     1      46.461   3.360   7.553  0.00  0.00    +0.000 A 
ATOM     16  C   UNL     1      46.335   2.000   7.784  0.00  0.00    +0.000 A 
ATOM     17  N   UNL     1      45.532   1.472   8.731  0.00  0.00    +0.000 NA
ATOM     18  C   UNL     1      44.828   2.347   9.486  0.00  0.00    +0.000 A 
ENDBRANCH  12  13
ENDBRANCH  11  12
ENDBRANCH   4  11
TORSDOF 5
ENDMDL
MODEL 5
REMARK VINA RESULT:    -5.831      3.683      5.887
REMARK INTER + INTRA:          -7.855
REMARK INTER:                  -7.505
REMARK INTRA:                  -0.350
REMARK UNBOUND:                -0.490
REMARK  Name = 
REMARK  5 active torsions:
REMARK  status: ('A' for Active; 'I' for Inactive)
REMARK    1  A    between atoms: C_2  and  O_3
REMARK    2  A    between atoms: C_2  and  C_4
REMARK    3  A    between atoms: C_7  and  O_8
REMARK    4  A    between atoms: O_8  and  C_9
REMARK    5  A    between atoms: C_9  and  C_10
REMARK                            x       y       z     vdW  Elec       q    Type
REMARK                         _______ _______ _______ _____ _____    ______ ____
ROOT
ATOM      1  C   UNL     1      44.929   4.299  11.809  0.00  0.00    +0.000 A 
ATOM      2  C   UNL     1      45.209   5.616  12.190  0.00  0.00    +0.000 A 
ATOM      3  C   UNL     1      46.103   5.843  13.239  0.00  0.00    +0.000 A 
ATOM      4  C   UNL     1      46.654   4.748  13.888  0.00  0.00    +0.000 A 
ATOM      5  N   UNL     1      46.399   3.468  13.544  0.00  0.00    +0.000 NA
ATOM      6  C   UNL     1      45.538   3.271  12.516  0.00  0.00    +0.000 A 
ENDROOT
BRANCH   1   8
ATOM      7  O   UNL     1      43.415   2.864  10.698  0.00  0.00    +0.000 OA
ATOM      8  C   UNL     1      43.981   3.941  10.738  0.00  0.00    +0.000 C 
BRANCH   8   9
ATOM      9  O   UNL     1      43.833   4.895   9.797  0.00  0.00    +0.000 OA
ATOM     10  H   UNL     1      44.568   5.530   9.714  0.00  0.00    +0.000 HD
ENDBRANCH   8   9
ENDBRANCH   1   8
BRANCH   4  11
ATOM     11  O   UNL     1      47.524   5.011  14.926  0.00  0.00    +0.000 OA
BRANCH  11  12
ATOM     12  C   UNL     1      47.233   4.212  16.078  0.00  0.00    +0.000 C 
BRANCH  12  13
ATOM     13  C   UNL     1      48.493   3.581  16.611  0.00  0.00    +0.000 A 
ATOM     14  C   UNL     1      49.399   4.275  17.418  0.00  0.00    +0.000 A 
ATOM     15  C   UNL     1      50.576   3.654  17.830  0.00  0.00    +0.000 A 
ATOM     16  C   UNL     1      50.815   2.356  17.409  0.00  0.00    +0.000 A 
ATOM     17  N   UNL     1      49.977   1.659  16.614  0.00  0.00    +0.000 NA
ATOM     18  C   UNL     1      48.842   2.288  16.230  0.00  0.00    +0.000 A 
ENDBRANCH  12  13
ENDBRANCH  11  12
ENDBRANCH   4  11
TORSDOF 5
ENDMDL
MODEL 6
REMARK VINA RESULT:    -5.427      5.278      8.087
REMARK INTER + INTRA:          -7.345
REMARK INTER:                  -6.983
REMARK INTRA:                  -0.363
REMARK UNBOUND:                -0.490
REMARK  Name = 
REMARK  5 active torsions:
REMARK  status: ('A' for Active; 'I' for Inactive)
REMARK    1  A    between atoms: C_2  and  O_3
REMARK    2  A    between atoms: C_2  and  C_4
REMARK    3  A    between atoms: C_7  and  O_8
REMARK    4  A    between atoms: O_8  and  C_9
REMARK    5  A    between atoms: C_9  and  C_10
REMARK                            x       y       z     vdW  Elec       q    Type
REMARK                         _______ _______ _______ _____ _____    ______ ____
ROOT
ATOM      1  C   UNL     1      48.589   4.043  18.021  0.00  0.00    +0.000 A 
ATOM      2  C   UNL     1      47.940   5.064  17.318  0.00  0.00    +0.000 A 
ATOM      3  C   UNL     1      47.497   4.815  16.017  0.00  0.00    +0.000 A 
ATOM      4  C   UNL     1      47.751   3.572  15.457  0.00  0.00    +0.000 A 
ATOM      5  N   UNL     1      48.378   2.571  16.110  0.00  0.00    +0.000 NA
ATOM      6  C   UNL     1      48.789   2.830  17.376  0.00  0.00    +0.000 A 
ENDROOT
BRANCH   1   8
ATOM      7  O   UNL     1      50.041   4.959  19.646  0.00  0.00    +0.000 OA
ATOM      8  C   UNL     1      49.125   4.202  19.385  0.00  0.00    +0.000 C 
BRANCH   8   9
ATOM      9  O   UNL     1      48.534   3.406  20.300  0.00  0.00    +0.000 OA
ATOM     10  H   UNL     1      49.130   2.832  20.815  0.00  0.00    +0.000 HD
ENDBRANCH   8   9
ENDBRANCH   1   8
BRANCH   4  11
ATOM     11  O   UNL     1      47.308   3.366  14.167  0.00  0.00    +0.000 OA
BRANCH  11  12
ATOM     12  C   UNL     1      46.876   4.586  13.553  0.00  0.00    +0.000 C 
BRANCH  12  13
ATOM     13  C   UNL     1      45.481   4.431  13.005  0.00  0.00    +0.000 A 
ATOM     14  C   UNL     1      45.064   3.288  12.317  0.00  0.00    +0.000 A 
ATOM     15  C   UNL     1      43.779   3.230  11.784  0.00  0.00    +0.000 A 
ATOM     16  C   UNL     1      42.951   4.329  11.946  0.00  0.00    +0.000 A 
ATOM     17  N   UNL     1      43.321   5.458  12.585  0.00  0.00    +0.000 NA
ATOM     18  C   UNL     1      44.575   5.485  13.092  0.00  0.00    +0.000 A 
ENDBRANCH  12  13
ENDBRANCH  11  12
ENDBRANCH   4  11
TORSDOF 5
ENDMDL
MODEL 7
REMARK VINA RESULT:    -5.309      3.912      6.258
REMARK INTER + INTRA:          -7.196
REMARK INTER:                  -6.876
REMARK INTRA:                  -0.321
REMARK UNBOUND:                -0.490
REMARK  Name = 
REMARK  5 active torsions:
REMARK  status: ('A' for Active; 'I' for Inactive)
REMARK    1  A    between atoms: C_2  and  O_3
REMARK    2  A    between atoms: C_2  and  C_4
REMARK    3  A    between atoms: C_7  and  O_8
REMARK    4  A    between atoms: O_8  and  C_9
REMARK    5  A    between atoms: C_9  and  C_10
REMARK                            x       y       z     vdW  Elec       q    Type
REMARK                         _______ _______ _______ _____ _____    ______ ____
ROOT
ATOM      1  C   UNL     1      44.424   5.247  12.038  0.00  0.00    +0.000 A 
ATOM      2  C   UNL     1      45.277   6.296  12.396  0.00  0.00    +0.000 A 
ATOM      3  C   UNL     1      46.384   6.025  13.203  0.00  0.00    +0.000 A 
ATOM      4  C   UNL     1      46.576   4.726  13.650  0.00  0.00    +0.000 A 
ATOM      5  N   UNL     1      45.767   3.696  13.323  0.00  0.00    +0.000 NA
ATOM      6  C   UNL     1      44.705   3.979  12.530  0.00  0.00    +0.000 A 
ENDROOT
BRANCH   1   8
ATOM      7  O   UNL     1      42.126   5.689  11.700  0.00  0.00    +0.000 OA
ATOM      8  C   UNL     1      43.211   5.421  11.218  0.00  0.00    +0.000 C 
BRANCH   8   9
ATOM      9  O   UNL     1      43.410   5.217   9.899  0.00  0.00    +0.000 OA
ATOM     10  H   UNL     1      42.656   4.845   9.406  0.00  0.00    +0.000 HD
ENDBRANCH   8   9
ENDBRANCH   1   8
BRANCH   4  11
ATOM     11  O   UNL     1      47.673   4.498  14.453  0.00  0.00    +0.000 OA
BRANCH  11  12
ATOM     12  C   UNL     1      47.293   4.022  15.750  0.00  0.00    +0.000 C 
BRANCH  12  13
ATOM     13  C   UNL     1      48.249   4.532  16.797  0.00  0.00    +0.000 A 
ATOM     14  C   UNL     1      48.598   3.785  17.925  0.00  0.00    +0.000 A 
ATOM     15  C   UNL     1      49.442   4.336  18.886  0.00  0.00    +0.000 A 
ATOM     16  C   UNL     1      49.900   5.629  18.694  0.00  0.00    +0.000 A 
ATOM     17  N   UNL     1      49.571   6.390  17.629  0.00  0.00    +0.000 NA
ATOM     18  C   UNL     1      48.751   5.829  16.712  0.00  0.00    +0.000 A 
ENDBRANCH  12  13
ENDBRANCH  11  12
ENDBRANCH   4  11
TORSDOF 5
ENDMDL
MODEL 8
REMARK VINA RESULT:    -5.162      3.192      4.818
REMARK INTER + INTRA:          -7.010
REMARK INTER:                  -6.598
REMARK INTRA:                  -0.412
REMARK UNBOUND:                -0.490
REMARK  Name = 
REMARK  5 active torsions:
REMARK  status: ('A' for Active; 'I' for Inactive)
REMARK    1  A    between atoms: C_2  and  O_3
REMARK    2  A    between atoms: C_2  and  C_4
REMARK    3  A    between atoms: C_7  and  O_8
REMARK    4  A    between atoms: O_8  and  C_9
REMARK    5  A    between atoms: C_9  and  C_10
REMARK                            x       y       z     vdW  Elec       q    Type
REMARK                         _______ _______ _______ _____ _____    ______ ____
ROOT
ATOM      1  C   UNL     1      44.334   4.191  11.477  0.00  0.00    +0.000 A 
ATOM      2  C   UNL     1      45.084   5.022  10.639  0.00  0.00    +0.000 A 
ATOM      3  C   UNL     1      45.459   6.287  11.098  0.00  0.00    +0.000 A 
ATOM      4  C   UNL     1      45.041   6.685  12.359  0.00  0.00    +0.000 A 
ATOM      5  N   UNL     1      44.314   5.905  13.187  0.00  0.00    +0.000 NA
ATOM      6  C   UNL     1      43.971   4.677  12.726  0.00  0.00    +0.000 A 
ENDROOT
BRANCH   1   8
ATOM      7  O   UNL     1      42.912   2.308  11.629  0.00  0.00    +0.000 OA
ATOM      8  C   UNL     1      43.858   2.851  11.088  0.00  0.00    +0.000 C 
BRANCH   8   9
ATOM      9  O   UNL     1      44.587   2.275  10.110  0.00  0.00    +0.000 OA
ATOM     10  H   UNL     1      44.597   1.300  10.103  0.00  0.00    +0.000 HD
ENDBRANCH   8   9
ENDBRANCH   1   8
BRANCH   4  11
ATOM     11  O   UNL     1      45.421   7.944  12.774  0.00  0.00    +0.000 OA
BRANCH  11  12
ATOM     12  C   UNL     1      46.810   8.189  12.527  0.00  0.00    +0.000 C 
BRANCH  12  13
ATOM     13  C   UNL     1      47.622   7.897  13.762  0.00  0.00    +0.000 A 
ATOM     14  C   UNL     1      47.874   8.860  14.742  0.00  0.00    +0.000 A 
ATOM     15  C   UNL     1      48.682   8.544  15.832  0.00  0.00    +0.000 A 
ATOM     16  C   UNL     1      49.225   7.272  15.899  0.00  0.00    +0.000 A 
ATOM     17  N   UNL     1      49.023   6.320  14.964  0.00  0.00    +0.000 NA
ATOM     18  C   UNL     1      48.235   6.656  13.918  0.00  0.00    +0.000 A 
ENDBRANCH  12  13
ENDBRANCH  11  12
ENDBRANCH   4  11
TORSDOF 5
ENDMDL
MODEL 9
REMARK VINA RESULT:    -4.990      4.129      6.116
REMARK INTER + INTRA:          -6.792
REMARK INTER:                  -6.411
REMARK INTRA:                  -0.381
REMARK UNBOUND:                -0.490
REMARK  Name = 
REMARK  5 active torsions:
REMARK  status: ('A' for Active; 'I' for Inactive)
REMARK    1  A    between atoms: C_2  and  O_3
REMARK    2  A    between atoms: C_2  and  C_4
REMARK    3  A    between atoms: C_7  and  O_8
REMARK    4  A    between atoms: O_8  and  C_9
REMARK    5  A    between atoms: C_9  and  C_10
REMARK                            x       y       z     vdW  Elec       q    Type
REMARK                         _______ _______ _______ _____ _____    ______ ____
ROOT
ATOM      1  C   UNL     1      44.299   5.014  12.151  0.00  0.00    +0.000 A 
ATOM      2  C   UNL     1      44.989   6.178  11.798  0.00  0.00    +0.000 A 
ATOM      3  C   UNL     1      46.295   6.358  12.260  0.00  0.00    +0.000 A 
ATOM      4  C   UNL     1      46.847   5.387  13.083  0.00  0.00    +0.000 A 
ATOM      5  N   UNL     1      46.202   4.257  13.441  0.00  0.00    +0.000 NA
ATOM      6  C   UNL     1      44.941   4.097  12.972  0.00  0.00    +0.000 A 
ENDROOT
BRANCH   1   8
ATOM      7  O   UNL     1      42.042   5.587  11.742  0.00  0.00    +0.000 OA
ATOM      8  C   UNL     1      42.909   4.732  11.747  0.00  0.00    +0.000 C 
BRANCH   8   9
ATOM      9  O   UNL     1      42.684   3.442  11.425  0.00  0.00    +0.000 OA
ATOM     10  H   UNL     1      42.025   2.974  11.969  0.00  0.00    +0.000 HD
ENDBRANCH   8   9
ENDBRANCH   1   8
BRANCH   4  11
ATOM     11  O   UNL     1      48.134   5.604  13.528  0.00  0.00    +0.000 OA
BRANCH  11  12
ATOM     12  C   UNL     1      48.325   6.955  13.964  0.00  0.00    +0.000 C 
BRANCH  12  13
ATOM     13  C   UNL     1      49.542   7.551  13.306  0.00  0.00    +0.000 A 
ATOM     14  C   UNL     1      49.720   7.560  11.920  0.00  0.00    +0.000 A 
ATOM     15  C   UNL     1      50.894   8.074  11.375  0.00  0.00    +0.000 A 
ATOM     16  C   UNL     1      51.864   8.553  12.240  0.00  0.00    +0.000 A 
ATOM     17  N   UNL     1      51.740   8.544  13.584  0.00  0.00    +0.000 NA
ATOM     18  C   UNL     1      50.589   8.039  14.084  0.00  0.00    +0.000 A 
ENDBRANCH  12  13
ENDBRANCH  11  12
ENDBRANCH   4  11
TORSDOF 5
ENDMDL
