MODEL 1
REMARK VINA RESULT:    -7.730      0.000      0.000
REMARK INTER + INTRA:          -8.603
REMARK INTER:                  -9.311
REMARK INTRA:                   0.708
REMARK UNBOUND:                 0.708
REMARK  Name = 
REMARK  4 active torsions:
REMARK  status: ('A' for Active; 'I' for Inactive)
REMARK    1  A    between atoms: N_1  and  C_2
REMARK    2  A    between atoms: C_2  and  C_3
REMARK    3  A    between atoms: N_6  and  C_7
REMARK    4  A    between atoms: C_7  and  N_8
REMARK                            x       y       z     vdW  Elec       q    Type
REMARK                         _______ _______ _______ _____ _____    ______ ____
ROOT
ATOM      1  C   UNL     1      43.887   2.533  10.444  0.00  0.00    +0.000 C 
ENDROOT
BRANCH   1   2
ATOM      2  N   UNL     1      44.762   3.112   9.422  0.00  0.00    +0.000 N 
ATOM      3  C   UNL     1      44.856   4.457   9.151  0.00  0.00    +0.000 A 
ATOM      4  C   UNL     1      45.817   4.633   8.184  0.00  0.00    +0.000 A 
ATOM      5  C   UNL     1      46.308   3.349   7.823  0.00  0.00    +0.000 A 
ATOM      6  C   UNL     1      47.293   2.908   6.915  0.00  0.00    +0.000 A 
ATOM      7  C   UNL     1      47.531   1.539   6.767  0.00  0.00    +0.000 A 
ATOM      8  C   UNL     1      46.789   0.623   7.498  0.00  0.00    +0.000 A 
ATOM      9  F   UNL     1      47.020  -0.687   7.329  0.00  0.00    +0.000 F 
ATOM     10  C   UNL     1      45.813   1.025   8.409  0.00  0.00    +0.000 A 
ATOM     11  C   UNL     1      45.598   2.403   8.574  0.00  0.00    +0.000 A 
ENDBRANCH   1   2
BRANCH   1  15
ATOM     12  C   UNL     1      44.467   5.999  12.945  0.00  0.00    +0.000 C 
ATOM     13  C   UNL     1      45.352   4.761  13.137  0.00  0.00    +0.000 C 
ATOM     14  C   UNL     1      45.248   3.789  11.958  0.00  0.00    +0.000 C 
ATOM     15  N   UNL     1      43.865   3.383  11.656  0.00  0.00    +0.000 NA
ATOM     16  C   UNL     1      42.969   4.544  11.493  0.00  0.00    +0.000 C 
ATOM     17  C   UNL     1      43.040   5.515  12.676  0.00  0.00    +0.000 C 
BRANCH  12  18
ATOM     18  C   UNL     1      45.030   6.918  11.843  0.00  0.00    +0.000 C 
BRANCH  18  19
ATOM     19  N   UNL     1      44.028   7.845  11.329  0.00  0.00    +0.000 NA
ATOM     20  H   UNL     1      44.442   8.426  10.601  0.00  0.00    +0.000 HD
ATOM     21  H   UNL     1      43.735   8.483  12.069  0.00  0.00    +0.000 HD
ENDBRANCH  18  19
ENDBRANCH  12  18
ENDBRANCH   1  15
TORSDOF 4
ENDMDL
MODEL 2
REMARK VINA RESULT:    -7.228      2.561      3.864
REMARK INTER + INTRA:          -7.999
REMARK INTER:                  -7.996
REMARK INTRA:                  -0.003
REMARK UNBOUND:                 0.708
REMARK  Name = 
REMARK  4 active torsions:
REMARK  status: ('A' for Active; 'I' for Inactive)
REMARK    1  A    between atoms: N_1  and  C_2
REMARK    2  A    between atoms: C_2  and  C_3
REMARK    3  A    between atoms: N_6  and  C_7
REMARK    4  A    between atoms: C_7  and  N_8
REMARK                            x       y       z     vdW  Elec       q    Type
REMARK                         _______ _______ _______ _____ _____    ______ ____
ROOT
ATOM      1  C   UNL     1      44.342   6.570  11.378  0.00  0.00    +0.000 C 
ENDROOT
BRANCH   1   2
ATOM      2  N   UNL     1      44.172   5.132  11.160  0.00  0.00    +0.000 N 
ATOM      3  C   UNL     1      43.467   4.298  11.996  0.00  0.00    +0.000 A 
ATOM      4  C   UNL     1      43.467   3.040  11.443  0.00  0.00    +0.000 A 
ATOM      5  C   UNL     1      44.228   3.093  10.244  0.00  0.00    +0.000 A 
ATOM      6  C   UNL     1      44.558   2.136   9.262  0.00  0.00    +0.000 A 
ATOM      7  C   UNL     1      45.368   2.504   8.184  0.00  0.00    +0.000 A 
ATOM      8  C   UNL     1      45.855   3.800   8.095  0.00  0.00    +0.000 A 
ATOM      9  F   UNL     1      46.644   4.130   7.062  0.00  0.00    +0.000 F 
ATOM     10  C   UNL     1      45.542   4.773   9.043  0.00  0.00    +0.000 A 
ATOM     11  C   UNL     1      44.705   4.403  10.110  0.00  0.00    +0.000 A 
ENDBRANCH   1   2
BRANCH   1  15
ATOM     12  C   UNL     1      48.007   7.615  13.399  0.00  0.00    +0.000 C 
ATOM     13  C   UNL     1      47.538   6.155  13.372  0.00  0.00    +0.000 C 
ATOM     14  C   UNL     1      46.437   5.921  12.334  0.00  0.00    +0.000 C 
ATOM     15  N   UNL     1      45.283   6.822  12.493  0.00  0.00    +0.000 NA
ATOM     16  C   UNL     1      45.690   8.239  12.556  0.00  0.00    +0.000 C 
ATOM     17  C   UNL     1      46.773   8.496  13.608  0.00  0.00    +0.000 C 
BRANCH  12  18
ATOM     18  C   UNL     1      48.812   7.963  12.132  0.00  0.00    +0.000 C 
BRANCH  18  19
ATOM     19  N   UNL     1      50.134   7.345  12.128  0.00  0.00    +0.000 NA
ATOM     20  H   UNL     1      50.682   7.708  12.908  0.00  0.00    +0.000 HD
ATOM     21  H   UNL     1      50.636   7.609  11.281  0.00  0.00    +0.000 HD
ENDBRANCH  18  19
ENDBRANCH  12  18
ENDBRANCH   1  15
TORSDOF 4
ENDMDL
MODEL 3
REMARK VINA RESULT:    -6.676      4.383      7.248
REMARK INTER + INTRA:          -7.334
REMARK INTER:                  -6.951
REMARK INTRA:                  -0.383
REMARK UNBOUND:                 0.708
REMARK  Name = 
REMARK  4 active torsions:
REMARK  status: ('A' for Active; 'I' for Inactive)
REMARK    1  A    between atoms: N_1  and  C_2
REMARK    2  A    between atoms: C_2  and  C_3
REMARK    3  A    between atoms: N_6  and  C_7
REMARK    4  A    between atoms: C_7  and  N_8
REMARK                            x       y       z     vdW  Elec       q    Type
REMARK                         _______ _______ _______ _____ _____    ______ ____
ROOT
ATOM      1  C   UNL     1      47.504   5.410  13.239  0.00  0.00    +0.000 C 
ENDROOT
BRANCH   1   2
ATOM      2  N   UNL     1      48.006   5.909  14.521  0.00  0.00    +0.000 N 
ATOM      3  C   UNL     1      48.649   7.113  14.687  0.00  0.00    +0.000 A 
ATOM      4  C   UNL     1      48.916   7.274  16.026  0.00  0.00    +0.000 A 
ATOM      5  C   UNL     1      48.451   6.114  16.703  0.00  0.00    +0.000 A 
ATOM      6  C   UNL     1      48.435   5.724  18.058  0.00  0.00    +0.000 A 
ATOM      7  C   UNL     1      47.917   4.474  18.410  0.00  0.00    +0.000 A 
ATOM      8  C   UNL     1      47.438   3.621  17.427  0.00  0.00    +0.000 A 
ATOM      9  F   UNL     1      46.961   2.419  17.782  0.00  0.00    +0.000 F 
ATOM     10  C   UNL     1      47.432   3.978  16.079  0.00  0.00    +0.000 A 
ATOM     11  C   UNL     1      47.929   5.246  15.735  0.00  0.00    +0.000 A 
ENDBRANCH   1   2
BRANCH   1  15
ATOM     12  C   UNL     1      43.535   5.508  11.553  0.00  0.00    +0.000 C 
ATOM     13  C   UNL     1      44.526   6.636  11.240  0.00  0.00    +0.000 C 
ATOM     14  C   UNL     1      45.962   6.264  11.621  0.00  0.00    +0.000 C 
ATOM     15  N   UNL     1      46.102   5.838  13.023  0.00  0.00    +0.000 NA
ATOM     16  C   UNL     1      45.145   4.773  13.379  0.00  0.00    +0.000 C 
ATOM     17  C   UNL     1      43.699   5.139  13.029  0.00  0.00    +0.000 C 
BRANCH  12  18
ATOM     18  C   UNL     1      43.724   4.320  10.590  0.00  0.00    +0.000 C 
BRANCH  18  19
ATOM     19  N   UNL     1      43.732   4.735   9.191  0.00  0.00    +0.000 NA
ATOM     20  H   UNL     1      43.049   5.480   9.053  0.00  0.00    +0.000 HD
ATOM     21  H   UNL     1      43.432   3.961   8.599  0.00  0.00    +0.000 HD
ENDBRANCH  18  19
ENDBRANCH  12  18
ENDBRANCH   1  15
TORSDOF 4
ENDMDL
MODEL 4
REMARK VINA RESULT:    -6.634      4.221      6.364
REMARK INTER + INTRA:          -7.283
REMARK INTER:                  -6.903
REMARK INTRA:                  -0.380
REMARK UNBOUND:                 0.708
REMARK  Name = 
REMARK  4 active torsions:
REMARK  status: ('A' for Active; 'I' for Inactive)
REMARK    1  A    between atoms: N_1  and  C_2
REMARK    2  A    between atoms: C_2  and  C_3
REMARK    3  A    between atoms: N_6  and  C_7
REMARK    4  A    between atoms: C_7  and  N_8
REMARK                            x       y       z     vdW  Elec       q    Type
REMARK                         _______ _______ _______ _____ _____    ______ ____
ROOT
ATOM      1  C   UNL     1      47.531   4.939  13.738  0.00  0.00    +0.000 C 
ENDROOT
BRANCH   1   2
ATOM      2  N   UNL     1      46.423   5.713  13.173  0.00  0.00    +0.000 N 
ATOM      3  C   UNL     1      46.403   7.084  13.077  0.00  0.00    +0.000 A 
ATOM      4  C   UNL     1      45.241   7.451  12.441  0.00  0.00    +0.000 A 
ATOM      5  C   UNL     1      44.504   6.267  12.167  0.00  0.00    +0.000 A 
ATOM      6  C   UNL     1      43.270   6.019  11.531  0.00  0.00    +0.000 A 
ATOM      7  C   UNL     1      42.793   4.708  11.439  0.00  0.00    +0.000 A 
ATOM      8  C   UNL     1      43.524   3.665  11.987  0.00  0.00    +0.000 A 
ATOM      9  F   UNL     1      43.042   2.416  11.904  0.00  0.00    +0.000 F 
ATOM     10  C   UNL     1      44.751   3.874  12.615  0.00  0.00    +0.000 A 
ATOM     11  C   UNL     1      45.238   5.190  12.680  0.00  0.00    +0.000 A 
ENDBRANCH   1   2
BRANCH   1  15
ATOM     12  C   UNL     1      48.625   4.124  17.830  0.00  0.00    +0.000 C 
ATOM     13  C   UNL     1      47.603   3.229  17.119  0.00  0.00    +0.000 C 
ATOM     14  C   UNL     1      47.605   3.442  15.603  0.00  0.00    +0.000 C 
ATOM     15  N   UNL     1      47.407   4.848  15.211  0.00  0.00    +0.000 NA
ATOM     16  C   UNL     1      48.351   5.753  15.895  0.00  0.00    +0.000 C 
ATOM     17  C   UNL     1      48.344   5.571  17.416  0.00  0.00    +0.000 C 
BRANCH  12  18
ATOM     18  C   UNL     1      50.066   3.663  17.537  0.00  0.00    +0.000 C 
BRANCH  18  19
ATOM     19  N   UNL     1      50.249   2.234  17.768  0.00  0.00    +0.000 NA
ATOM     20  H   UNL     1      51.238   2.036  17.916  0.00  0.00    +0.000 HD
ATOM     21  H   UNL     1      49.975   1.711  16.937  0.00  0.00    +0.000 HD
ENDBRANCH  18  19
ENDBRANCH  12  18
ENDBRANCH   1  15
TORSDOF 4
ENDMDL
MODEL 5
REMARK VINA RESULT:    -6.588      3.794      6.452
REMARK INTER + INTRA:          -7.228
REMARK INTER:                  -6.820
REMARK INTRA:                  -0.408
REMARK UNBOUND:                 0.708
REMARK  Name = 
REMARK  4 active torsions:
REMARK  status: ('A' for Active; 'I' for Inactive)
REMARK    1  A    between atoms: N_1  and  C_2
REMARK    2  A    between atoms: C_2  and  C_3
REMARK    3  A    between atoms: N_6  and  C_7
REMARK    4  A    between atoms: C_7  and  N_8
REMARK                            x       y       z     vdW  Elec       q    Type
REMARK                         _______ _______ _______ _____ _____    ______ ____
ROOT
ATOM      1  C   UNL     1      45.755   7.094  12.807  0.00  0.00    +0.000 C 
ENDROOT
BRANCH   1   2
ATOM      2  N   UNL     1      46.325   8.382  12.404  0.00  0.00    +0.000 N 
ATOM      3  C   UNL     1      45.613   9.555  12.323  0.00  0.00    +0.000 A 
ATOM      4  C   UNL     1      46.484  10.561  11.978  0.00  0.00    +0.000 A 
ATOM      5  C   UNL     1      47.770   9.981  11.807  0.00  0.00    +0.000 A 
ATOM      6  C   UNL     1      49.036  10.509  11.476  0.00  0.00    +0.000 A 
ATOM      7  C   UNL     1      50.132   9.650  11.358  0.00  0.00    +0.000 A 
ATOM      8  C   UNL     1      49.967   8.286  11.549  0.00  0.00    +0.000 A 
ATOM      9  F   UNL     1      51.027   7.476  11.414  0.00  0.00    +0.000 F 
ATOM     10  C   UNL     1      48.732   7.732  11.885  0.00  0.00    +0.000 A 
ATOM     11  C   UNL     1      47.640   8.604  12.029  0.00  0.00    +0.000 A 
ENDBRANCH   1   2
BRANCH   1  15
ATOM     12  C   UNL     1      43.775   4.126  10.383  0.00  0.00    +0.000 C 
ATOM     13  C   UNL     1      45.003   4.864   9.836  0.00  0.00    +0.000 C 
ATOM     14  C   UNL     1      45.771   5.602  10.937  0.00  0.00    +0.000 C 
ATOM     15  N   UNL     1      44.929   6.525  11.718  0.00  0.00    +0.000 NA
ATOM     16  C   UNL     1      43.717   5.864  12.239  0.00  0.00    +0.000 C 
ATOM     17  C   UNL     1      42.923   5.142  11.147  0.00  0.00    +0.000 C 
BRANCH  12  18
ATOM     18  C   UNL     1      44.192   2.905  11.226  0.00  0.00    +0.000 C 
BRANCH  18  19
ATOM     19  N   UNL     1      43.044   2.129  11.682  0.00  0.00    +0.000 NA
ATOM     20  H   UNL     1      42.184   2.569  11.356  0.00  0.00    +0.000 HD
ATOM     21  H   UNL     1      43.001   2.140  12.701  0.00  0.00    +0.000 HD
ENDBRANCH  18  19
ENDBRANCH  12  18
ENDBRANCH   1  15
TORSDOF 4
ENDMDL
MODEL 6
REMARK VINA RESULT:    -6.228      4.155      6.776
REMARK INTER + INTRA:          -6.794
REMARK INTER:                  -6.927
REMARK INTRA:                   0.133
REMARK UNBOUND:                 0.708
REMARK  Name = 
REMARK  4 active torsions:
REMARK  status: ('A' for Active; 'I' for Inactive)
REMARK    1  A    between atoms: N_1  and  C_2
REMARK    2  A    between atoms: C_2  and  C_3
REMARK    3  A    between atoms: N_6  and  C_7
REMARK    4  A    between atoms: C_7  and  N_8
REMARK                            x       y       z     vdW  Elec       q    Type
REMARK                         _______ _______ _______ _____ _____    ______ ____
ROOT
ATOM      1  C   UNL     1      46.857   5.949  12.657  0.00  0.00    +0.000 C 
ENDROOT
BRANCH   1   2
ATOM      2  N   UNL     1      47.468   7.246  12.357  0.00  0.00    +0.000 N 
ATOM      3  C   UNL     1      48.818   7.452  12.204  0.00  0.00    +0.000 A 
ATOM      4  C   UNL     1      49.015   8.770  11.869  0.00  0.00    +0.000 A 
ATOM      5  C   UNL     1      47.744   9.406  11.849  0.00  0.00    +0.000 A 
ATOM      6  C   UNL     1      47.322  10.721  11.561  0.00  0.00    +0.000 A 
ATOM      7  C   UNL     1      45.967  11.047  11.657  0.00  0.00    +0.000 A 
ATOM      8  C   UNL     1      45.048  10.084  12.049  0.00  0.00    +0.000 A 
ATOM      9  F   UNL     1      43.755  10.421  12.152  0.00  0.00    +0.000 F 
ATOM     10  C   UNL     1      45.430   8.773  12.333  0.00  0.00    +0.000 A 
ATOM     11  C   UNL     1      46.790   8.445  12.208  0.00  0.00    +0.000 A 
ENDBRANCH   1   2
BRANCH   1  15
ATOM     12  C   UNL     1      43.070   4.301  11.414  0.00  0.00    +0.000 C 
ATOM     13  C   UNL     1      44.000   4.944  10.378  0.00  0.00    +0.000 C 
ATOM     14  C   UNL     1      45.417   5.147  10.922  0.00  0.00    +0.000 C 
ATOM     15  N   UNL     1      45.455   5.909  12.182  0.00  0.00    +0.000 NA
ATOM     16  C   UNL     1      44.549   5.343  13.201  0.00  0.00    +0.000 C 
ATOM     17  C   UNL     1      43.121   5.157  12.682  0.00  0.00    +0.000 C 
BRANCH  12  18
ATOM     18  C   UNL     1      43.437   2.823  11.647  0.00  0.00    +0.000 C 
BRANCH  18  19
ATOM     19  N   UNL     1      43.860   2.156  10.420  0.00  0.00    +0.000 NA
ATOM     20  H   UNL     1      44.852   2.329  10.263  0.00  0.00    +0.000 HD
ATOM     21  H   UNL     1      43.371   2.559   9.621  0.00  0.00    +0.000 HD
ENDBRANCH  18  19
ENDBRANCH  12  18
ENDBRANCH   1  15
TORSDOF 4
ENDMDL
MODEL 7
REMARK VINA RESULT:    -6.041      4.220      6.977
REMARK INTER + INTRA:          -6.569
REMARK INTER:                  -6.183
REMARK INTRA:                  -0.387
REMARK UNBOUND:                 0.708
REMARK  Name = 
REMARK  4 active torsions:
REMARK  status: ('A' for Active; 'I' for Inactive)
REMARK    1  A    between atoms: N_1  and  C_2
REMARK    2  A    between atoms: C_2  and  C_3
REMARK    3  A    between atoms: N_6  and  C_7
REMARK    4  A    between atoms: C_7  and  N_8
REMARK                            x       y       z     vdW  Elec       q    Type
REMARK                         _______ _______ _______ _____ _____    ______ ____
ROOT
ATOM      1  C   UNL     1      45.586   7.264  12.981  0.00  0.00    +0.000 C 
ENDROOT
BRANCH   1   2
ATOM      2  N   UNL     1      46.732   8.174  12.920  0.00  0.00    +0.000 N 
ATOM      3  C   UNL     1      46.786   9.303  12.137  0.00  0.00    +0.000 A 
ATOM      4  C   UNL     1      47.979   9.939  12.386  0.00  0.00    +0.000 A 
ATOM      5  C   UNL     1      48.698   9.157  13.329  0.00  0.00    +0.000 A 
ATOM      6  C   UNL     1      49.950   9.310  13.963  0.00  0.00    +0.000 A 
ATOM      7  C   UNL     1      50.400   8.327  14.847  0.00  0.00    +0.000 A 
ATOM      8  C   UNL     1      49.626   7.201  15.084  0.00  0.00    +0.000 A 
ATOM      9  F   UNL     1      50.082   6.260  15.923  0.00  0.00    +0.000 F 
ATOM     10  C   UNL     1      48.381   7.021  14.481  0.00  0.00    +0.000 A 
ATOM     11  C   UNL     1      47.922   8.027  13.615  0.00  0.00    +0.000 A 
ENDBRANCH   1   2
BRANCH   1  15
ATOM     12  C   UNL     1      44.887   3.442  11.106  0.00  0.00    +0.000 C 
ATOM     13  C   UNL     1      45.695   3.519  12.408  0.00  0.00    +0.000 C 
ATOM     14  C   UNL     1      45.542   4.874  13.103  0.00  0.00    +0.000 C 
ATOM     15  N   UNL     1      45.870   6.017  12.233  0.00  0.00    +0.000 NA
ATOM     16  C   UNL     1      45.137   5.968  10.953  0.00  0.00    +0.000 C 
ATOM     17  C   UNL     1      45.300   4.628  10.231  0.00  0.00    +0.000 C 
BRANCH  12  18
ATOM     18  C   UNL     1      43.374   3.380  11.395  0.00  0.00    +0.000 C 
BRANCH  18  19
ATOM     19  N   UNL     1      42.927   2.029  11.719  0.00  0.00    +0.000 NA
ATOM     20  H   UNL     1      43.294   1.758  12.630  0.00  0.00    +0.000 HD
ATOM     21  H   UNL     1      43.314   1.366  11.047  0.00  0.00    +0.000 HD
ENDBRANCH  18  19
ENDBRANCH  12  18
ENDBRANCH   1  15
TORSDOF 4
ENDMDL
MODEL 8
REMARK VINA RESULT:    -5.912      5.331      7.301
REMARK INTER + INTRA:          -6.414
REMARK INTER:                  -6.043
REMARK INTRA:                  -0.372
REMARK UNBOUND:                 0.708
REMARK  Name = 
REMARK  4 active torsions:
REMARK  status: ('A' for Active; 'I' for Inactive)
REMARK    1  A    between atoms: N_1  and  C_2
REMARK    2  A    between atoms: C_2  and  C_3
REMARK    3  A    between atoms: N_6  and  C_7
REMARK    4  A    between atoms: C_7  and  N_8
REMARK                            x       y       z     vdW  Elec       q    Type
REMARK                         _______ _______ _______ _____ _____    ______ ____
ROOT
ATOM      1  C   UNL     1      48.366   7.007  15.489  0.00  0.00    +0.000 C 
ENDROOT
BRANCH   1   2
ATOM      2  N   UNL     1      48.162   7.066  14.040  0.00  0.00    +0.000 N 
ATOM      3  C   UNL     1      48.979   7.746  13.167  0.00  0.00    +0.000 A 
ATOM      4  C   UNL     1      48.519   7.525  11.891  0.00  0.00    +0.000 A 
ATOM      5  C   UNL     1      47.359   6.709  11.983  0.00  0.00    +0.000 A 
ATOM      6  C   UNL     1      46.485   6.155  11.025  0.00  0.00    +0.000 A 
ATOM      7  C   UNL     1      45.389   5.398  11.447  0.00  0.00    +0.000 A 
ATOM      8  C   UNL     1      45.158   5.209  12.802  0.00  0.00    +0.000 A 
ATOM      9  F   UNL     1      44.092   4.494  13.188  0.00  0.00    +0.000 F 
ATOM     10  C   UNL     1      46.006   5.736  13.775  0.00  0.00    +0.000 A 
ATOM     11  C   UNL     1      47.121   6.474  13.343  0.00  0.00    +0.000 A 
ENDBRANCH   1   2
BRANCH   1  15
ATOM     12  C   UNL     1      49.882   3.864  18.024  0.00  0.00    +0.000 C 
ATOM     13  C   UNL     1      50.858   4.795  17.294  0.00  0.00    +0.000 C 
ATOM     14  C   UNL     1      50.162   6.041  16.741  0.00  0.00    +0.000 C 
ATOM     15  N   UNL     1      49.012   5.731  15.874  0.00  0.00    +0.000 NA
ATOM     16  C   UNL     1      48.059   4.812  16.525  0.00  0.00    +0.000 C 
ATOM     17  C   UNL     1      48.734   3.546  17.063  0.00  0.00    +0.000 C 
BRANCH  12  18
ATOM     18  C   UNL     1      49.422   4.479  19.360  0.00  0.00    +0.000 C 
BRANCH  18  19
ATOM     19  N   UNL     1      48.492   3.614  20.078  0.00  0.00    +0.000 NA
ATOM     20  H   UNL     1      47.941   3.076  19.409  0.00  0.00    +0.000 HD
ATOM     21  H   UNL     1      47.826   4.181  20.602  0.00  0.00    +0.000 HD
ENDBRANCH  18  19
ENDBRANCH  12  18
ENDBRANCH   1  15
TORSDOF 4
ENDMDL
MODEL 9
REMARK VINA RESULT:    -5.902      5.311      7.318
REMARK INTER + INTRA:          -6.402
REMARK INTER:                  -6.450
REMARK INTRA:                   0.048
REMARK UNBOUND:                 0.708
REMARK  Name = 
REMARK  4 active torsions:
REMARK  status: ('A' for Active; 'I' for Inactive)
REMARK    1  A    between atoms: N_1  and  C_2
REMARK    2  A    between atoms: C_2  and  C_3
REMARK    3  A    between atoms: N_6  and  C_7
REMARK    4  A    between atoms: C_7  and  N_8
REMARK                            x       y       z     vdW  Elec       q    Type
REMARK                         _______ _______ _______ _____ _____    ______ ____
ROOT
ATOM      1  C   UNL     1      47.613   5.697  15.265  0.00  0.00    +0.000 C 
ENDROOT
BRANCH   1   2
ATOM      2  N   UNL     1      46.915   5.054  14.150  0.00  0.00    +0.000 N 
ATOM      3  C   UNL     1      46.948   3.704  13.888  0.00  0.00    +0.000 A 
ATOM      4  C   UNL     1      46.130   3.458  12.811  0.00  0.00    +0.000 A 
ATOM      5  C   UNL     1      45.602   4.702  12.374  0.00  0.00    +0.000 A 
ATOM      6  C   UNL     1      44.711   5.069  11.343  0.00  0.00    +0.000 A 
ATOM      7  C   UNL     1      44.401   6.418  11.148  0.00  0.00    +0.000 A 
ATOM      8  C   UNL     1      44.981   7.386  11.953  0.00  0.00    +0.000 A 
ATOM      9  F   UNL     1      44.684   8.676  11.740  0.00  0.00    +0.000 F 
ATOM     10  C   UNL     1      45.860   7.058  12.985  0.00  0.00    +0.000 A 
ATOM     11  C   UNL     1      46.146   5.699  13.194  0.00  0.00    +0.000 A 
ENDBRANCH   1   2
BRANCH   1  15
ATOM     12  C   UNL     1      49.445   3.759  18.655  0.00  0.00    +0.000 C 
ATOM     13  C   UNL     1      50.317   4.509  17.640  0.00  0.00    +0.000 C 
ATOM     14  C   UNL     1      49.488   5.414  16.725  0.00  0.00    +0.000 C 
ATOM     15  N   UNL     1      48.399   4.704  16.032  0.00  0.00    +0.000 NA
ATOM     16  C   UNL     1      47.550   3.941  16.968  0.00  0.00    +0.000 C 
ATOM     17  C   UNL     1      48.361   3.011  17.875  0.00  0.00    +0.000 C 
BRANCH  12  18
ATOM     18  C   UNL     1      48.890   4.718  19.726  0.00  0.00    +0.000 C 
BRANCH  18  19
ATOM     19  N   UNL     1      48.326   4.007  20.868  0.00  0.00    +0.000 NA
ATOM     20  H   UNL     1      49.042   3.890  21.585  0.00  0.00    +0.000 HD
ATOM     21  H   UNL     1      48.049   3.066  20.588  0.00  0.00    +0.000 HD
ENDBRANCH  18  19
ENDBRANCH  12  18
ENDBRANCH   1  15
TORSDOF 4
ENDMDL
