MODEL 1
REMARK VINA RESULT:    -8.544      0.000      0.000
REMARK INTER + INTRA:         -11.582
REMARK INTER:                 -11.041
REMARK INTRA:                  -0.541
REMARK UNBOUND:                -0.541
REMARK  Name = 
REMARK  8 active torsions:
REMARK  status: ('A' for Active; 'I' for Inactive)
REMARK    1  A    between atoms: C_1  and  C_2
REMARK    2  A    between atoms: C_2  and  C_3
REMARK    3  A    between atoms: C_2  and  C_4
REMARK    4  A    between atoms: C_2  and  C_5
REMARK    5  A    between atoms: N_7  and  C_8
REMARK    6  A    between atoms: C_8  and  C_9
REMARK    7  A    between atoms: C_12  and  C_13
REMARK    8  A    between atoms: C_21  and  C_22
REMARK                            x       y       z     vdW  Elec       q    Type
REMARK                         _______ _______ _______ _____ _____    ______ ____
ROOT
ATOM      1  C   UNL     1      46.402   7.255  12.245  0.00  0.00    +0.000 A 
ATOM      2  C   UNL     1      45.642   6.844  11.158  0.00  0.00    +0.000 A 
ATOM      3  N   UNL     1      45.327   5.515  11.299  0.00  0.00    +0.000 N 
ATOM      4  C   UNL     1      45.886   5.033  12.456  0.00  0.00    +0.000 A 
ATOM      5  N   UNL     1      45.763   3.769  12.912  0.00  0.00    +0.000 NA
ATOM      6  C   UNL     1      46.410   3.560  14.090  0.00  0.00    +0.000 A 
ATOM      7  C   UNL     1      47.141   4.505  14.803  0.00  0.00    +0.000 A 
ATOM      8  C   UNL     1      47.234   5.796  14.276  0.00  0.00    +0.000 A 
ATOM      9  C   UNL     1      46.576   6.082  13.061  0.00  0.00    +0.000 A 
ENDROOT
BRANCH   7  10
ATOM     10  C   UNL     1      47.768   4.097  16.086  0.00  0.00    +0.000 C 
ATOM     11  N   UNL     1      47.053   3.313  16.949  0.00  0.00    +0.000 N 
ATOM     12  O   UNL     1      48.908   4.442  16.372  0.00  0.00    +0.000 OA
ATOM     13  H   UNL     1      46.115   2.978  16.798  0.00  0.00    +0.000 HD
ATOM     14  H   UNL     1      47.512   3.045  17.810  0.00  0.00    +0.000 HD
ENDBRANCH   7  10
BRANCH   1  16
ATOM     15  C   UNL     1      47.173   8.900  14.018  0.00  0.00    +0.000 C 
ATOM     16  C   UNL     1      46.921   8.669  12.510  0.00  0.00    +0.000 C 
ATOM     17  C   UNL     1      45.895   9.719  12.040  0.00  0.00    +0.000 C 
ATOM     18  C   UNL     1      48.264   8.911  11.788  0.00  0.00    +0.000 C 
ENDBRANCH   1  16
BRANCH   3  19
ATOM     19  C   UNL     1      44.384   4.799  10.448  0.00  0.00    +0.000 C 
BRANCH  19  20
ATOM     20  C   UNL     1      45.035   3.942   9.394  0.00  0.00    +0.000 A 
ATOM     21  C   UNL     1      45.792   4.498   8.358  0.00  0.00    +0.000 A 
ATOM     22  C   UNL     1      46.503   3.667   7.492  0.00  0.00    +0.000 A 
ATOM     23  C   UNL     1      46.435   2.295   7.691  0.00  0.00    +0.000 A 
ATOM     24  N   UNL     1      45.684   1.710   8.666  0.00  0.00    +0.000 NA
ATOM     25  C   UNL     1      45.008   2.550   9.486  0.00  0.00    +0.000 A 
BRANCH  23  26
ATOM     26  C   UNL     1      47.267   1.386   6.839  0.00  0.00    +0.000 C 
ATOM     27  N   UNL     1      48.340   1.967   6.217  0.00  0.00    +0.000 N 
ATOM     28  O   UNL     1      47.002   0.200   6.684  0.00  0.00    +0.000 OA
ATOM     29  H   UNL     1      48.506   2.960   6.327  0.00  0.00    +0.000 HD
ATOM     30  H   UNL     1      48.901   1.416   5.585  0.00  0.00    +0.000 HD
ENDBRANCH  23  26
ENDBRANCH  19  20
ENDBRANCH   3  19
TORSDOF 5
ENDMDL
MODEL 2
REMARK VINA RESULT:    -7.628      2.862      7.059
REMARK INTER + INTRA:         -10.399
REMARK INTER:                  -9.695
REMARK INTRA:                  -0.704
REMARK UNBOUND:                -0.541
REMARK  Name = 
REMARK  8 active torsions:
REMARK  status: ('A' for Active; 'I' for Inactive)
REMARK    1  A    between atoms: C_1  and  C_2
REMARK    2  A    between atoms: C_2  and  C_3
REMARK    3  A    between atoms: C_2  and  C_4
REMARK    4  A    between atoms: C_2  and  C_5
REMARK    5  A    between atoms: N_7  and  C_8
REMARK    6  A    between atoms: C_8  and  C_9
REMARK    7  A    between atoms: C_12  and  C_13
REMARK    8  A    between atoms: C_21  and  C_22
REMARK                            x       y       z     vdW  Elec       q    Type
REMARK                         _______ _______ _______ _____ _____    ______ ____
ROOT
ATOM      1  C   UNL     1      47.939   6.733  13.626  0.00  0.00    +0.000 A 
ATOM      2  C   UNL     1      48.057   6.229  14.914  0.00  0.00    +0.000 A 
ATOM      3  N   UNL     1      47.188   5.177  15.075  0.00  0.00    +0.000 N 
ATOM      4  C   UNL     1      46.478   4.991  13.915  0.00  0.00    +0.000 A 
ATOM      5  N   UNL     1      45.548   4.034  13.717  0.00  0.00    +0.000 NA
ATOM      6  C   UNL     1      45.004   4.065  12.472  0.00  0.00    +0.000 A 
ATOM      7  C   UNL     1      45.325   4.964  11.459  0.00  0.00    +0.000 A 
ATOM      8  C   UNL     1      46.294   5.935  11.727  0.00  0.00    +0.000 A 
ATOM      9  C   UNL     1      46.906   5.950  12.998  0.00  0.00    +0.000 A 
ENDROOT
BRANCH   7  10
ATOM     10  C   UNL     1      44.635   4.835  10.151  0.00  0.00    +0.000 C 
ATOM     11  N   UNL     1      45.382   4.857   9.006  0.00  0.00    +0.000 N 
ATOM     12  O   UNL     1      43.419   4.702  10.087  0.00  0.00    +0.000 OA
ATOM     13  H   UNL     1      46.384   4.957   8.959  0.00  0.00    +0.000 HD
ATOM     14  H   UNL     1      44.882   4.758   8.131  0.00  0.00    +0.000 HD
ENDBRANCH   7  10
BRANCH   1  16
ATOM     15  C   UNL     1      49.742   8.470  14.045  0.00  0.00    +0.000 C 
ATOM     16  C   UNL     1      48.757   7.871  13.014  0.00  0.00    +0.000 C 
ATOM     17  C   UNL     1      47.831   9.006  12.535  0.00  0.00    +0.000 C 
ATOM     18  C   UNL     1      49.602   7.368  11.824  0.00  0.00    +0.000 C 
ENDBRANCH   1  16
BRANCH   3  19
ATOM     19  C   UNL     1      47.176   4.291  16.232  0.00  0.00    +0.000 C 
BRANCH  19  20
ATOM     20  C   UNL     1      48.499   3.630  16.514  0.00  0.00    +0.000 A 
ATOM     21  C   UNL     1      49.466   4.235  17.323  0.00  0.00    +0.000 A 
ATOM     22  C   UNL     1      50.612   3.529  17.685  0.00  0.00    +0.000 A 
ATOM     23  C   UNL     1      50.758   2.229  17.224  0.00  0.00    +0.000 A 
ATOM     24  N   UNL     1      49.859   1.612  16.407  0.00  0.00    +0.000 NA
ATOM     25  C   UNL     1      48.759   2.331  16.078  0.00  0.00    +0.000 A 
BRANCH  23  26
ATOM     26  C   UNL     1      51.931   1.414  17.678  0.00  0.00    +0.000 C 
ATOM     27  N   UNL     1      51.644   0.149  18.118  0.00  0.00    +0.000 N 
ATOM     28  O   UNL     1      53.076   1.848  17.679  0.00  0.00    +0.000 OA
ATOM     29  H   UNL     1      50.682  -0.164  18.149  0.00  0.00    +0.000 HD
ATOM     30  H   UNL     1      52.387  -0.423  18.490  0.00  0.00    +0.000 HD
ENDBRANCH  23  26
ENDBRANCH  19  20
ENDBRANCH   3  19
TORSDOF 5
ENDMDL
MODEL 3
REMARK VINA RESULT:    -6.896      3.916      7.315
REMARK INTER + INTRA:          -9.453
REMARK INTER:                  -9.116
REMARK INTRA:                  -0.337
REMARK UNBOUND:                -0.541
REMARK  Name = 
REMARK  8 active torsions:
REMARK  status: ('A' for Active; 'I' for Inactive)
REMARK    1  A    between atoms: C_1  and  C_2
REMARK    2  A    between atoms: C_2  and  C_3
REMARK    3  A    between atoms: C_2  and  C_4
REMARK    4  A    between atoms: C_2  and  C_5
REMARK    5  A    between atoms: N_7  and  C_8
REMARK    6  A    between atoms: C_8  and  C_9
REMARK    7  A    between atoms: C_12  and  C_13
REMARK    8  A    between atoms: C_21  and  C_22
REMARK                            x       y       z     vdW  Elec       q    Type
REMARK                         _______ _______ _______ _____ _____    ______ ____
ROOT
ATOM      1  C   UNL     1      45.980   5.088  12.820  0.00  0.00    +0.000 A 
ATOM      2  C   UNL     1      45.957   4.367  14.006  0.00  0.00    +0.000 A 
ATOM      3  N   UNL     1      46.984   4.787  14.816  0.00  0.00    +0.000 N 
ATOM      4  C   UNL     1      47.702   5.764  14.172  0.00  0.00    +0.000 A 
ATOM      5  N   UNL     1      48.770   6.408  14.684  0.00  0.00    +0.000 NA
ATOM      6  C   UNL     1      49.290   7.338  13.839  0.00  0.00    +0.000 A 
ATOM      7  C   UNL     1      48.820   7.642  12.565  0.00  0.00    +0.000 A 
ATOM      8  C   UNL     1      47.711   6.937  12.089  0.00  0.00    +0.000 A 
ATOM      9  C   UNL     1      47.118   5.965  12.923  0.00  0.00    +0.000 A 
ENDROOT
BRANCH   7  10
ATOM     10  C   UNL     1      49.509   8.705  11.789  0.00  0.00    +0.000 C 
ATOM     11  N   UNL     1      48.832   9.860  11.508  0.00  0.00    +0.000 N 
ATOM     12  O   UNL     1      50.665   8.564  11.410  0.00  0.00    +0.000 OA
ATOM     13  H   UNL     1      47.885  10.067  11.781  0.00  0.00    +0.000 HD
ATOM     14  H   UNL     1      49.333  10.567  10.986  0.00  0.00    +0.000 HD
ENDBRANCH   7  10
BRANCH   1  16
ATOM     15  C   UNL     1      43.768   5.903  11.878  0.00  0.00    +0.000 C 
ATOM     16  C   UNL     1      44.984   4.973  11.665  0.00  0.00    +0.000 C 
ATOM     17  C   UNL     1      44.456   3.530  11.548  0.00  0.00    +0.000 C 
ATOM     18  C   UNL     1      45.637   5.386  10.328  0.00  0.00    +0.000 C 
ENDBRANCH   1  16
BRANCH   3  19
ATOM     19  C   UNL     1      47.149   4.388  16.208  0.00  0.00    +0.000 C 
BRANCH  19  20
ATOM     20  C   UNL     1      48.462   3.714  16.503  0.00  0.00    +0.000 A 
ATOM     21  C   UNL     1      49.414   4.295  17.347  0.00  0.00    +0.000 A 
ATOM     22  C   UNL     1      50.549   3.574  17.717  0.00  0.00    +0.000 A 
ATOM     23  C   UNL     1      50.700   2.285  17.228  0.00  0.00    +0.000 A 
ATOM     24  N   UNL     1      49.815   1.692  16.377  0.00  0.00    +0.000 NA
ATOM     25  C   UNL     1      48.726   2.424  16.041  0.00  0.00    +0.000 A 
BRANCH  23  26
ATOM     26  C   UNL     1      51.858   1.453  17.687  0.00  0.00    +0.000 C 
ATOM     27  N   UNL     1      51.551   0.193  18.126  0.00  0.00    +0.000 N 
ATOM     28  O   UNL     1      53.010   1.871  17.694  0.00  0.00    +0.000 OA
ATOM     29  H   UNL     1      50.585  -0.107  18.153  0.00  0.00    +0.000 HD
ATOM     30  H   UNL     1      52.285  -0.390  18.501  0.00  0.00    +0.000 HD
ENDBRANCH  23  26
ENDBRANCH  19  20
ENDBRANCH   3  19
TORSDOF 5
ENDMDL
MODEL 4
REMARK VINA RESULT:    -6.197      3.526      7.520
REMARK INTER + INTRA:          -8.550
REMARK INTER:                  -7.826
REMARK INTRA:                  -0.724
REMARK UNBOUND:                -0.541
REMARK  Name = 
REMARK  8 active torsions:
REMARK  status: ('A' for Active; 'I' for Inactive)
REMARK    1  A    between atoms: C_1  and  C_2
REMARK    2  A    between atoms: C_2  and  C_3
REMARK    3  A    between atoms: C_2  and  C_4
REMARK    4  A    between atoms: C_2  and  C_5
REMARK    5  A    between atoms: N_7  and  C_8
REMARK    6  A    between atoms: C_8  and  C_9
REMARK    7  A    between atoms: C_12  and  C_13
REMARK    8  A    between atoms: C_21  and  C_22
REMARK                            x       y       z     vdW  Elec       q    Type
REMARK                         _______ _______ _______ _____ _____    ______ ____
ROOT
ATOM      1  C   UNL     1      49.148   7.539  13.807  0.00  0.00    +0.000 A 
ATOM      2  C   UNL     1      49.622   7.591  15.111  0.00  0.00    +0.000 A 
ATOM      3  N   UNL     1      49.002   6.622  15.861  0.00  0.00    +0.000 N 
ATOM      4  C   UNL     1      48.105   5.941  15.076  0.00  0.00    +0.000 A 
ATOM      5  N   UNL     1      47.334   4.914  15.488  0.00  0.00    +0.000 NA
ATOM      6  C   UNL     1      46.540   4.412  14.504  0.00  0.00    +0.000 A 
ATOM      7  C   UNL     1      46.479   4.865  13.190  0.00  0.00    +0.000 A 
ATOM      8  C   UNL     1      47.300   5.935  12.826  0.00  0.00    +0.000 A 
ATOM      9  C   UNL     1      48.156   6.494  13.798  0.00  0.00    +0.000 A 
ENDROOT
BRANCH   7  10
ATOM     10  C   UNL     1      45.559   4.180  12.246  0.00  0.00    +0.000 C 
ATOM     11  N   UNL     1      45.210   2.881  12.492  0.00  0.00    +0.000 N 
ATOM     12  O   UNL     1      45.109   4.761  11.267  0.00  0.00    +0.000 OA
ATOM     13  H   UNL     1      45.525   2.325  13.270  0.00  0.00    +0.000 HD
ATOM     14  H   UNL     1      44.575   2.446  11.834  0.00  0.00    +0.000 HD
ENDBRANCH   7  10
BRANCH   1  16
ATOM     15  C   UNL     1      50.698   9.411  13.076  0.00  0.00    +0.000 C 
ATOM     16  C   UNL     1      49.609   8.406  12.635  0.00  0.00    +0.000 C 
ATOM     17  C   UNL     1      48.428   9.215  12.064  0.00  0.00    +0.000 C 
ATOM     18  C   UNL     1      50.222   7.541  11.513  0.00  0.00    +0.000 C 
ENDBRANCH   1  16
BRANCH   3  19
ATOM     19  C   UNL     1      49.389   6.261  17.219  0.00  0.00    +0.000 C 
BRANCH  19  20
ATOM     20  C   UNL     1      50.321   5.081  17.301  0.00  0.00    +0.000 A 
ATOM     21  C   UNL     1      51.706   5.244  17.398  0.00  0.00    +0.000 A 
ATOM     22  C   UNL     1      52.523   4.137  17.625  0.00  0.00    +0.000 A 
ATOM     23  C   UNL     1      51.925   2.891  17.748  0.00  0.00    +0.000 A 
ATOM     24  N   UNL     1      50.584   2.682  17.626  0.00  0.00    +0.000 NA
ATOM     25  C   UNL     1      49.825   3.782  17.407  0.00  0.00    +0.000 A 
BRANCH  23  26
ATOM     26  C   UNL     1      52.768   1.700  18.090  0.00  0.00    +0.000 C 
ATOM     27  N   UNL     1      52.519   0.565  17.365  0.00  0.00    +0.000 N 
ATOM     28  O   UNL     1      53.615   1.722  18.974  0.00  0.00    +0.000 OA
ATOM     29  H   UNL     1      51.780   0.564  16.672  0.00  0.00    +0.000 HD
ATOM     30  H   UNL     1      53.017  -0.283  17.591  0.00  0.00    +0.000 HD
ENDBRANCH  23  26
ENDBRANCH  19  20
ENDBRANCH   3  19
TORSDOF 5
ENDMDL
MODEL 5
REMARK VINA RESULT:    -6.039      2.997      8.167
REMARK INTER + INTRA:          -8.346
REMARK INTER:                  -7.715
REMARK INTRA:                  -0.631
REMARK UNBOUND:                -0.541
REMARK  Name = 
REMARK  8 active torsions:
REMARK  status: ('A' for Active; 'I' for Inactive)
REMARK    1  A    between atoms: C_1  and  C_2
REMARK    2  A    between atoms: C_2  and  C_3
REMARK    3  A    between atoms: C_2  and  C_4
REMARK    4  A    between atoms: C_2  and  C_5
REMARK    5  A    between atoms: N_7  and  C_8
REMARK    6  A    between atoms: C_8  and  C_9
REMARK    7  A    between atoms: C_12  and  C_13
REMARK    8  A    between atoms: C_21  and  C_22
REMARK                            x       y       z     vdW  Elec       q    Type
REMARK                         _______ _______ _______ _____ _____    ______ ____
ROOT
ATOM      1  C   UNL     1      48.047   6.835  13.536  0.00  0.00    +0.000 A 
ATOM      2  C   UNL     1      48.213   6.336  14.821  0.00  0.00    +0.000 A 
ATOM      3  N   UNL     1      47.399   5.244  14.996  0.00  0.00    +0.000 N 
ATOM      4  C   UNL     1      46.677   5.025  13.849  0.00  0.00    +0.000 A 
ATOM      5  N   UNL     1      45.790   4.026  13.668  0.00  0.00    +0.000 NA
ATOM      6  C   UNL     1      45.220   4.033  12.433  0.00  0.00    +0.000 A 
ATOM      7  C   UNL     1      45.478   4.948  11.417  0.00  0.00    +0.000 A 
ATOM      8  C   UNL     1      46.405   5.963  11.668  0.00  0.00    +0.000 A 
ATOM      9  C   UNL     1      47.040   6.005  12.927  0.00  0.00    +0.000 A 
ENDROOT
BRANCH   7  10
ATOM     10  C   UNL     1      44.769   4.788  10.121  0.00  0.00    +0.000 C 
ATOM     11  N   UNL     1      43.419   5.003  10.078  0.00  0.00    +0.000 N 
ATOM     12  O   UNL     1      45.374   4.478   9.103  0.00  0.00    +0.000 OA
ATOM     13  H   UNL     1      42.840   5.264  10.860  0.00  0.00    +0.000 HD
ATOM     14  H   UNL     1      42.968   4.894   9.179  0.00  0.00    +0.000 HD
ENDBRANCH   7  10
BRANCH   1  16
ATOM     15  C   UNL     1      49.711   8.707  13.947  0.00  0.00    +0.000 C 
ATOM     16  C   UNL     1      48.798   8.012  12.912  0.00  0.00    +0.000 C 
ATOM     17  C   UNL     1      47.807   9.064  12.378  0.00  0.00    +0.000 C 
ATOM     18  C   UNL     1      49.707   7.538  11.757  0.00  0.00    +0.000 C 
ENDBRANCH   1  16
BRANCH   3  19
ATOM     19  C   UNL     1      47.452   4.356  16.151  0.00  0.00    +0.000 C 
BRANCH  19  20
ATOM     20  C   UNL     1      48.340   4.846  17.263  0.00  0.00    +0.000 A 
ATOM     21  C   UNL     1      47.857   5.675  18.280  0.00  0.00    +0.000 A 
ATOM     22  C   UNL     1      48.668   5.983  19.372  0.00  0.00    +0.000 A 
ATOM     23  C   UNL     1      49.947   5.448  19.415  0.00  0.00    +0.000 A 
ATOM     24  N   UNL     1      50.470   4.663  18.431  0.00  0.00    +0.000 NA
ATOM     25  C   UNL     1      49.652   4.387  17.388  0.00  0.00    +0.000 A 
BRANCH  23  26
ATOM     26  C   UNL     1      50.803   5.681  20.622  0.00  0.00    +0.000 C 
ATOM     27  N   UNL     1      50.776   6.950  21.136  0.00  0.00    +0.000 N 
ATOM     28  O   UNL     1      51.502   4.805  21.115  0.00  0.00    +0.000 OA
ATOM     29  H   UNL     1      50.224   7.665  20.678  0.00  0.00    +0.000 HD
ATOM     30  H   UNL     1      51.377   7.179  21.914  0.00  0.00    +0.000 HD
ENDBRANCH  23  26
ENDBRANCH  19  20
ENDBRANCH   3  19
TORSDOF 5
ENDMDL
MODEL 6
REMARK VINA RESULT:    -5.984      3.816      6.117
REMARK INTER + INTRA:          -8.274
REMARK INTER:                  -7.709
REMARK INTRA:                  -0.565
REMARK UNBOUND:                -0.541
REMARK  Name = 
REMARK  8 active torsions:
REMARK  status: ('A' for Active; 'I' for Inactive)
REMARK    1  A    between atoms: C_1  and  C_2
REMARK    2  A    between atoms: C_2  and  C_3
REMARK    3  A    between atoms: C_2  and  C_4
REMARK    4  A    between atoms: C_2  and  C_5
REMARK    5  A    between atoms: N_7  and  C_8
REMARK    6  A    between atoms: C_8  and  C_9
REMARK    7  A    between atoms: C_12  and  C_13
REMARK    8  A    between atoms: C_21  and  C_22
REMARK                            x       y       z     vdW  Elec       q    Type
REMARK                         _______ _______ _______ _____ _____    ______ ____
ROOT
ATOM      1  C   UNL     1      45.981   5.675  12.500  0.00  0.00    +0.000 A 
ATOM      2  C   UNL     1      46.427   6.926  12.098  0.00  0.00    +0.000 A 
ATOM      3  N   UNL     1      47.347   7.396  13.003  0.00  0.00    +0.000 N 
ATOM      4  C   UNL     1      47.501   6.480  14.014  0.00  0.00    +0.000 A 
ATOM      5  N   UNL     1      48.338   6.613  15.063  0.00  0.00    +0.000 NA
ATOM      6  C   UNL     1      48.303   5.554  15.914  0.00  0.00    +0.000 A 
ATOM      7  C   UNL     1      47.508   4.419  15.778  0.00  0.00    +0.000 A 
ATOM      8  C   UNL     1      46.658   4.343  14.672  0.00  0.00    +0.000 A 
ATOM      9  C   UNL     1      46.656   5.405  13.744  0.00  0.00    +0.000 A 
ENDROOT
BRANCH   7  10
ATOM     10  C   UNL     1      47.615   3.351  16.804  0.00  0.00    +0.000 C 
ATOM     11  N   UNL     1      48.841   2.799  17.055  0.00  0.00    +0.000 N 
ATOM     12  O   UNL     1      46.632   2.969  17.427  0.00  0.00    +0.000 OA
ATOM     13  H   UNL     1      49.703   3.050  16.599  0.00  0.00    +0.000 HD
ATOM     14  H   UNL     1      48.882   2.080  17.766  0.00  0.00    +0.000 HD
ENDBRANCH   7  10
BRANCH   1  16
ATOM     15  C   UNL     1      45.277   3.282  12.028  0.00  0.00    +0.000 C 
ATOM     16  C   UNL     1      44.993   4.777  11.754  0.00  0.00    +0.000 C 
ATOM     17  C   UNL     1      45.097   5.003  10.234  0.00  0.00    +0.000 C 
ATOM     18  C   UNL     1      43.543   5.050  12.211  0.00  0.00    +0.000 C 
ENDBRANCH   1  16
BRANCH   3  19
ATOM     19  C   UNL     1      48.162   8.588  12.803  0.00  0.00    +0.000 C 
BRANCH  19  20
ATOM     20  C   UNL     1      49.592   8.300  12.430  0.00  0.00    +0.000 A 
ATOM     21  C   UNL     1      49.928   7.702  11.210  0.00  0.00    +0.000 A 
ATOM     22  C   UNL     1      51.266   7.591  10.835  0.00  0.00    +0.000 A 
ATOM     23  C   UNL     1      52.236   8.083  11.697  0.00  0.00    +0.000 A 
ATOM     24  N   UNL     1      51.956   8.641  12.909  0.00  0.00    +0.000 NA
ATOM     25  C   UNL     1      50.645   8.732  13.236  0.00  0.00    +0.000 A 
BRANCH  23  26
ATOM     26  C   UNL     1      53.674   8.066  11.275  0.00  0.00    +0.000 C 
ATOM     27  N   UNL     1      54.308   6.856  11.368  0.00  0.00    +0.000 N 
ATOM     28  O   UNL     1      54.261   9.069  10.889  0.00  0.00    +0.000 OA
ATOM     29  H   UNL     1      53.809   6.055  11.735  0.00  0.00    +0.000 HD
ATOM     30  H   UNL     1      55.292   6.798  11.152  0.00  0.00    +0.000 HD
ENDBRANCH  23  26
ENDBRANCH  19  20
ENDBRANCH   3  19
TORSDOF 5
ENDMDL
MODEL 7
REMARK VINA RESULT:    -5.697      3.756      6.281
REMARK INTER + INTRA:          -7.903
REMARK INTER:                  -7.443
REMARK INTRA:                  -0.460
REMARK UNBOUND:                -0.541
REMARK  Name = 
REMARK  8 active torsions:
REMARK  status: ('A' for Active; 'I' for Inactive)
REMARK    1  A    between atoms: C_1  and  C_2
REMARK    2  A    between atoms: C_2  and  C_3
REMARK    3  A    between atoms: C_2  and  C_4
REMARK    4  A    between atoms: C_2  and  C_5
REMARK    5  A    between atoms: N_7  and  C_8
REMARK    6  A    between atoms: C_8  and  C_9
REMARK    7  A    between atoms: C_12  and  C_13
REMARK    8  A    between atoms: C_21  and  C_22
REMARK                            x       y       z     vdW  Elec       q    Type
REMARK                         _______ _______ _______ _____ _____    ______ ____
ROOT
ATOM      1  C   UNL     1      50.116   5.847  17.509  0.00  0.00    +0.000 A 
ATOM      2  C   UNL     1      48.850   5.906  16.942  0.00  0.00    +0.000 A 
ATOM      3  N   UNL     1      48.455   4.643  16.575  0.00  0.00    +0.000 N 
ATOM      4  C   UNL     1      49.453   3.749  16.871  0.00  0.00    +0.000 A 
ATOM      5  N   UNL     1      49.395   2.418  16.656  0.00  0.00    +0.000 NA
ATOM      6  C   UNL     1      50.518   1.762  17.051  0.00  0.00    +0.000 A 
ATOM      7  C   UNL     1      51.648   2.341  17.622  0.00  0.00    +0.000 A 
ATOM      8  C   UNL     1      51.649   3.725  17.816  0.00  0.00    +0.000 A 
ATOM      9  C   UNL     1      50.508   4.463  17.437  0.00  0.00    +0.000 A 
ENDROOT
BRANCH   7  10
ATOM     10  C   UNL     1      52.779   1.459  18.007  0.00  0.00    +0.000 C 
ATOM     11  N   UNL     1      52.982   0.303  17.306  0.00  0.00    +0.000 N 
ATOM     12  O   UNL     1      53.529   1.757  18.929  0.00  0.00    +0.000 OA
ATOM     13  H   UNL     1      52.423  -0.021  16.533  0.00  0.00    +0.000 HD
ATOM     14  H   UNL     1      53.766  -0.271  17.588  0.00  0.00    +0.000 HD
ENDBRANCH   7  10
BRANCH   1  16
ATOM     15  C   UNL     1      51.185   6.804  19.603  0.00  0.00    +0.000 C 
ATOM     16  C   UNL     1      50.905   7.017  18.097  0.00  0.00    +0.000 C 
ATOM     17  C   UNL     1      50.115   8.332  17.949  0.00  0.00    +0.000 C 
ATOM     18  C   UNL     1      52.276   7.166  17.402  0.00  0.00    +0.000 C 
ENDBRANCH   1  16
BRANCH   3  19
ATOM     19  C   UNL     1      47.112   4.300  16.125  0.00  0.00    +0.000 C 
BRANCH  19  20
ATOM     20  C   UNL     1      46.833   4.658  14.689  0.00  0.00    +0.000 A 
ATOM     21  C   UNL     1      46.131   3.797  13.839  0.00  0.00    +0.000 A 
ATOM     22  C   UNL     1      45.761   4.225  12.565  0.00  0.00    +0.000 A 
ATOM     23  C   UNL     1      46.107   5.512  12.176  0.00  0.00    +0.000 A 
ATOM     24  N   UNL     1      46.819   6.371  12.958  0.00  0.00    +0.000 NA
ATOM     25  C   UNL     1      47.160   5.918  14.188  0.00  0.00    +0.000 A 
BRANCH  23  26
ATOM     26  C   UNL     1      45.636   6.032  10.852  0.00  0.00    +0.000 C 
ATOM     27  N   UNL     1      44.850   7.152  10.896  0.00  0.00    +0.000 N 
ATOM     28  O   UNL     1      45.914   5.485   9.791  0.00  0.00    +0.000 OA
ATOM     29  H   UNL     1      44.598   7.553  11.792  0.00  0.00    +0.000 HD
ATOM     30  H   UNL     1      44.457   7.512  10.039  0.00  0.00    +0.000 HD
ENDBRANCH  23  26
ENDBRANCH  19  20
ENDBRANCH   3  19
TORSDOF 5
ENDMDL
MODEL 8
REMARK VINA RESULT:    -5.668      3.694      8.049
REMARK INTER + INTRA:          -7.866
REMARK INTER:                  -7.261
REMARK INTRA:                  -0.605
REMARK UNBOUND:                -0.541
REMARK  Name = 
REMARK  8 active torsions:
REMARK  status: ('A' for Active; 'I' for Inactive)
REMARK    1  A    between atoms: C_1  and  C_2
REMARK    2  A    between atoms: C_2  and  C_3
REMARK    3  A    between atoms: C_2  and  C_4
REMARK    4  A    between atoms: C_2  and  C_5
REMARK    5  A    between atoms: N_7  and  C_8
REMARK    6  A    between atoms: C_8  and  C_9
REMARK    7  A    between atoms: C_12  and  C_13
REMARK    8  A    between atoms: C_21  and  C_22
REMARK                            x       y       z     vdW  Elec       q    Type
REMARK                         _______ _______ _______ _____ _____    ______ ____
ROOT
ATOM      1  C   UNL     1      45.398   4.456  12.657  0.00  0.00    +0.000 A 
ATOM      2  C   UNL     1      45.993   3.457  13.416  0.00  0.00    +0.000 A 
ATOM      3  N   UNL     1      47.114   3.958  14.032  0.00  0.00    +0.000 N 
ATOM      4  C   UNL     1      47.283   5.272  13.673  0.00  0.00    +0.000 A 
ATOM      5  N   UNL     1      48.276   6.075  14.107  0.00  0.00    +0.000 NA
ATOM      6  C   UNL     1      48.203   7.337  13.604  0.00  0.00    +0.000 A 
ATOM      7  C   UNL     1      47.233   7.815  12.727  0.00  0.00    +0.000 A 
ATOM      8  C   UNL     1      46.233   6.932  12.312  0.00  0.00    +0.000 A 
ATOM      9  C   UNL     1      46.245   5.611  12.806  0.00  0.00    +0.000 A 
ENDROOT
BRANCH   7  10
ATOM     10  C   UNL     1      47.305   9.234  12.295  0.00  0.00    +0.000 C 
ATOM     11  N   UNL     1      46.243  10.056  12.550  0.00  0.00    +0.000 N 
ATOM     12  O   UNL     1      48.298   9.673  11.727  0.00  0.00    +0.000 OA
ATOM     13  H   UNL     1      45.390   9.787  13.014  0.00  0.00    +0.000 HD
ATOM     14  H   UNL     1      46.327  11.019  12.251  0.00  0.00    +0.000 HD
ENDBRANCH   7  10
BRANCH   1  16
ATOM     15  C   UNL     1      43.043   5.350  12.344  0.00  0.00    +0.000 C 
ATOM     16  C   UNL     1      44.104   4.339  11.851  0.00  0.00    +0.000 C 
ATOM     17  C   UNL     1      43.505   2.926  11.993  0.00  0.00    +0.000 C 
ATOM     18  C   UNL     1      44.352   4.639  10.357  0.00  0.00    +0.000 C 
ENDBRANCH   1  16
BRANCH   3  19
ATOM     19  C   UNL     1      47.877   3.250  15.052  0.00  0.00    +0.000 C 
BRANCH  19  20
ATOM     20  C   UNL     1      47.958   3.972  16.371  0.00  0.00    +0.000 A 
ATOM     21  C   UNL     1      46.811   4.390  17.053  0.00  0.00    +0.000 A 
ATOM     22  C   UNL     1      46.919   4.917  18.339  0.00  0.00    +0.000 A 
ATOM     23  C   UNL     1      48.181   5.012  18.909  0.00  0.00    +0.000 A 
ATOM     24  N   UNL     1      49.328   4.648  18.269  0.00  0.00    +0.000 NA
ATOM     25  C   UNL     1      49.181   4.141  17.022  0.00  0.00    +0.000 A 
BRANCH  23  26
ATOM     26  C   UNL     1      48.316   5.482  20.326  0.00  0.00    +0.000 C 
ATOM     27  N   UNL     1      47.158   5.514  21.056  0.00  0.00    +0.000 N 
ATOM     28  O   UNL     1      49.385   5.837  20.805  0.00  0.00    +0.000 OA
ATOM     29  H   UNL     1      46.281   5.259  20.618  0.00  0.00    +0.000 HD
ATOM     30  H   UNL     1      47.180   5.876  21.998  0.00  0.00    +0.000 HD
ENDBRANCH  23  26
ENDBRANCH  19  20
ENDBRANCH   3  19
TORSDOF 5
ENDMDL
