MODEL 1
REMARK VINA RESULT:    -8.871      0.000      0.000
REMARK INTER + INTRA:         -12.393
REMARK INTER:                 -11.464
REMARK INTRA:                  -0.929
REMARK UNBOUND:                -0.929
REMARK  Name = 
REMARK  5 active torsions:
REMARK  status: ('A' for Active; 'I' for Inactive)
REMARK    1  A    between atoms: C_2  and  C_4
REMARK    2  A    between atoms: C_7  and  N_8
REMARK    3  A    between atoms: N_8  and  C_9
REMARK    4  A    between atoms: C_9  and  C_10
REMARK    5  A    between atoms: C_15  and  N_16
REMARK                            x       y       z     vdW  Elec       q    Type
REMARK                         _______ _______ _______ _____ _____    ______ ____
ROOT
ATOM      1  C   UNL     1      43.864   5.161  11.333  0.00  0.00    +0.000 C 
ATOM      2  C   UNL     1      43.684   4.077  12.388  0.00  0.00    +0.000 C 
ATOM      3  C   UNL     1      42.647   5.136  12.249  0.00  0.00    +0.000 C 
ENDROOT
BRANCH   1   4
ATOM      4  C   UNL     1      44.824   6.320  11.588  0.00  0.00    +0.000 A 
ATOM      5  C   UNL     1      44.422   7.656  11.417  0.00  0.00    +0.000 A 
ATOM      6  C   UNL     1      45.257   8.710  11.786  0.00  0.00    +0.000 A 
ATOM      7  C   UNL     1      46.503   8.437  12.343  0.00  0.00    +0.000 A 
ATOM      8  F   UNL     1      47.270   9.480  12.703  0.00  0.00    +0.000 F 
ATOM      9  C   UNL     1      46.971   7.126  12.506  0.00  0.00    +0.000 A 
ATOM     10  C   UNL     1      46.120   6.093  12.083  0.00  0.00    +0.000 A 
BRANCH   9  11
ATOM     11  N   UNL     1      48.170   6.805  13.110  0.00  0.00    +0.000 N 
ATOM     12  C   UNL     1      48.243   6.321  14.489  0.00  0.00    +0.000 C 
ATOM     13  C   UNL     1      49.093   7.269  15.340  0.00  0.00    +0.000 C 
ATOM     14  O   UNL     1      50.390   7.481  14.751  0.00  0.00    +0.000 OA
ATOM     15  C   UNL     1      50.251   8.063  13.443  0.00  0.00    +0.000 C 
ATOM     16  C   UNL     1      49.455   7.152  12.493  0.00  0.00    +0.000 C 
ENDBRANCH   9  11
ENDBRANCH   1   4
BRANCH   1  17
ATOM     17  N   UNL     1      43.706   4.811   9.915  0.00  0.00    +0.000 N 
ATOM     18  H   UNL     1      42.782   4.897   9.502  0.00  0.00    +0.000 HD
BRANCH  17  22
ATOM     19  C   UNL     1      46.387   2.313   7.790  0.00  0.00    +0.000 A 
ATOM     20  C   UNL     1      45.471   1.746   8.676  0.00  0.00    +0.000 A 
ATOM     21  C   UNL     1      44.590   2.565   9.388  0.00  0.00    +0.000 A 
ATOM     22  C   UNL     1      44.571   3.953   9.208  0.00  0.00    +0.000 A 
ATOM     23  C   UNL     1      45.538   4.511   8.359  0.00  0.00    +0.000 A 
ATOM     24  C   UNL     1      46.440   3.703   7.655  0.00  0.00    +0.000 A 
BRANCH  19  26
ATOM     25  N   UNL     1      48.430   2.089   6.494  0.00  0.00    +0.000 N 
ATOM     26  C   UNL     1      47.317   1.476   6.997  0.00  0.00    +0.000 C 
ATOM     27  O   UNL     1      47.119   0.278   6.824  0.00  0.00    +0.000 OA
ATOM     28  H   UNL     1      49.114   1.479   6.064  0.00  0.00    +0.000 HD
ATOM     29  H   UNL     1      48.759   2.983   6.832  0.00  0.00    +0.000 HD
ENDBRANCH  19  26
ENDBRANCH  17  22
ENDBRANCH   1  17
TORSDOF 5
ENDMDL
MODEL 2
REMARK VINA RESULT:    -8.839      1.468      2.157
REMARK INTER + INTRA:         -12.352
REMARK INTER:                 -11.275
REMARK INTRA:                  -1.077
REMARK UNBOUND:                -0.929
REMARK  Name = 
REMARK  5 active torsions:
REMARK  status: ('A' for Active; 'I' for Inactive)
REMARK    1  A    between atoms: C_2  and  C_4
REMARK    2  A    between atoms: C_7  and  N_8
REMARK    3  A    between atoms: N_8  and  C_9
REMARK    4  A    between atoms: C_9  and  C_10
REMARK    5  A    between atoms: C_15  and  N_16
REMARK                            x       y       z     vdW  Elec       q    Type
REMARK                         _______ _______ _______ _____ _____    ______ ____
ROOT
ATOM      1  C   UNL     1      43.954   4.913  11.474  0.00  0.00    +0.000 C 
ATOM      2  C   UNL     1      43.025   3.843  12.032  0.00  0.00    +0.000 C 
ATOM      3  C   UNL     1      42.617   5.273  12.108  0.00  0.00    +0.000 C 
ENDROOT
BRANCH   1   4
ATOM      4  C   UNL     1      45.174   5.358  12.276  0.00  0.00    +0.000 A 
ATOM      5  C   UNL     1      45.700   4.566  13.311  0.00  0.00    +0.000 A 
ATOM      6  C   UNL     1      46.894   4.911  13.942  0.00  0.00    +0.000 A 
ATOM      7  C   UNL     1      47.583   6.049  13.536  0.00  0.00    +0.000 A 
ATOM      8  F   UNL     1      48.740   6.336  14.156  0.00  0.00    +0.000 F 
ATOM      9  C   UNL     1      47.091   6.895  12.532  0.00  0.00    +0.000 A 
ATOM     10  C   UNL     1      45.864   6.539  11.950  0.00  0.00    +0.000 A 
BRANCH   9  11
ATOM     11  N   UNL     1      47.768   7.997  12.052  0.00  0.00    +0.000 N 
ATOM     12  C   UNL     1      49.062   7.884  11.375  0.00  0.00    +0.000 C 
ATOM     13  C   UNL     1      50.130   8.674  12.138  0.00  0.00    +0.000 C 
ATOM     14  O   UNL     1      49.724  10.039  12.344  0.00  0.00    +0.000 OA
ATOM     15  C   UNL     1      48.507  10.085  13.111  0.00  0.00    +0.000 C 
ATOM     16  C   UNL     1      47.353   9.362  12.396  0.00  0.00    +0.000 C 
ENDBRANCH   9  11
ENDBRANCH   1   4
BRANCH   1  17
ATOM     17  N   UNL     1      44.115   5.030  10.018  0.00  0.00    +0.000 N 
ATOM     18  H   UNL     1      43.391   5.512   9.494  0.00  0.00    +0.000 HD
BRANCH  17  22
ATOM     19  C   UNL     1      46.585   2.517   7.666  0.00  0.00    +0.000 A 
ATOM     20  C   UNL     1      45.697   1.951   8.581  0.00  0.00    +0.000 A 
ATOM     21  C   UNL     1      44.886   2.775   9.368  0.00  0.00    +0.000 A 
ATOM     22  C   UNL     1      44.910   4.168   9.236  0.00  0.00    +0.000 A 
ATOM     23  C   UNL     1      45.849   4.722   8.354  0.00  0.00    +0.000 A 
ATOM     24  C   UNL     1      46.682   3.909   7.575  0.00  0.00    +0.000 A 
BRANCH  19  26
ATOM     25  N   UNL     1      48.508   2.286   6.199  0.00  0.00    +0.000 N 
ATOM     26  C   UNL     1      47.440   1.677   6.796  0.00  0.00    +0.000 C 
ATOM     27  O   UNL     1      47.223   0.480   6.640  0.00  0.00    +0.000 OA
ATOM     28  H   UNL     1      49.150   1.673   5.711  0.00  0.00    +0.000 HD
ATOM     29  H   UNL     1      48.869   3.179   6.508  0.00  0.00    +0.000 HD
ENDBRANCH  19  26
ENDBRANCH  17  22
ENDBRANCH   1  17
TORSDOF 5
ENDMDL
MODEL 3
REMARK VINA RESULT:    -8.581      1.586      1.993
REMARK INTER + INTRA:         -12.018
REMARK INTER:                 -11.452
REMARK INTRA:                  -0.566
REMARK UNBOUND:                -0.929
REMARK  Name = 
REMARK  5 active torsions:
REMARK  status: ('A' for Active; 'I' for Inactive)
REMARK    1  A    between atoms: C_2  and  C_4
REMARK    2  A    between atoms: C_7  and  N_8
REMARK    3  A    between atoms: N_8  and  C_9
REMARK    4  A    between atoms: C_9  and  C_10
REMARK    5  A    between atoms: C_15  and  N_16
REMARK                            x       y       z     vdW  Elec       q    Type
REMARK                         _______ _______ _______ _____ _____    ______ ____
ROOT
ATOM      1  C   UNL     1      43.957   4.902  11.666  0.00  0.00    +0.000 C 
ATOM      2  C   UNL     1      43.330   3.831  12.548  0.00  0.00    +0.000 C 
ATOM      3  C   UNL     1      42.714   5.185  12.500  0.00  0.00    +0.000 C 
ENDROOT
BRANCH   1   4
ATOM      4  C   UNL     1      45.212   5.635  12.133  0.00  0.00    +0.000 A 
ATOM      5  C   UNL     1      45.545   6.907  11.637  0.00  0.00    +0.000 A 
ATOM      6  C   UNL     1      46.612   7.629  12.170  0.00  0.00    +0.000 A 
ATOM      7  C   UNL     1      47.353   7.088  13.216  0.00  0.00    +0.000 A 
ATOM      8  F   UNL     1      48.361   7.823  13.716  0.00  0.00    +0.000 F 
ATOM      9  C   UNL     1      47.089   5.810  13.729  0.00  0.00    +0.000 A 
ATOM     10  C   UNL     1      46.035   5.097  13.138  0.00  0.00    +0.000 A 
BRANCH   9  11
ATOM     11  N   UNL     1      47.753   5.259  14.806  0.00  0.00    +0.000 N 
ATOM     12  C   UNL     1      47.378   3.962  15.373  0.00  0.00    +0.000 C 
ATOM     13  C   UNL     1      46.978   4.122  16.843  0.00  0.00    +0.000 C 
ATOM     14  O   UNL     1      48.010   4.786  17.597  0.00  0.00    +0.000 OA
ATOM     15  C   UNL     1      48.251   6.098  17.058  0.00  0.00    +0.000 C 
ATOM     16  C   UNL     1      48.716   6.038  15.593  0.00  0.00    +0.000 C 
ENDBRANCH   9  11
ENDBRANCH   1   4
BRANCH   1  17
ATOM     17  N   UNL     1      43.834   4.788  10.206  0.00  0.00    +0.000 N 
ATOM     18  H   UNL     1      42.932   4.990   9.785  0.00  0.00    +0.000 HD
BRANCH  17  22
ATOM     19  C   UNL     1      46.454   2.511   7.778  0.00  0.00    +0.000 A 
ATOM     20  C   UNL     1      45.600   1.861   8.670  0.00  0.00    +0.000 A 
ATOM     21  C   UNL     1      44.741   2.607   9.482  0.00  0.00    +0.000 A 
ATOM     22  C   UNL     1      44.680   4.002   9.398  0.00  0.00    +0.000 A 
ATOM     23  C   UNL     1      45.586   4.642   8.539  0.00  0.00    +0.000 A 
ATOM     24  C   UNL     1      46.467   3.908   7.735  0.00  0.00    +0.000 A 
BRANCH  19  26
ATOM     25  N   UNL     1      48.410   2.436   6.339  0.00  0.00    +0.000 N 
ATOM     26  C   UNL     1      47.358   1.753   6.883  0.00  0.00    +0.000 C 
ATOM     27  O   UNL     1      47.196   0.558   6.661  0.00  0.00    +0.000 OA
ATOM     28  H   UNL     1      49.086   1.878   5.834  0.00  0.00    +0.000 HD
ATOM     29  H   UNL     1      48.728   3.326   6.702  0.00  0.00    +0.000 HD
ENDBRANCH  19  26
ENDBRANCH  17  22
ENDBRANCH   1  17
TORSDOF 5
ENDMDL
MODEL 4
REMARK VINA RESULT:    -8.091      2.910      4.361
REMARK INTER + INTRA:         -11.386
REMARK INTER:                 -10.448
REMARK INTRA:                  -0.938
REMARK UNBOUND:                -0.929
REMARK  Name = 
REMARK  5 active torsions:
REMARK  status: ('A' for Active; 'I' for Inactive)
REMARK    1  A    between atoms: C_2  and  C_4
REMARK    2  A    between atoms: C_7  and  N_8
REMARK    3  A    between atoms: N_8  and  C_9
REMARK    4  A    between atoms: C_9  and  C_10
REMARK    5  A    between atoms: C_15  and  N_16
REMARK                            x       y       z     vdW  Elec       q    Type
REMARK                         _______ _______ _______ _____ _____    ______ ____
ROOT
ATOM      1  C   UNL     1      44.693   5.553  11.606  0.00  0.00    +0.000 C 
ATOM      2  C   UNL     1      45.204   4.448  12.520  0.00  0.00    +0.000 C 
ATOM      3  C   UNL     1      43.850   5.018  12.757  0.00  0.00    +0.000 C 
ENDROOT
BRANCH   1   4
ATOM      4  C   UNL     1      45.185   6.986  11.795  0.00  0.00    +0.000 A 
ATOM      5  C   UNL     1      46.481   7.262  12.262  0.00  0.00    +0.000 A 
ATOM      6  C   UNL     1      46.969   8.567  12.297  0.00  0.00    +0.000 A 
ATOM      7  C   UNL     1      46.166   9.613  11.853  0.00  0.00    +0.000 A 
ATOM      8  F   UNL     1      46.680  10.855  11.884  0.00  0.00    +0.000 F 
ATOM      9  C   UNL     1      44.853   9.403  11.408  0.00  0.00    +0.000 A 
ATOM     10  C   UNL     1      44.383   8.081  11.428  0.00  0.00    +0.000 A 
BRANCH   9  11
ATOM     11  N   UNL     1      44.043  10.398  10.899  0.00  0.00    +0.000 N 
ATOM     12  C   UNL     1      42.757  10.743  11.508  0.00  0.00    +0.000 C 
ATOM     13  C   UNL     1      41.621  10.539  10.500  0.00  0.00    +0.000 C 
ATOM     14  O   UNL     1      41.872  11.254   9.276  0.00  0.00    +0.000 OA
ATOM     15  C   UNL     1      43.092  10.788   8.670  0.00  0.00    +0.000 C 
ATOM     16  C   UNL     1      44.306  11.005   9.589  0.00  0.00    +0.000 C 
ENDBRANCH   9  11
ENDBRANCH   1   4
BRANCH   1  17
ATOM     17  N   UNL     1      44.319   5.222  10.224  0.00  0.00    +0.000 N 
ATOM     18  H   UNL     1      43.337   5.273   9.970  0.00  0.00    +0.000 HD
BRANCH  17  22
ATOM     19  C   UNL     1      46.557   2.728   7.632  0.00  0.00    +0.000 A 
ATOM     20  C   UNL     1      46.745   4.110   7.592  0.00  0.00    +0.000 A 
ATOM     21  C   UNL     1      46.002   4.940   8.438  0.00  0.00    +0.000 A 
ATOM     22  C   UNL     1      45.092   4.417   9.364  0.00  0.00    +0.000 A 
ATOM     23  C   UNL     1      44.873   3.032   9.349  0.00  0.00    +0.000 A 
ATOM     24  C   UNL     1      45.595   2.191   8.493  0.00  0.00    +0.000 A 
BRANCH  19  26
ATOM     25  N   UNL     1      48.390   2.361   6.081  0.00  0.00    +0.000 N 
ATOM     26  C   UNL     1      47.345   1.816   6.772  0.00  0.00    +0.000 C 
ATOM     27  O   UNL     1      47.096   0.617   6.704  0.00  0.00    +0.000 OA
ATOM     28  H   UNL     1      48.993   1.705   5.600  0.00  0.00    +0.000 HD
ATOM     29  H   UNL     1      48.786   3.263   6.314  0.00  0.00    +0.000 HD
ENDBRANCH  19  26
ENDBRANCH  17  22
ENDBRANCH   1  17
TORSDOF 5
ENDMDL
MODEL 5
REMARK VINA RESULT:    -6.886      3.918      7.859
REMARK INTER + INTRA:          -9.827
REMARK INTER:                  -9.317
REMARK INTRA:                  -0.511
REMARK UNBOUND:                -0.929
REMARK  Name = 
REMARK  5 active torsions:
REMARK  status: ('A' for Active; 'I' for Inactive)
REMARK    1  A    between atoms: C_2  and  C_4
REMARK    2  A    between atoms: C_7  and  N_8
REMARK    3  A    between atoms: N_8  and  C_9
REMARK    4  A    between atoms: C_9  and  C_10
REMARK    5  A    between atoms: C_15  and  N_16
REMARK                            x       y       z     vdW  Elec       q    Type
REMARK                         _______ _______ _______ _____ _____    ______ ____
ROOT
ATOM      1  C   UNL     1      48.579   6.678  15.568  0.00  0.00    +0.000 C 
ATOM      2  C   UNL     1      49.936   7.361  15.667  0.00  0.00    +0.000 C 
ATOM      3  C   UNL     1      48.722   8.084  16.135  0.00  0.00    +0.000 C 
ENDROOT
BRANCH   1   4
ATOM      4  C   UNL     1      47.857   6.609  14.224  0.00  0.00    +0.000 A 
ATOM      5  C   UNL     1      48.360   7.262  13.087  0.00  0.00    +0.000 A 
ATOM      6  C   UNL     1      47.773   7.079  11.835  0.00  0.00    +0.000 A 
ATOM      7  C   UNL     1      46.680   6.227  11.706  0.00  0.00    +0.000 A 
ATOM      8  F   UNL     1      46.156   6.062  10.481  0.00  0.00    +0.000 F 
ATOM      9  C   UNL     1      46.114   5.575  12.811  0.00  0.00    +0.000 A 
ATOM     10  C   UNL     1      46.705   5.819  14.060  0.00  0.00    +0.000 A 
BRANCH   9  11
ATOM     11  N   UNL     1      45.073   4.674  12.724  0.00  0.00    +0.000 N 
ATOM     12  C   UNL     1      45.256   3.319  12.199  0.00  0.00    +0.000 C 
ATOM     13  C   UNL     1      44.367   3.102  10.970  0.00  0.00    +0.000 C 
ATOM     14  O   UNL     1      42.991   3.410  11.258  0.00  0.00    +0.000 OA
ATOM     15  C   UNL     1      42.864   4.786  11.659  0.00  0.00    +0.000 C 
ATOM     16  C   UNL     1      43.680   5.090  12.926  0.00  0.00    +0.000 C 
ENDBRANCH   9  11
ENDBRANCH   1   4
BRANCH   1  17
ATOM     17  N   UNL     1      48.271   5.563  16.475  0.00  0.00    +0.000 N 
ATOM     18  H   UNL     1      47.555   5.706  17.181  0.00  0.00    +0.000 HD
BRANCH  17  22
ATOM     19  C   UNL     1      50.985   2.453  17.426  0.00  0.00    +0.000 A 
ATOM     20  C   UNL     1      49.710   2.136  16.955  0.00  0.00    +0.000 A 
ATOM     21  C   UNL     1      48.805   3.158  16.649  0.00  0.00    +0.000 A 
ATOM     22  C   UNL     1      49.158   4.507  16.763  0.00  0.00    +0.000 A 
ATOM     23  C   UNL     1      50.422   4.807  17.294  0.00  0.00    +0.000 A 
ATOM     24  C   UNL     1      51.330   3.793  17.624  0.00  0.00    +0.000 A 
BRANCH  19  26
ATOM     25  N   UNL     1      51.494   0.187  18.140  0.00  0.00    +0.000 N 
ATOM     26  C   UNL     1      51.979   1.399  17.733  0.00  0.00    +0.000 C 
ATOM     27  O   UNL     1      53.183   1.588  17.599  0.00  0.00    +0.000 OA
ATOM     28  H   UNL     1      52.177  -0.556  18.224  0.00  0.00    +0.000 HD
ATOM     29  H   UNL     1      50.530  -0.087  18.005  0.00  0.00    +0.000 HD
ENDBRANCH  19  26
ENDBRANCH  17  22
ENDBRANCH   1  17
TORSDOF 5
ENDMDL
MODEL 6
REMARK VINA RESULT:    -6.642      2.877      7.755
REMARK INTER + INTRA:          -9.513
REMARK INTER:                  -9.148
REMARK INTRA:                  -0.365
REMARK UNBOUND:                -0.929
REMARK  Name = 
REMARK  5 active torsions:
REMARK  status: ('A' for Active; 'I' for Inactive)
REMARK    1  A    between atoms: C_2  and  C_4
REMARK    2  A    between atoms: C_7  and  N_8
REMARK    3  A    between atoms: N_8  and  C_9
REMARK    4  A    between atoms: C_9  and  C_10
REMARK    5  A    between atoms: C_15  and  N_16
REMARK                            x       y       z     vdW  Elec       q    Type
REMARK                         _______ _______ _______ _____ _____    ______ ____
ROOT
ATOM      1  C   UNL     1      46.652   6.677  12.689  0.00  0.00    +0.000 C 
ATOM      2  C   UNL     1      46.693   7.942  11.843  0.00  0.00    +0.000 C 
ATOM      3  C   UNL     1      46.032   7.980  13.176  0.00  0.00    +0.000 C 
ENDROOT
BRANCH   1   4
ATOM      4  C   UNL     1      45.642   5.577  12.368  0.00  0.00    +0.000 A 
ATOM      5  C   UNL     1      44.591   5.267  13.247  0.00  0.00    +0.000 A 
ATOM      6  C   UNL     1      43.594   4.363  12.884  0.00  0.00    +0.000 A 
ATOM      7  C   UNL     1      43.633   3.765  11.627  0.00  0.00    +0.000 A 
ATOM      8  F   UNL     1      42.644   2.914  11.307  0.00  0.00    +0.000 F 
ATOM      9  C   UNL     1      44.675   4.011  10.721  0.00  0.00    +0.000 A 
ATOM     10  C   UNL     1      45.682   4.893  11.140  0.00  0.00    +0.000 A 
BRANCH   9  11
ATOM     11  N   UNL     1      44.722   3.493   9.443  0.00  0.00    +0.000 N 
ATOM     12  C   UNL     1      44.679   2.052   9.184  0.00  0.00    +0.000 C 
ATOM     13  C   UNL     1      45.948   1.607   8.450  0.00  0.00    +0.000 C 
ATOM     14  O   UNL     1      46.164   2.385   7.258  0.00  0.00    +0.000 OA
ATOM     15  C   UNL     1      46.312   3.776   7.594  0.00  0.00    +0.000 C 
ATOM     16  C   UNL     1      45.057   4.333   8.288  0.00  0.00    +0.000 C 
ENDBRANCH   9  11
ENDBRANCH   1   4
BRANCH   1  17
ATOM     17  N   UNL     1      47.892   6.192  13.311  0.00  0.00    +0.000 N 
ATOM     18  H   UNL     1      48.623   5.835  12.704  0.00  0.00    +0.000 HD
BRANCH  17  22
ATOM     19  C   UNL     1      48.189   4.977  17.359  0.00  0.00    +0.000 A 
ATOM     20  C   UNL     1      47.485   4.185  16.451  0.00  0.00    +0.000 A 
ATOM     21  C   UNL     1      47.374   4.586  15.115  0.00  0.00    +0.000 A 
ATOM     22  C   UNL     1      47.990   5.752  14.646  0.00  0.00    +0.000 A 
ATOM     23  C   UNL     1      48.642   6.565  15.584  0.00  0.00    +0.000 A 
ATOM     24  C   UNL     1      48.743   6.187  16.929  0.00  0.00    +0.000 A 
BRANCH  19  26
ATOM     25  N   UNL     1      48.221   3.242  19.059  0.00  0.00    +0.000 N 
ATOM     26  C   UNL     1      48.351   4.572  18.774  0.00  0.00    +0.000 C 
ATOM     27  O   UNL     1      48.624   5.385  19.651  0.00  0.00    +0.000 OA
ATOM     28  H   UNL     1      48.459   2.967  20.004  0.00  0.00    +0.000 HD
ATOM     29  H   UNL     1      48.266   2.525  18.346  0.00  0.00    +0.000 HD
ENDBRANCH  19  26
ENDBRANCH  17  22
ENDBRANCH   1  17
TORSDOF 5
ENDMDL
MODEL 7
REMARK VINA RESULT:    -6.517      4.224      6.367
REMARK INTER + INTRA:          -9.351
REMARK INTER:                  -8.110
REMARK INTRA:                  -1.241
REMARK UNBOUND:                -0.929
REMARK  Name = 
REMARK  5 active torsions:
REMARK  status: ('A' for Active; 'I' for Inactive)
REMARK    1  A    between atoms: C_2  and  C_4
REMARK    2  A    between atoms: C_7  and  N_8
REMARK    3  A    between atoms: N_8  and  C_9
REMARK    4  A    between atoms: C_9  and  C_10
REMARK    5  A    between atoms: C_15  and  N_16
REMARK                            x       y       z     vdW  Elec       q    Type
REMARK                         _______ _______ _______ _____ _____    ______ ____
ROOT
ATOM      1  C   UNL     1      49.279   7.862  13.526  0.00  0.00    +0.000 C 
ATOM      2  C   UNL     1      49.435   9.182  12.782  0.00  0.00    +0.000 C 
ATOM      3  C   UNL     1      50.647   8.380  13.101  0.00  0.00    +0.000 C 
ENDROOT
BRANCH   1   4
ATOM      4  C   UNL     1      49.043   7.861  15.034  0.00  0.00    +0.000 A 
ATOM      5  C   UNL     1      48.623   9.018  15.712  0.00  0.00    +0.000 A 
ATOM      6  C   UNL     1      48.275   8.973  17.061  0.00  0.00    +0.000 A 
ATOM      7  C   UNL     1      48.333   7.763  17.746  0.00  0.00    +0.000 A 
ATOM      8  F   UNL     1      47.971   7.757  19.040  0.00  0.00    +0.000 F 
ATOM      9  C   UNL     1      48.777   6.584  17.131  0.00  0.00    +0.000 A 
ATOM     10  C   UNL     1      49.160   6.678  15.785  0.00  0.00    +0.000 A 
BRANCH   9  11
ATOM     11  N   UNL     1      48.792   5.350  17.751  0.00  0.00    +0.000 N 
ATOM     12  C   UNL     1      49.985   4.828  18.419  0.00  0.00    +0.000 C 
ATOM     13  C   UNL     1      50.423   3.510  17.770  0.00  0.00    +0.000 C 
ATOM     14  O   UNL     1      49.341   2.561  17.731  0.00  0.00    +0.000 OA
ATOM     15  C   UNL     1      48.244   3.090  16.964  0.00  0.00    +0.000 C 
ATOM     16  C   UNL     1      47.695   4.391  17.574  0.00  0.00    +0.000 C 
ENDBRANCH   9  11
ENDBRANCH   1   4
BRANCH   1  17
ATOM     17  N   UNL     1      48.695   6.711  12.824  0.00  0.00    +0.000 N 
ATOM     18  H   UNL     1      49.240   6.274  12.087  0.00  0.00    +0.000 HD
BRANCH  17  22
ATOM     19  C   UNL     1      44.548   5.853  12.697  0.00  0.00    +0.000 A 
ATOM     20  C   UNL     1      45.021   7.053  12.164  0.00  0.00    +0.000 A 
ATOM     21  C   UNL     1      46.387   7.347  12.212  0.00  0.00    +0.000 A 
ATOM     22  C   UNL     1      47.313   6.445  12.749  0.00  0.00    +0.000 A 
ATOM     23  C   UNL     1      46.814   5.272  13.333  0.00  0.00    +0.000 A 
ATOM     24  C   UNL     1      45.445   4.974  13.310  0.00  0.00    +0.000 A 
BRANCH  19  26
ATOM     25  N   UNL     1      42.340   6.167  11.733  0.00  0.00    +0.000 N 
ATOM     26  C   UNL     1      43.112   5.495  12.639  0.00  0.00    +0.000 C 
ATOM     27  O   UNL     1      42.638   4.612  13.346  0.00  0.00    +0.000 OA
ATOM     28  H   UNL     1      41.394   5.824  11.618  0.00  0.00    +0.000 HD
ATOM     29  H   UNL     1      42.735   6.693  10.964  0.00  0.00    +0.000 HD
ENDBRANCH  19  26
ENDBRANCH  17  22
ENDBRANCH   1  17
TORSDOF 5
ENDMDL
MODEL 8
REMARK VINA RESULT:    -6.436      3.247      5.465
REMARK INTER + INTRA:          -9.247
REMARK INTER:                  -8.573
REMARK INTRA:                  -0.674
REMARK UNBOUND:                -0.929
REMARK  Name = 
REMARK  5 active torsions:
REMARK  status: ('A' for Active; 'I' for Inactive)
REMARK    1  A    between atoms: C_2  and  C_4
REMARK    2  A    between atoms: C_7  and  N_8
REMARK    3  A    between atoms: N_8  and  C_9
REMARK    4  A    between atoms: C_9  and  C_10
REMARK    5  A    between atoms: C_15  and  N_16
REMARK                            x       y       z     vdW  Elec       q    Type
REMARK                         _______ _______ _______ _____ _____    ______ ____
ROOT
ATOM      1  C   UNL     1      48.026   7.798  13.299  0.00  0.00    +0.000 C 
ATOM      2  C   UNL     1      48.487   8.808  12.256  0.00  0.00    +0.000 C 
ATOM      3  C   UNL     1      48.800   7.366  12.060  0.00  0.00    +0.000 C 
ENDROOT
BRANCH   1   4
ATOM      4  C   UNL     1      48.796   7.650  14.609  0.00  0.00    +0.000 A 
ATOM      5  C   UNL     1      49.607   8.685  15.104  0.00  0.00    +0.000 A 
ATOM      6  C   UNL     1      50.193   8.597  16.366  0.00  0.00    +0.000 A 
ATOM      7  C   UNL     1      49.963   7.473  17.154  0.00  0.00    +0.000 A 
ATOM      8  F   UNL     1      50.529   7.434  18.372  0.00  0.00    +0.000 F 
ATOM      9  C   UNL     1      49.190   6.394  16.699  0.00  0.00    +0.000 A 
ATOM     10  C   UNL     1      48.654   6.502  15.407  0.00  0.00    +0.000 A 
BRANCH   9  11
ATOM     11  N   UNL     1      48.882   5.289  17.466  0.00  0.00    +0.000 N 
ATOM     12  C   UNL     1      49.858   4.233  17.738  0.00  0.00    +0.000 C 
ATOM     13  C   UNL     1      49.350   2.890  17.202  0.00  0.00    +0.000 C 
ATOM     14  O   UNL     1      48.038   2.586  17.712  0.00  0.00    +0.000 OA
ATOM     15  C   UNL     1      47.103   3.605  17.315  0.00  0.00    +0.000 C 
ATOM     16  C   UNL     1      47.500   4.989  17.857  0.00  0.00    +0.000 C 
ENDBRANCH   9  11
ENDBRANCH   1   4
BRANCH   1  17
ATOM     17  N   UNL     1      46.596   7.480  13.402  0.00  0.00    +0.000 N 
ATOM     18  H   UNL     1      46.072   7.881  14.174  0.00  0.00    +0.000 HD
BRANCH  17  22
ATOM     19  C   UNL     1      44.801   4.103  11.580  0.00  0.00    +0.000 A 
ATOM     20  C   UNL     1      45.502   3.950  12.777  0.00  0.00    +0.000 A 
ATOM     21  C   UNL     1      46.106   5.059  13.378  0.00  0.00    +0.000 A 
ATOM     22  C   UNL     1      45.993   6.342  12.830  0.00  0.00    +0.000 A 
ATOM     23  C   UNL     1      45.335   6.467  11.598  0.00  0.00    +0.000 A 
ATOM     24  C   UNL     1      44.743   5.361  10.975  0.00  0.00    +0.000 A 
BRANCH  19  26
ATOM     25  N   UNL     1      44.782   2.355   9.893  0.00  0.00    +0.000 N 
ATOM     26  C   UNL     1      44.124   2.958  10.929  0.00  0.00    +0.000 C 
ATOM     27  O   UNL     1      43.038   2.542  11.318  0.00  0.00    +0.000 OA
ATOM     28  H   UNL     1      44.366   1.501   9.543  0.00  0.00    +0.000 HD
ATOM     29  H   UNL     1      45.770   2.489   9.724  0.00  0.00    +0.000 HD
ENDBRANCH  19  26
ENDBRANCH  17  22
ENDBRANCH   1  17
TORSDOF 5
ENDMDL
