MODEL 1
REMARK VINA RESULT:    -7.619      0.000      0.000
REMARK INTER + INTRA:         -11.937
REMARK INTER:                 -10.737
REMARK INTRA:                  -1.200
REMARK UNBOUND:                -1.200
REMARK  Name = 
REMARK  8 active torsions:
REMARK  status: ('A' for Active; 'I' for Inactive)
REMARK    1  A    between atoms: C_1  and  C_2
REMARK    2  A    between atoms: C_2  and  N_3
REMARK    3  A    between atoms: N_3  and  C_4
REMARK    4  A    between atoms: C_4  and  C_5
REMARK    5  A    between atoms: C_8  and  C_9
REMARK    6  A    between atoms: C_9  and  N_10
REMARK    7  A    between atoms: C_11  and  C_13
REMARK    8  A    between atoms: C_20  and  C_22
REMARK                            x       y       z     vdW  Elec       q    Type
REMARK                         _______ _______ _______ _____ _____    ______ ____
ROOT
ATOM      1  C   UNL     1      47.464   6.089  12.766  0.00  0.00    +0.000 C 
ENDROOT
BRANCH   1   2
ATOM      2  C   UNL     1      47.495   5.651  14.204  0.00  0.00    +0.000 A 
ATOM      3  C   UNL     1      46.845   4.467  14.584  0.00  0.00    +0.000 A 
ATOM      4  C   UNL     1      47.105   3.880  15.819  0.00  0.00    +0.000 A 
ATOM      5  C   UNL     1      48.004   4.481  16.710  0.00  0.00    +0.000 A 
ATOM      6  C   UNL     1      48.596   5.703  16.361  0.00  0.00    +0.000 A 
ATOM      7  C   UNL     1      48.337   6.291  15.121  0.00  0.00    +0.000 A 
BRANCH   5   8
ATOM      8  C   UNL     1      48.373   3.801  17.999  0.00  0.00    +0.000 C 
BRANCH   8   9
ATOM      9  N   UNL     1      49.788   3.544  18.093  0.00  0.00    +0.000 N 
ATOM     10  C   UNL     1      50.359   2.521  17.365  0.00  0.00    +0.000 C 
ATOM     11  O   UNL     1      49.714   1.791  16.622  0.00  0.00    +0.000 OA
ATOM     12  H   UNL     1      50.392   4.090  18.699  0.00  0.00    +0.000 HD
BRANCH  10  13
ATOM     13  C   UNL     1      51.806   2.381  17.556  0.00  0.00    +0.000 A 
ATOM     14  C   UNL     1      52.460   1.160  17.502  0.00  0.00    +0.000 A 
ATOM     15  S   UNL     1      54.140   1.369  17.751  0.00  0.00    +0.000 S 
ATOM     16  C   UNL     1      53.885   3.056  17.915  0.00  0.00    +0.000 A 
ATOM     17  N   UNL     1      52.642   3.476  17.800  0.00  0.00    +0.000 NA
ENDBRANCH  10  13
ENDBRANCH   8   9
ENDBRANCH   5   8
ENDBRANCH   1   2
BRANCH   1  18
ATOM     18  N   UNL     1      46.565   7.133  12.298  0.00  0.00    +0.000 N 
ATOM     19  C   UNL     1      45.302   6.835  11.741  0.00  0.00    +0.000 C 
ATOM     20  O   UNL     1      44.559   7.730  11.344  0.00  0.00    +0.000 OA
BRANCH  19  21
ATOM     21  C   UNL     1      44.838   5.433  11.673  0.00  0.00    +0.000 A 
ATOM     22  C   UNL     1      44.104   4.777  12.650  0.00  0.00    +0.000 A 
ATOM     23  S   UNL     1      43.643   3.189  12.229  0.00  0.00    +0.000 S 
ATOM     24  C   UNL     1      44.263   3.381  10.662  0.00  0.00    +0.000 A 
ATOM     25  N   UNL     1      44.069   2.424   9.718  0.00  0.00    +0.000 NA
ATOM     26  C   UNL     1      44.524   2.742   8.553  0.00  0.00    +0.000 A 
ATOM     27  N   UNL     1      45.207   3.894   8.262  0.00  0.00    +0.000 N 
ATOM     28  C   UNL     1      45.558   4.818   9.224  0.00  0.00    +0.000 A 
ATOM     29  O   UNL     1      46.386   5.695   8.990  0.00  0.00    +0.000 OA
ATOM     30  C   UNL     1      44.927   4.586  10.509  0.00  0.00    +0.000 A 
ATOM     31  H   UNL     1      45.614   4.037   7.348  0.00  0.00    +0.000 HD
ENDBRANCH  19  21
BRANCH  18  33
ATOM     32  C   UNL     1      48.302   8.886  11.990  0.00  0.00    +0.000 C 
ATOM     33  C   UNL     1      46.902   8.547  12.483  0.00  0.00    +0.000 C 
ENDBRANCH  18  33
ENDBRANCH   1  18
TORSDOF 7
ENDMDL
MODEL 2
REMARK VINA RESULT:    -7.307      1.623      2.387
REMARK INTER + INTRA:         -11.498
REMARK INTER:                 -10.283
REMARK INTRA:                  -1.215
REMARK UNBOUND:                -1.200
REMARK  Name = 
REMARK  8 active torsions:
REMARK  status: ('A' for Active; 'I' for Inactive)
REMARK    1  A    between atoms: C_1  and  C_2
REMARK    2  A    between atoms: C_2  and  N_3
REMARK    3  A    between atoms: N_3  and  C_4
REMARK    4  A    between atoms: C_4  and  C_5
REMARK    5  A    between atoms: C_8  and  C_9
REMARK    6  A    between atoms: C_9  and  N_10
REMARK    7  A    between atoms: C_11  and  C_13
REMARK    8  A    between atoms: C_20  and  C_22
REMARK                            x       y       z     vdW  Elec       q    Type
REMARK                         _______ _______ _______ _____ _____    ______ ____
ROOT
ATOM      1  C   UNL     1      47.188   6.793  12.075  0.00  0.00    +0.000 C 
ENDROOT
BRANCH   1   2
ATOM      2  C   UNL     1      47.527   5.911  13.244  0.00  0.00    +0.000 A 
ATOM      3  C   UNL     1      48.292   6.423  14.304  0.00  0.00    +0.000 A 
ATOM      4  C   UNL     1      48.365   5.747  15.518  0.00  0.00    +0.000 A 
ATOM      5  C   UNL     1      47.694   4.530  15.688  0.00  0.00    +0.000 A 
ATOM      6  C   UNL     1      46.992   3.981  14.606  0.00  0.00    +0.000 A 
ATOM      7  C   UNL     1      46.916   4.660  13.388  0.00  0.00    +0.000 A 
BRANCH   5   8
ATOM      8  C   UNL     1      47.678   3.846  17.027  0.00  0.00    +0.000 C 
BRANCH   8   9
ATOM      9  N   UNL     1      49.001   3.468  17.460  0.00  0.00    +0.000 N 
ATOM     10  C   UNL     1      49.656   2.416  16.856  0.00  0.00    +0.000 C 
ATOM     11  O   UNL     1      49.165   1.759  15.946  0.00  0.00    +0.000 OA
ATOM     12  H   UNL     1      49.472   3.948  18.220  0.00  0.00    +0.000 HD
BRANCH  10  13
ATOM     13  C   UNL     1      50.993   2.149  17.395  0.00  0.00    +0.000 A 
ATOM     14  C   UNL     1      51.799   3.137  17.939  0.00  0.00    +0.000 A 
ATOM     15  S   UNL     1      53.277   2.470  18.485  0.00  0.00    +0.000 S 
ATOM     16  C   UNL     1      52.751   0.925  17.961  0.00  0.00    +0.000 A 
ATOM     17  N   UNL     1      51.557   0.869  17.408  0.00  0.00    +0.000 NA
ENDBRANCH  10  13
ENDBRANCH   8   9
ENDBRANCH   5   8
ENDBRANCH   1   2
BRANCH   1  18
ATOM     18  N   UNL     1      46.020   7.661  12.078  0.00  0.00    +0.000 N 
ATOM     19  C   UNL     1      44.826   7.307  11.414  0.00  0.00    +0.000 C 
ATOM     20  O   UNL     1      43.852   8.056  11.421  0.00  0.00    +0.000 OA
BRANCH  19  21
ATOM     21  C   UNL     1      44.720   5.997  10.736  0.00  0.00    +0.000 A 
ATOM     22  C   UNL     1      45.300   5.670   9.519  0.00  0.00    +0.000 A 
ATOM     23  S   UNL     1      45.068   4.045   9.050  0.00  0.00    +0.000 S 
ATOM     24  C   UNL     1      44.331   3.680  10.533  0.00  0.00    +0.000 A 
ATOM     25  N   UNL     1      44.008   2.399  10.849  0.00  0.00    +0.000 NA
ATOM     26  C   UNL     1      43.530   2.261  12.040  0.00  0.00    +0.000 A 
ATOM     27  N   UNL     1      43.287   3.288  12.914  0.00  0.00    +0.000 N 
ATOM     28  C   UNL     1      43.456   4.614  12.575  0.00  0.00    +0.000 A 
ATOM     29  O   UNL     1      42.987   5.512  13.270  0.00  0.00    +0.000 OA
ATOM     30  C   UNL     1      44.146   4.808  11.314  0.00  0.00    +0.000 A 
ATOM     31  H   UNL     1      42.827   3.117  13.798  0.00  0.00    +0.000 HD
ENDBRANCH  19  21
BRANCH  18  33
ATOM     32  C   UNL     1      46.683  10.057  12.138  0.00  0.00    +0.000 C 
ATOM     33  C   UNL     1      46.012   8.899  12.863  0.00  0.00    +0.000 C 
ENDBRANCH  18  33
ENDBRANCH   1  18
TORSDOF 7
ENDMDL
MODEL 3
REMARK VINA RESULT:    -7.264      2.876      8.317
REMARK INTER + INTRA:         -11.436
REMARK INTER:                 -10.158
REMARK INTRA:                  -1.278
REMARK UNBOUND:                -1.200
REMARK  Name = 
REMARK  8 active torsions:
REMARK  status: ('A' for Active; 'I' for Inactive)
REMARK    1  A    between atoms: C_1  and  C_2
REMARK    2  A    between atoms: C_2  and  N_3
REMARK    3  A    between atoms: N_3  and  C_4
REMARK    4  A    between atoms: C_4  and  C_5
REMARK    5  A    between atoms: C_8  and  C_9
REMARK    6  A    between atoms: C_9  and  N_10
REMARK    7  A    between atoms: C_11  and  C_13
REMARK    8  A    between atoms: C_20  and  C_22
REMARK                            x       y       z     vdW  Elec       q    Type
REMARK                         _______ _______ _______ _____ _____    ______ ____
ROOT
ATOM      1  C   UNL     1      48.715   6.564  14.732  0.00  0.00    +0.000 C 
ENDROOT
BRANCH   1   2
ATOM      2  C   UNL     1      47.509   6.348  13.860  0.00  0.00    +0.000 A 
ATOM      3  C   UNL     1      47.135   7.334  12.934  0.00  0.00    +0.000 A 
ATOM      4  C   UNL     1      46.229   7.046  11.918  0.00  0.00    +0.000 A 
ATOM      5  C   UNL     1      45.659   5.770  11.823  0.00  0.00    +0.000 A 
ATOM      6  C   UNL     1      45.975   4.808  12.792  0.00  0.00    +0.000 A 
ATOM      7  C   UNL     1      46.887   5.096  13.811  0.00  0.00    +0.000 A 
BRANCH   5   8
ATOM      8  C   UNL     1      44.763   5.417  10.669  0.00  0.00    +0.000 C 
BRANCH   8   9
ATOM      9  N   UNL     1      45.444   4.627   9.673  0.00  0.00    +0.000 N 
ATOM     10  C   UNL     1      45.047   3.330   9.424  0.00  0.00    +0.000 C 
ATOM     11  O   UNL     1      44.124   2.789  10.019  0.00  0.00    +0.000 OA
ATOM     12  H   UNL     1      46.232   4.993   9.147  0.00  0.00    +0.000 HD
BRANCH  10  13
ATOM     13  C   UNL     1      45.827   2.651   8.384  0.00  0.00    +0.000 A 
ATOM     14  C   UNL     1      46.347   3.308   7.279  0.00  0.00    +0.000 A 
ATOM     15  S   UNL     1      47.212   2.216   6.286  0.00  0.00    +0.000 S 
ATOM     16  C   UNL     1      46.836   0.952   7.381  0.00  0.00    +0.000 A 
ATOM     17  N   UNL     1      46.112   1.283   8.432  0.00  0.00    +0.000 NA
ENDBRANCH  10  13
ENDBRANCH   8   9
ENDBRANCH   5   8
ENDBRANCH   1   2
BRANCH   1  18
ATOM     18  N   UNL     1      48.663   7.391  15.928  0.00  0.00    +0.000 N 
ATOM     19  C   UNL     1      48.502   6.833  17.214  0.00  0.00    +0.000 C 
ATOM     20  O   UNL     1      48.453   7.549  18.213  0.00  0.00    +0.000 OA
BRANCH  19  21
ATOM     21  C   UNL     1      48.435   5.365  17.378  0.00  0.00    +0.000 A 
ATOM     22  C   UNL     1      47.288   4.592  17.265  0.00  0.00    +0.000 A 
ATOM     23  S   UNL     1      47.561   2.914  17.418  0.00  0.00    +0.000 S 
ATOM     24  C   UNL     1      49.239   3.150  17.473  0.00  0.00    +0.000 A 
ATOM     25  N   UNL     1      50.088   2.090  17.460  0.00  0.00    +0.000 NA
ATOM     26  C   UNL     1      51.335   2.422  17.423  0.00  0.00    +0.000 A 
ATOM     27  N   UNL     1      51.808   3.707  17.462  0.00  0.00    +0.000 N 
ATOM     28  C   UNL     1      50.987   4.802  17.630  0.00  0.00    +0.000 A 
ATOM     29  O   UNL     1      51.447   5.902  17.925  0.00  0.00    +0.000 OA
ATOM     30  C   UNL     1      49.575   4.492  17.508  0.00  0.00    +0.000 A 
ATOM     31  H   UNL     1      52.801   3.891  17.520  0.00  0.00    +0.000 HD
ENDBRANCH  19  21
BRANCH  18  33
ATOM     32  C   UNL     1      50.341   9.201  15.621  0.00  0.00    +0.000 C 
ATOM     33  C   UNL     1      48.880   8.838  15.844  0.00  0.00    +0.000 C 
ENDBRANCH  18  33
ENDBRANCH   1  18
TORSDOF 7
ENDMDL
MODEL 4
REMARK VINA RESULT:    -6.954      3.686      8.242
REMARK INTER + INTRA:         -11.000
REMARK INTER:                  -9.725
REMARK INTRA:                  -1.274
REMARK UNBOUND:                -1.200
REMARK  Name = 
REMARK  8 active torsions:
REMARK  status: ('A' for Active; 'I' for Inactive)
REMARK    1  A    between atoms: C_1  and  C_2
REMARK    2  A    between atoms: C_2  and  N_3
REMARK    3  A    between atoms: N_3  and  C_4
REMARK    4  A    between atoms: C_4  and  C_5
REMARK    5  A    between atoms: C_8  and  C_9
REMARK    6  A    between atoms: C_9  and  N_10
REMARK    7  A    between atoms: C_11  and  C_13
REMARK    8  A    between atoms: C_20  and  C_22
REMARK                            x       y       z     vdW  Elec       q    Type
REMARK                         _______ _______ _______ _____ _____    ______ ____
ROOT
ATOM      1  C   UNL     1      47.071   8.884  14.043  0.00  0.00    +0.000 C 
ENDROOT
BRANCH   1   2
ATOM      2  C   UNL     1      46.538   7.955  12.988  0.00  0.00    +0.000 A 
ATOM      3  C   UNL     1      46.934   6.608  12.982  0.00  0.00    +0.000 A 
ATOM      4  C   UNL     1      46.240   5.668  12.227  0.00  0.00    +0.000 A 
ATOM      5  C   UNL     1      45.150   6.061  11.441  0.00  0.00    +0.000 A 
ATOM      6  C   UNL     1      44.801   7.418  11.388  0.00  0.00    +0.000 A 
ATOM      7  C   UNL     1      45.495   8.362  12.148  0.00  0.00    +0.000 A 
BRANCH   5   8
ATOM      8  C   UNL     1      44.328   5.038  10.706  0.00  0.00    +0.000 C 
BRANCH   8   9
ATOM      9  N   UNL     1      45.110   4.303   9.743  0.00  0.00    +0.000 N 
ATOM     10  C   UNL     1      44.827   2.979   9.483  0.00  0.00    +0.000 C 
ATOM     11  O   UNL     1      43.924   2.368  10.042  0.00  0.00    +0.000 OA
ATOM     12  H   UNL     1      45.888   4.729   9.249  0.00  0.00    +0.000 HD
BRANCH  10  13
ATOM     13  C   UNL     1      45.700   2.362   8.478  0.00  0.00    +0.000 A 
ATOM     14  C   UNL     1      46.314   3.082   7.467  0.00  0.00    +0.000 A 
ATOM     15  S   UNL     1      47.269   2.051   6.492  0.00  0.00    +0.000 S 
ATOM     16  C   UNL     1      46.802   0.725   7.472  0.00  0.00    +0.000 A 
ATOM     17  N   UNL     1      45.985   0.993   8.471  0.00  0.00    +0.000 NA
ENDBRANCH  10  13
ENDBRANCH   8   9
ENDBRANCH   5   8
ENDBRANCH   1   2
BRANCH   1  18
ATOM     18  N   UNL     1      48.376   9.516  13.925  0.00  0.00    +0.000 N 
ATOM     19  C   UNL     1      49.213   9.713  15.044  0.00  0.00    +0.000 C 
ATOM     20  O   UNL     1      50.310  10.256  14.927  0.00  0.00    +0.000 OA
BRANCH  19  21
ATOM     21  C   UNL     1      48.794   9.223  16.374  0.00  0.00    +0.000 A 
ATOM     22  C   UNL     1      48.206   9.991  17.370  0.00  0.00    +0.000 A 
ATOM     23  S   UNL     1      47.753   9.108  18.758  0.00  0.00    +0.000 S 
ATOM     24  C   UNL     1      48.171   7.643  18.012  0.00  0.00    +0.000 A 
ATOM     25  N   UNL     1      47.897   6.457  18.614  0.00  0.00    +0.000 NA
ATOM     26  C   UNL     1      48.197   5.427  17.895  0.00  0.00    +0.000 A 
ATOM     27  N   UNL     1      48.799   5.474  16.665  0.00  0.00    +0.000 N 
ATOM     28  C   UNL     1      49.232   6.650  16.089  0.00  0.00    +0.000 A 
ATOM     29  O   UNL     1      49.995   6.643  15.126  0.00  0.00    +0.000 OA
ATOM     30  C   UNL     1      48.769   7.839  16.779  0.00  0.00    +0.000 A 
ATOM     31  H   UNL     1      49.087   4.625  16.197  0.00  0.00    +0.000 HD
ENDBRANCH  19  21
BRANCH  18  33
ATOM     32  C   UNL     1      49.765   8.780  11.998  0.00  0.00    +0.000 C 
ATOM     33  C   UNL     1      48.912   9.882  12.611  0.00  0.00    +0.000 C 
ENDBRANCH  18  33
ENDBRANCH   1  18
TORSDOF 7
ENDMDL
MODEL 5
REMARK VINA RESULT:    -6.473      3.157      3.891
REMARK INTER + INTRA:         -10.321
REMARK INTER:                  -9.043
REMARK INTRA:                  -1.279
REMARK UNBOUND:                -1.200
REMARK  Name = 
REMARK  8 active torsions:
REMARK  status: ('A' for Active; 'I' for Inactive)
REMARK    1  A    between atoms: C_1  and  C_2
REMARK    2  A    between atoms: C_2  and  N_3
REMARK    3  A    between atoms: N_3  and  C_4
REMARK    4  A    between atoms: C_4  and  C_5
REMARK    5  A    between atoms: C_8  and  C_9
REMARK    6  A    between atoms: C_9  and  N_10
REMARK    7  A    between atoms: C_11  and  C_13
REMARK    8  A    between atoms: C_20  and  C_22
REMARK                            x       y       z     vdW  Elec       q    Type
REMARK                         _______ _______ _______ _____ _____    ______ ____
ROOT
ATOM      1  C   UNL     1      47.039   6.134  12.276  0.00  0.00    +0.000 C 
ENDROOT
BRANCH   1   2
ATOM      2  C   UNL     1      47.497   5.678  13.634  0.00  0.00    +0.000 A 
ATOM      3  C   UNL     1      48.340   6.502  14.397  0.00  0.00    +0.000 A 
ATOM      4  C   UNL     1      48.532   6.258  15.753  0.00  0.00    +0.000 A 
ATOM      5  C   UNL     1      47.904   5.169  16.370  0.00  0.00    +0.000 A 
ATOM      6  C   UNL     1      47.122   4.303  15.592  0.00  0.00    +0.000 A 
ATOM      7  C   UNL     1      46.927   4.548  14.231  0.00  0.00    +0.000 A 
BRANCH   5   8
ATOM      8  C   UNL     1      48.018   4.960  17.854  0.00  0.00    +0.000 C 
BRANCH   8   9
ATOM      9  N   UNL     1      47.930   6.198  18.587  0.00  0.00    +0.000 N 
ATOM     10  C   UNL     1      49.040   6.709  19.225  0.00  0.00    +0.000 C 
ATOM     11  O   UNL     1      50.132   6.154  19.211  0.00  0.00    +0.000 OA
ATOM     12  H   UNL     1      47.058   6.713  18.664  0.00  0.00    +0.000 HD
BRANCH  10  13
ATOM     13  C   UNL     1      48.803   7.976  19.925  0.00  0.00    +0.000 A 
ATOM     14  C   UNL     1      47.538   8.417  20.282  0.00  0.00    +0.000 A 
ATOM     15  S   UNL     1      47.635   9.919  21.096  0.00  0.00    +0.000 S 
ATOM     16  C   UNL     1      49.339   9.883  20.917  0.00  0.00    +0.000 A 
ATOM     17  N   UNL     1      49.842   8.837  20.294  0.00  0.00    +0.000 NA
ENDBRANCH  10  13
ENDBRANCH   8   9
ENDBRANCH   5   8
ENDBRANCH   1   2
BRANCH   1  18
ATOM     18  N   UNL     1      45.895   7.016  12.105  0.00  0.00    +0.000 N 
ATOM     19  C   UNL     1      44.631   6.529  11.709  0.00  0.00    +0.000 C 
ATOM     20  O   UNL     1      43.677   7.290  11.561  0.00  0.00    +0.000 OA
BRANCH  19  21
ATOM     21  C   UNL     1      44.429   5.078  11.510  0.00  0.00    +0.000 A 
ATOM     22  C   UNL     1      43.723   4.237  12.360  0.00  0.00    +0.000 A 
ATOM     23  S   UNL     1      43.593   2.630  11.801  0.00  0.00    +0.000 S 
ATOM     24  C   UNL     1      44.327   3.039  10.329  0.00  0.00    +0.000 A 
ATOM     25  N   UNL     1      44.402   2.135   9.317  0.00  0.00    +0.000 NA
ATOM     26  C   UNL     1      44.912   2.611   8.231  0.00  0.00    +0.000 A 
ATOM     27  N   UNL     1      45.409   3.879   8.084  0.00  0.00    +0.000 N 
ATOM     28  C   UNL     1      45.493   4.775   9.129  0.00  0.00    +0.000 A 
ATOM     29  O   UNL     1      46.174   5.793   9.040  0.00  0.00    +0.000 OA
ATOM     30  C   UNL     1      44.782   4.346  10.319  0.00  0.00    +0.000 A 
ATOM     31  H   UNL     1      45.876   4.156   7.231  0.00  0.00    +0.000 HD
ENDBRANCH  19  21
BRANCH  18  33
ATOM     32  C   UNL     1      47.340   9.039  12.058  0.00  0.00    +0.000 C 
ATOM     33  C   UNL     1      45.994   8.439  12.438  0.00  0.00    +0.000 C 
ENDBRANCH  18  33
ENDBRANCH   1  18
TORSDOF 7
ENDMDL
MODEL 6
REMARK VINA RESULT:    -6.432      3.291      8.750
REMARK INTER + INTRA:         -10.264
REMARK INTER:                  -8.832
REMARK INTRA:                  -1.433
REMARK UNBOUND:                -1.200
REMARK  Name = 
REMARK  8 active torsions:
REMARK  status: ('A' for Active; 'I' for Inactive)
REMARK    1  A    between atoms: C_1  and  C_2
REMARK    2  A    between atoms: C_2  and  N_3
REMARK    3  A    between atoms: N_3  and  C_4
REMARK    4  A    between atoms: C_4  and  C_5
REMARK    5  A    between atoms: C_8  and  C_9
REMARK    6  A    between atoms: C_9  and  N_10
REMARK    7  A    between atoms: C_11  and  C_13
REMARK    8  A    between atoms: C_20  and  C_22
REMARK                            x       y       z     vdW  Elec       q    Type
REMARK                         _______ _______ _______ _____ _____    ______ ____
ROOT
ATOM      1  C   UNL     1      48.836   8.468  15.265  0.00  0.00    +0.000 C 
ENDROOT
BRANCH   1   2
ATOM      2  C   UNL     1      47.986   8.149  14.066  0.00  0.00    +0.000 A 
ATOM      3  C   UNL     1      47.996   6.850  13.533  0.00  0.00    +0.000 A 
ATOM      4  C   UNL     1      47.014   6.444  12.636  0.00  0.00    +0.000 A 
ATOM      5  C   UNL     1      46.014   7.339  12.233  0.00  0.00    +0.000 A 
ATOM      6  C   UNL     1      46.048   8.658  12.708  0.00  0.00    +0.000 A 
ATOM      7  C   UNL     1      47.033   9.065  13.610  0.00  0.00    +0.000 A 
BRANCH   5   8
ATOM      8  C   UNL     1      44.888   6.880  11.349  0.00  0.00    +0.000 C 
BRANCH   8   9
ATOM      9  N   UNL     1      45.313   5.878  10.403  0.00  0.00    +0.000 N 
ATOM     10  C   UNL     1      44.581   4.721  10.240  0.00  0.00    +0.000 C 
ATOM     11  O   UNL     1      43.559   4.483  10.873  0.00  0.00    +0.000 OA
ATOM     12  H   UNL     1      46.158   5.988   9.851  0.00  0.00    +0.000 HD
BRANCH  10  13
ATOM     13  C   UNL     1      45.129   3.797   9.242  0.00  0.00    +0.000 A 
ATOM     14  C   UNL     1      45.216   2.429   9.446  0.00  0.00    +0.000 A 
ATOM     15  S   UNL     1      45.887   1.660   8.073  0.00  0.00    +0.000 S 
ATOM     16  C   UNL     1      46.018   3.187   7.306  0.00  0.00    +0.000 A 
ATOM     17  N   UNL     1      45.601   4.228   7.998  0.00  0.00    +0.000 NA
ENDBRANCH  10  13
ENDBRANCH   8   9
ENDBRANCH   5   8
ENDBRANCH   1   2
BRANCH   1  18
ATOM     18  N   UNL     1      50.151   7.876  15.458  0.00  0.00    +0.000 N 
ATOM     19  C   UNL     1      50.366   6.817  16.366  0.00  0.00    +0.000 C 
ATOM     20  O   UNL     1      51.486   6.334  16.521  0.00  0.00    +0.000 OA
BRANCH  19  21
ATOM     21  C   UNL     1      49.227   6.244  17.114  0.00  0.00    +0.000 A 
ATOM     22  C   UNL     1      48.546   5.081  16.781  0.00  0.00    +0.000 A 
ATOM     23  S   UNL     1      47.336   4.636  17.899  0.00  0.00    +0.000 S 
ATOM     24  C   UNL     1      47.791   5.885  18.951  0.00  0.00    +0.000 A 
ATOM     25  N   UNL     1      47.237   5.987  20.187  0.00  0.00    +0.000 NA
ATOM     26  C   UNL     1      47.738   6.935  20.906  0.00  0.00    +0.000 A 
ATOM     27  N   UNL     1      48.691   7.824  20.483  0.00  0.00    +0.000 N 
ATOM     28  C   UNL     1      49.166   7.851  19.189  0.00  0.00    +0.000 A 
ATOM     29  O   UNL     1      49.811   8.809  18.769  0.00  0.00    +0.000 OA
ATOM     30  C   UNL     1      48.759   6.706  18.397  0.00  0.00    +0.000 A 
ATOM     31  H   UNL     1      48.973   8.597  21.070  0.00  0.00    +0.000 HD
ENDBRANCH  19  21
BRANCH  18  33
ATOM     32  C   UNL     1      51.532   9.797  14.692  0.00  0.00    +0.000 C 
ATOM     33  C   UNL     1      51.287   8.296  14.633  0.00  0.00    +0.000 C 
ENDBRANCH  18  33
ENDBRANCH   1  18
TORSDOF 7
ENDMDL
MODEL 7
REMARK VINA RESULT:    -6.362      2.070      2.747
REMARK INTER + INTRA:         -10.166
REMARK INTER:                  -8.992
REMARK INTRA:                  -1.174
REMARK UNBOUND:                -1.200
REMARK  Name = 
REMARK  8 active torsions:
REMARK  status: ('A' for Active; 'I' for Inactive)
REMARK    1  A    between atoms: C_1  and  C_2
REMARK    2  A    between atoms: C_2  and  N_3
REMARK    3  A    between atoms: N_3  and  C_4
REMARK    4  A    between atoms: C_4  and  C_5
REMARK    5  A    between atoms: C_8  and  C_9
REMARK    6  A    between atoms: C_9  and  N_10
REMARK    7  A    between atoms: C_11  and  C_13
REMARK    8  A    between atoms: C_20  and  C_22
REMARK                            x       y       z     vdW  Elec       q    Type
REMARK                         _______ _______ _______ _____ _____    ______ ____
ROOT
ATOM      1  C   UNL     1      47.294   6.207  12.571  0.00  0.00    +0.000 C 
ENDROOT
BRANCH   1   2
ATOM      2  C   UNL     1      47.691   5.691  13.926  0.00  0.00    +0.000 A 
ATOM      3  C   UNL     1      48.551   6.450  14.735  0.00  0.00    +0.000 A 
ATOM      4  C   UNL     1      48.694   6.159  16.088  0.00  0.00    +0.000 A 
ATOM      5  C   UNL     1      47.996   5.084  16.655  0.00  0.00    +0.000 A 
ATOM      6  C   UNL     1      47.195   4.281  15.831  0.00  0.00    +0.000 A 
ATOM      7  C   UNL     1      47.050   4.574  14.474  0.00  0.00    +0.000 A 
BRANCH   5   8
ATOM      8  C   UNL     1      48.059   4.827  18.135  0.00  0.00    +0.000 C 
BRANCH   8   9
ATOM      9  N   UNL     1      49.374   4.416  18.560  0.00  0.00    +0.000 N 
ATOM     10  C   UNL     1      50.120   5.222  19.392  0.00  0.00    +0.000 C 
ATOM     11  O   UNL     1      49.723   6.306  19.803  0.00  0.00    +0.000 OA
ATOM     12  H   UNL     1      49.787   3.541  18.250  0.00  0.00    +0.000 HD
BRANCH  10  13
ATOM     13  C   UNL     1      51.434   4.673  19.745  0.00  0.00    +0.000 A 
ATOM     14  C   UNL     1      52.170   3.867  18.891  0.00  0.00    +0.000 A 
ATOM     15  S   UNL     1      53.654   3.424  19.617  0.00  0.00    +0.000 S 
ATOM     16  C   UNL     1      53.220   4.324  21.009  0.00  0.00    +0.000 A 
ATOM     17  N   UNL     1      52.050   4.930  20.974  0.00  0.00    +0.000 NA
ENDBRANCH  10  13
ENDBRANCH   8   9
ENDBRANCH   5   8
ENDBRANCH   1   2
BRANCH   1  18
ATOM     18  N   UNL     1      46.375   7.323  12.410  0.00  0.00    +0.000 N 
ATOM     19  C   UNL     1      45.271   7.260  11.533  0.00  0.00    +0.000 C 
ATOM     20  O   UNL     1      44.509   8.217  11.404  0.00  0.00    +0.000 OA
BRANCH  19  21
ATOM     21  C   UNL     1      44.993   6.015  10.786  0.00  0.00    +0.000 A 
ATOM     22  C   UNL     1      45.485   5.701   9.527  0.00  0.00    +0.000 A 
ATOM     23  S   UNL     1      45.054   4.144   8.978  0.00  0.00    +0.000 S 
ATOM     24  C   UNL     1      44.338   3.771  10.469  0.00  0.00    +0.000 A 
ATOM     25  N   UNL     1      43.886   2.516  10.726  0.00  0.00    +0.000 NA
ATOM     26  C   UNL     1      43.441   2.359  11.927  0.00  0.00    +0.000 A 
ATOM     27  N   UNL     1      43.349   3.350  12.868  0.00  0.00    +0.000 N 
ATOM     28  C   UNL     1      43.653   4.668  12.598  0.00  0.00    +0.000 A 
ATOM     29  O   UNL     1      43.315   5.568  13.364  0.00  0.00    +0.000 OA
ATOM     30  C   UNL     1      44.312   4.862  11.321  0.00  0.00    +0.000 A 
ATOM     31  H   UNL     1      42.907   3.177  13.761  0.00  0.00    +0.000 HD
ENDBRANCH  19  21
BRANCH  18  33
ATOM     32  C   UNL     1      47.535   9.506  12.688  0.00  0.00    +0.000 C 
ATOM     33  C   UNL     1      46.509   8.525  13.238  0.00  0.00    +0.000 C 
ENDBRANCH  18  33
ENDBRANCH   1  18
TORSDOF 7
ENDMDL
MODEL 8
REMARK VINA RESULT:    -5.705      3.693      9.201
REMARK INTER + INTRA:          -9.240
REMARK INTER:                  -7.188
REMARK INTRA:                  -2.053
REMARK UNBOUND:                -1.200
REMARK  Name = 
REMARK  8 active torsions:
REMARK  status: ('A' for Active; 'I' for Inactive)
REMARK    1  A    between atoms: C_1  and  C_2
REMARK    2  A    between atoms: C_2  and  N_3
REMARK    3  A    between atoms: N_3  and  C_4
REMARK    4  A    between atoms: C_4  and  C_5
REMARK    5  A    between atoms: C_8  and  C_9
REMARK    6  A    between atoms: C_9  and  N_10
REMARK    7  A    between atoms: C_11  and  C_13
REMARK    8  A    between atoms: C_20  and  C_22
REMARK                            x       y       z     vdW  Elec       q    Type
REMARK                         _______ _______ _______ _____ _____    ______ ____
ROOT
ATOM      1  C   UNL     1      52.746   6.342  17.551  0.00  0.00    +0.000 C 
ENDROOT
BRANCH   1   2
ATOM      2  C   UNL     1      51.459   5.689  17.127  0.00  0.00    +0.000 A 
ATOM      3  C   UNL     1      51.199   4.361  17.498  0.00  0.00    +0.000 A 
ATOM      4  C   UNL     1      49.916   3.833  17.390  0.00  0.00    +0.000 A 
ATOM      5  C   UNL     1      48.871   4.617  16.885  0.00  0.00    +0.000 A 
ATOM      6  C   UNL     1      49.147   5.919  16.445  0.00  0.00    +0.000 A 
ATOM      7  C   UNL     1      50.434   6.450  16.555  0.00  0.00    +0.000 A 
BRANCH   5   8
ATOM      8  C   UNL     1      47.462   4.093  16.865  0.00  0.00    +0.000 C 
BRANCH   8   9
ATOM      9  N   UNL     1      46.721   4.568  15.723  0.00  0.00    +0.000 N 
ATOM     10  C   UNL     1      46.811   3.912  14.514  0.00  0.00    +0.000 C 
ATOM     11  O   UNL     1      47.509   2.919  14.344  0.00  0.00    +0.000 OA
ATOM     12  H   UNL     1      46.134   5.395  15.772  0.00  0.00    +0.000 HD
BRANCH  10  13
ATOM     13  C   UNL     1      46.001   4.504  13.445  0.00  0.00    +0.000 A 
ATOM     14  C   UNL     1      45.316   3.747  12.508  0.00  0.00    +0.000 A 
ATOM     15  S   UNL     1      44.464   4.761  11.425  0.00  0.00    +0.000 S 
ATOM     16  C   UNL     1      45.062   6.129  12.267  0.00  0.00    +0.000 A 
ATOM     17  N   UNL     1      45.851   5.887  13.294  0.00  0.00    +0.000 NA
ENDBRANCH  10  13
ENDBRANCH   8   9
ENDBRANCH   5   8
ENDBRANCH   1   2
BRANCH   1  18
ATOM     18  N   UNL     1      53.325   6.121  18.868  0.00  0.00    +0.000 N 
ATOM     19  C   UNL     1      52.752   6.668  20.036  0.00  0.00    +0.000 C 
ATOM     20  O   UNL     1      53.260   6.477  21.139  0.00  0.00    +0.000 OA
BRANCH  19  21
ATOM     21  C   UNL     1      51.499   7.447  19.948  0.00  0.00    +0.000 A 
ATOM     22  C   UNL     1      51.391   8.755  19.498  0.00  0.00    +0.000 A 
ATOM     23  S   UNL     1      49.789   9.340  19.430  0.00  0.00    +0.000 S 
ATOM     24  C   UNL     1      49.171   7.814  19.838  0.00  0.00    +0.000 A 
ATOM     25  N   UNL     1      47.833   7.580  19.816  0.00  0.00    +0.000 NA
ATOM     26  C   UNL     1      47.515   6.354  20.069  0.00  0.00    +0.000 A 
ATOM     27  N   UNL     1      48.401   5.364  20.401  0.00  0.00    +0.000 N 
ATOM     28  C   UNL     1      49.748   5.596  20.584  0.00  0.00    +0.000 A 
ATOM     29  O   UNL     1      50.468   4.764  21.132  0.00  0.00    +0.000 OA
ATOM     30  C   UNL     1      50.175   6.913  20.150  0.00  0.00    +0.000 A 
ATOM     31  H   UNL     1      48.074   4.447  20.674  0.00  0.00    +0.000 HD
ENDBRANCH  19  21
BRANCH  18  33
ATOM     32  C   UNL     1      54.963   4.644  17.718  0.00  0.00    +0.000 C 
ATOM     33  C   UNL     1      54.477   5.231  19.036  0.00  0.00    +0.000 C 
ENDBRANCH  18  33
ENDBRANCH   1  18
TORSDOF 7
ENDMDL
MODEL 9
REMARK VINA RESULT:    -5.342      3.561      9.302
REMARK INTER + INTRA:          -8.728
REMARK INTER:                  -7.522
REMARK INTRA:                  -1.206
REMARK UNBOUND:                -1.200
REMARK  Name = 
REMARK  8 active torsions:
REMARK  status: ('A' for Active; 'I' for Inactive)
REMARK    1  A    between atoms: C_1  and  C_2
REMARK    2  A    between atoms: C_2  and  N_3
REMARK    3  A    between atoms: N_3  and  C_4
REMARK    4  A    between atoms: C_4  and  C_5
REMARK    5  A    between atoms: C_8  and  C_9
REMARK    6  A    between atoms: C_9  and  N_10
REMARK    7  A    between atoms: C_11  and  C_13
REMARK    8  A    between atoms: C_20  and  C_22
REMARK                            x       y       z     vdW  Elec       q    Type
REMARK                         _______ _______ _______ _____ _____    ______ ____
ROOT
ATOM      1  C   UNL     1      51.277   6.064  17.255  0.00  0.00    +0.000 C 
ENDROOT
BRANCH   1   2
ATOM      2  C   UNL     1      50.378   6.651  16.202  0.00  0.00    +0.000 A 
ATOM      3  C   UNL     1      50.920   7.489  15.215  0.00  0.00    +0.000 A 
ATOM      4  C   UNL     1      50.192   7.798  14.070  0.00  0.00    +0.000 A 
ATOM      5  C   UNL     1      48.897   7.293  13.900  0.00  0.00    +0.000 A 
ATOM      6  C   UNL     1      48.329   6.516  14.920  0.00  0.00    +0.000 A 
ATOM      7  C   UNL     1      49.059   6.205  16.069  0.00  0.00    +0.000 A 
BRANCH   5   8
ATOM      8  C   UNL     1      48.145   7.531  12.620  0.00  0.00    +0.000 C 
BRANCH   8   9
ATOM      9  N   UNL     1      47.060   6.597  12.445  0.00  0.00    +0.000 N 
ATOM     10  C   UNL     1      45.754   7.035  12.481  0.00  0.00    +0.000 C 
ATOM     11  O   UNL     1      45.447   8.207  12.664  0.00  0.00    +0.000 OA
ATOM     12  H   UNL     1      47.226   5.605  12.307  0.00  0.00    +0.000 HD
BRANCH  10  13
ATOM     13  C   UNL     1      44.758   5.976  12.283  0.00  0.00    +0.000 A 
ATOM     14  C   UNL     1      44.686   5.213  11.129  0.00  0.00    +0.000 A 
ATOM     15  S   UNL     1      43.423   4.065  11.247  0.00  0.00    +0.000 S 
ATOM     16  C   UNL     1      43.057   4.659  12.812  0.00  0.00    +0.000 A 
ATOM     17  N   UNL     1      43.805   5.650  13.253  0.00  0.00    +0.000 NA
ENDBRANCH  10  13
ENDBRANCH   8   9
ENDBRANCH   5   8
ENDBRANCH   1   2
BRANCH   1  18
ATOM     18  N   UNL     1      50.813   5.044  18.183  0.00  0.00    +0.000 N 
ATOM     19  C   UNL     1      50.306   5.371  19.459  0.00  0.00    +0.000 C 
ATOM     20  O   UNL     1      49.926   4.495  20.233  0.00  0.00    +0.000 OA
BRANCH  19  21
ATOM     21  C   UNL     1      50.185   6.788  19.862  0.00  0.00    +0.000 A 
ATOM     22  C   UNL     1      51.213   7.578  20.359  0.00  0.00    +0.000 A 
ATOM     23  S   UNL     1      50.771   9.201  20.644  0.00  0.00    +0.000 S 
ATOM     24  C   UNL     1      49.241   8.948  19.958  0.00  0.00    +0.000 A 
ATOM     25  N   UNL     1      48.391   9.989  19.758  0.00  0.00    +0.000 NA
ATOM     26  C   UNL     1      47.299   9.660  19.154  0.00  0.00    +0.000 A 
ATOM     27  N   UNL     1      46.953   8.384  18.792  0.00  0.00    +0.000 N 
ATOM     28  C   UNL     1      47.717   7.282  19.114  0.00  0.00    +0.000 A 
ATOM     29  O   UNL     1      47.265   6.145  19.014  0.00  0.00    +0.000 OA
ATOM     30  C   UNL     1      49.027   7.618  19.640  0.00  0.00    +0.000 A 
ATOM     31  H   UNL     1      46.041   8.186  18.402  0.00  0.00    +0.000 HD
ENDBRANCH  19  21
BRANCH  18  33
ATOM     32  C   UNL     1      49.357   3.176  17.425  0.00  0.00    +0.000 C 
ATOM     33  C   UNL     1      50.764   3.636  17.781  0.00  0.00    +0.000 C 
ENDBRANCH  18  33
ENDBRANCH   1  18
TORSDOF 7
ENDMDL
