MODEL 1
REMARK VINA RESULT:    -8.141      0.000      0.000
REMARK INTER + INTRA:         -12.706
REMARK INTER:                 -11.473
REMARK INTRA:                  -1.233
REMARK UNBOUND:                -1.233
REMARK  Name = 
REMARK  8 active torsions:
REMARK  status: ('A' for Active; 'I' for Inactive)
REMARK    1  A    between atoms: C_1  and  N_2
REMARK    2  A    between atoms: C_8  and  C_9
REMARK    3  A    between atoms: N_11  and  C_12
REMARK    4  A    between atoms: C_12  and  C_13
REMARK    5  A    between atoms: C_16  and  C_17
REMARK    6  A    between atoms: C_17  and  O_18
REMARK    7  A    between atoms: O_18  and  C_19
REMARK    8  A    between atoms: C_19  and  C_20
REMARK                            x       y       z     vdW  Elec       q    Type
REMARK                         _______ _______ _______ _____ _____    ______ ____
ROOT
ATOM      1  C   UNL     1      47.112   7.948  13.020  0.00  0.00    +0.000 C 
ENDROOT
BRANCH   1   2
ATOM      2  C   UNL     1      46.190   6.890  12.468  0.00  0.00    +0.000 A 
ATOM      3  C   UNL     1      46.511   5.530  12.582  0.00  0.00    +0.000 A 
ATOM      4  C   UNL     1      45.660   4.550  12.061  0.00  0.00    +0.000 A 
ATOM      5  C   UNL     1      44.477   4.908  11.401  0.00  0.00    +0.000 A 
ATOM      6  C   UNL     1      44.170   6.268  11.265  0.00  0.00    +0.000 A 
ATOM      7  C   UNL     1      45.020   7.248  11.788  0.00  0.00    +0.000 A 
BRANCH   5   8
ATOM      8  C   UNL     1      43.568   3.854  10.823  0.00  0.00    +0.000 C 
BRANCH   8   9
ATOM      9  O   UNL     1      44.324   2.968  10.003  0.00  0.00    +0.000 OA
BRANCH   9  10
ATOM     10  C   UNL     1      44.579   3.537   8.719  0.00  0.00    +0.000 C 
BRANCH  10  11
ATOM     11  C   UNL     1      45.721   2.823   8.043  0.00  0.00    +0.000 A 
ATOM     12  C   UNL     1      46.663   3.511   7.274  0.00  0.00    +0.000 A 
ATOM     13  C   UNL     1      47.709   2.801   6.706  0.00  0.00    +0.000 A 
ATOM     14  N   UNL     1      47.889   1.472   6.861  0.00  0.00    +0.000 NA
ATOM     15  C   UNL     1      46.978   0.825   7.618  0.00  0.00    +0.000 A 
ATOM     16  C   UNL     1      45.897   1.448   8.226  0.00  0.00    +0.000 A 
ENDBRANCH  10  11
ENDBRANCH   9  10
ENDBRANCH   8   9
ENDBRANCH   5   8
ENDBRANCH   1   2
BRANCH   1  19
ATOM     17  C   UNL     1      48.875   7.455  14.659  0.00  0.00    +0.000 C 
ATOM     18  O   UNL     1      49.753   7.445  13.802  0.00  0.00    +0.000 OA
ATOM     19  N   UNL     1      47.547   7.602  14.350  0.00  0.00    +0.000 N 
ATOM     20  H   UNL     1      46.899   7.825  15.097  0.00  0.00    +0.000 HD
BRANCH  17  28
ATOM     21  C   UNL     1      47.387   2.793  17.569  0.00  0.00    +0.000 C 
ATOM     22  N   UNL     1      48.077   4.049  17.773  0.00  0.00    +0.000 N 
ATOM     23  C   UNL     1      48.631   4.365  18.996  0.00  0.00    +0.000 A 
ATOM     24  N   UNL     1      49.271   5.455  19.272  0.00  0.00    +0.000 NA
ATOM     25  C   UNL     1      49.375   6.325  18.234  0.00  0.00    +0.000 A 
ATOM     26  S   UNL     1      50.153   7.827  18.421  0.00  0.00    +0.000 S 
ATOM     27  C   UNL     1      49.841   8.254  16.797  0.00  0.00    +0.000 A 
ATOM     28  C   UNL     1      49.185   7.260  16.081  0.00  0.00    +0.000 A 
ATOM     29  C   UNL     1      48.894   6.147  16.953  0.00  0.00    +0.000 A 
ATOM     30  C   UNL     1      48.177   4.912  16.688  0.00  0.00    +0.000 A 
ATOM     31  O   UNL     1      47.711   4.644  15.584  0.00  0.00    +0.000 OA
ENDBRANCH  17  28
ENDBRANCH   1  19
TORSDOF 7
ENDMDL
MODEL 2
REMARK VINA RESULT:    -8.082      1.927      2.829
REMARK INTER + INTRA:         -12.622
REMARK INTER:                 -11.703
REMARK INTRA:                  -0.919
REMARK UNBOUND:                -1.233
REMARK  Name = 
REMARK  8 active torsions:
REMARK  status: ('A' for Active; 'I' for Inactive)
REMARK    1  A    between atoms: C_1  and  N_2
REMARK    2  A    between atoms: C_8  and  C_9
REMARK    3  A    between atoms: N_11  and  C_12
REMARK    4  A    between atoms: C_12  and  C_13
REMARK    5  A    between atoms: C_16  and  C_17
REMARK    6  A    between atoms: C_17  and  O_18
REMARK    7  A    between atoms: O_18  and  C_19
REMARK    8  A    between atoms: C_19  and  C_20
REMARK                            x       y       z     vdW  Elec       q    Type
REMARK                         _______ _______ _______ _____ _____    ______ ____
ROOT
ATOM      1  C   UNL     1      48.122   6.706  13.693  0.00  0.00    +0.000 C 
ENDROOT
BRANCH   1   2
ATOM      2  C   UNL     1      47.020   6.097  12.863  0.00  0.00    +0.000 A 
ATOM      3  C   UNL     1      46.550   6.744  11.711  0.00  0.00    +0.000 A 
ATOM      4  C   UNL     1      45.522   6.184  10.947  0.00  0.00    +0.000 A 
ATOM      5  C   UNL     1      44.930   4.972  11.326  0.00  0.00    +0.000 A 
ATOM      6  C   UNL     1      45.382   4.338  12.491  0.00  0.00    +0.000 A 
ATOM      7  C   UNL     1      46.412   4.898  13.253  0.00  0.00    +0.000 A 
BRANCH   5   8
ATOM      8  C   UNL     1      43.809   4.374  10.513  0.00  0.00    +0.000 C 
BRANCH   8   9
ATOM      9  O   UNL     1      44.314   3.306   9.715  0.00  0.00    +0.000 OA
BRANCH   9  10
ATOM     10  C   UNL     1      44.744   3.771   8.437  0.00  0.00    +0.000 C 
BRANCH  10  11
ATOM     11  C   UNL     1      45.850   2.898   7.902  0.00  0.00    +0.000 A 
ATOM     12  C   UNL     1      45.935   1.542   8.230  0.00  0.00    +0.000 A 
ATOM     13  C   UNL     1      46.956   0.785   7.678  0.00  0.00    +0.000 A 
ATOM     14  N   UNL     1      47.878   1.274   6.820  0.00  0.00    +0.000 NA
ATOM     15  C   UNL     1      47.772   2.581   6.504  0.00  0.00    +0.000 A 
ATOM     16  C   UNL     1      46.787   3.420   7.005  0.00  0.00    +0.000 A 
ENDBRANCH  10  11
ENDBRANCH   9  10
ENDBRANCH   8   9
ENDBRANCH   5   8
ENDBRANCH   1   2
BRANCH   1  19
ATOM     17  C   UNL     1      49.101   6.347  15.918  0.00  0.00    +0.000 C 
ATOM     18  O   UNL     1      50.229   6.646  15.535  0.00  0.00    +0.000 OA
ATOM     19  N   UNL     1      48.033   6.262  15.061  0.00  0.00    +0.000 N 
ATOM     20  H   UNL     1      47.100   6.234  15.455  0.00  0.00    +0.000 HD
BRANCH  17  28
ATOM     21  C   UNL     1      47.157  10.123  19.710  0.00  0.00    +0.000 C 
ATOM     22  N   UNL     1      47.530   8.725  19.633  0.00  0.00    +0.000 N 
ATOM     23  C   UNL     1      47.419   7.899  20.732  0.00  0.00    +0.000 A 
ATOM     24  N   UNL     1      47.718   6.641  20.759  0.00  0.00    +0.000 NA
ATOM     25  C   UNL     1      48.177   6.146  19.580  0.00  0.00    +0.000 A 
ATOM     26  S   UNL     1      48.655   4.519  19.436  0.00  0.00    +0.000 S 
ATOM     27  C   UNL     1      49.077   4.729  17.795  0.00  0.00    +0.000 A 
ATOM     28  C   UNL     1      48.828   6.011  17.321  0.00  0.00    +0.000 A 
ATOM     29  C   UNL     1      48.328   6.836  18.395  0.00  0.00    +0.000 A 
ATOM     30  C   UNL     1      47.985   8.248  18.410  0.00  0.00    +0.000 A 
ATOM     31  O   UNL     1      48.072   8.959  17.412  0.00  0.00    +0.000 OA
ENDBRANCH  17  28
ENDBRANCH   1  19
TORSDOF 7
ENDMDL
MODEL 3
REMARK VINA RESULT:    -7.830      1.767      3.548
REMARK INTER + INTRA:         -12.266
REMARK INTER:                 -10.995
REMARK INTRA:                  -1.271
REMARK UNBOUND:                -1.233
REMARK  Name = 
REMARK  8 active torsions:
REMARK  status: ('A' for Active; 'I' for Inactive)
REMARK    1  A    between atoms: C_1  and  N_2
REMARK    2  A    between atoms: C_8  and  C_9
REMARK    3  A    between atoms: N_11  and  C_12
REMARK    4  A    between atoms: C_12  and  C_13
REMARK    5  A    between atoms: C_16  and  C_17
REMARK    6  A    between atoms: C_17  and  O_18
REMARK    7  A    between atoms: O_18  and  C_19
REMARK    8  A    between atoms: C_19  and  C_20
REMARK                            x       y       z     vdW  Elec       q    Type
REMARK                         _______ _______ _______ _____ _____    ______ ____
ROOT
ATOM      1  C   UNL     1      47.028   4.364  14.930  0.00  0.00    +0.000 C 
ENDROOT
BRANCH   1   2
ATOM      2  C   UNL     1      46.161   4.418  13.697  0.00  0.00    +0.000 A 
ATOM      3  C   UNL     1      45.896   3.257  12.957  0.00  0.00    +0.000 A 
ATOM      4  C   UNL     1      45.098   3.310  11.808  0.00  0.00    +0.000 A 
ATOM      5  C   UNL     1      44.561   4.527  11.368  0.00  0.00    +0.000 A 
ATOM      6  C   UNL     1      44.847   5.690  12.094  0.00  0.00    +0.000 A 
ATOM      7  C   UNL     1      45.642   5.637  13.244  0.00  0.00    +0.000 A 
BRANCH   5   8
ATOM      8  C   UNL     1      43.717   4.590  10.121  0.00  0.00    +0.000 C 
BRANCH   8   9
ATOM      9  O   UNL     1      44.205   3.651   9.165  0.00  0.00    +0.000 OA
BRANCH   9  10
ATOM     10  C   UNL     1      45.242   4.216   8.365  0.00  0.00    +0.000 C 
BRANCH  10  11
ATOM     11  C   UNL     1      46.070   3.129   7.729  0.00  0.00    +0.000 A 
ATOM     12  C   UNL     1      46.868   3.377   6.609  0.00  0.00    +0.000 A 
ATOM     13  C   UNL     1      47.632   2.343   6.092  0.00  0.00    +0.000 A 
ATOM     14  N   UNL     1      47.668   1.098   6.615  0.00  0.00    +0.000 NA
ATOM     15  C   UNL     1      46.902   0.881   7.704  0.00  0.00    +0.000 A 
ATOM     16  C   UNL     1      46.103   1.850   8.293  0.00  0.00    +0.000 A 
ENDBRANCH  10  11
ENDBRANCH   9  10
ENDBRANCH   8   9
ENDBRANCH   5   8
ENDBRANCH   1   2
BRANCH   1  19
ATOM     17  C   UNL     1      48.703   5.793  16.020  0.00  0.00    +0.000 C 
ATOM     18  O   UNL     1      49.138   4.868  16.700  0.00  0.00    +0.000 OA
ATOM     19  N   UNL     1      47.614   5.652  15.198  0.00  0.00    +0.000 N 
ATOM     20  H   UNL     1      47.438   6.369  14.503  0.00  0.00    +0.000 HD
BRANCH  17  28
ATOM     21  C   UNL     1      50.360   8.677  11.400  0.00  0.00    +0.000 C 
ATOM     22  N   UNL     1      50.305   8.833  12.839  0.00  0.00    +0.000 N 
ATOM     23  C   UNL     1      50.729   9.997  13.445  0.00  0.00    +0.000 A 
ATOM     24  N   UNL     1      50.712  10.231  14.717  0.00  0.00    +0.000 NA
ATOM     25  C   UNL     1      50.227   9.211  15.471  0.00  0.00    +0.000 A 
ATOM     26  S   UNL     1      50.162   9.325  17.168  0.00  0.00    +0.000 S 
ATOM     27  C   UNL     1      49.510   7.753  17.305  0.00  0.00    +0.000 A 
ATOM     28  C   UNL     1      49.294   7.136  16.079  0.00  0.00    +0.000 A 
ATOM     29  C   UNL     1      49.750   7.999  15.015  0.00  0.00    +0.000 A 
ATOM     30  C   UNL     1      49.793   7.775  13.580  0.00  0.00    +0.000 A 
ATOM     31  O   UNL     1      49.390   6.737  13.063  0.00  0.00    +0.000 OA
ENDBRANCH  17  28
ENDBRANCH   1  19
TORSDOF 7
ENDMDL
MODEL 4
REMARK VINA RESULT:    -7.389      1.457      1.849
REMARK INTER + INTRA:         -11.646
REMARK INTER:                 -10.416
REMARK INTRA:                  -1.230
REMARK UNBOUND:                -1.233
REMARK  Name = 
REMARK  8 active torsions:
REMARK  status: ('A' for Active; 'I' for Inactive)
REMARK    1  A    between atoms: C_1  and  N_2
REMARK    2  A    between atoms: C_8  and  C_9
REMARK    3  A    between atoms: N_11  and  C_12
REMARK    4  A    between atoms: C_12  and  C_13
REMARK    5  A    between atoms: C_16  and  C_17
REMARK    6  A    between atoms: C_17  and  O_18
REMARK    7  A    between atoms: O_18  and  C_19
REMARK    8  A    between atoms: C_19  and  C_20
REMARK                            x       y       z     vdW  Elec       q    Type
REMARK                         _______ _______ _______ _____ _____    ______ ____
ROOT
ATOM      1  C   UNL     1      47.284   7.878  13.459  0.00  0.00    +0.000 C 
ENDROOT
BRANCH   1   2
ATOM      2  C   UNL     1      46.455   6.772  12.855  0.00  0.00    +0.000 A 
ATOM      3  C   UNL     1      45.696   6.996  11.697  0.00  0.00    +0.000 A 
ATOM      4  C   UNL     1      44.921   5.972  11.143  0.00  0.00    +0.000 A 
ATOM      5  C   UNL     1      44.876   4.706  11.743  0.00  0.00    +0.000 A 
ATOM      6  C   UNL     1      45.614   4.490  12.913  0.00  0.00    +0.000 A 
ATOM      7  C   UNL     1      46.392   5.514  13.466  0.00  0.00    +0.000 A 
BRANCH   5   8
ATOM      8  C   UNL     1      44.027   3.606  11.158  0.00  0.00    +0.000 C 
BRANCH   8   9
ATOM      9  O   UNL     1      44.868   2.589  10.619  0.00  0.00    +0.000 OA
BRANCH   9  10
ATOM     10  C   UNL     1      44.490   2.255   9.284  0.00  0.00    +0.000 C 
BRANCH  10  11
ATOM     11  C   UNL     1      45.673   2.367   8.357  0.00  0.00    +0.000 A 
ATOM     12  C   UNL     1      46.430   1.248   7.997  0.00  0.00    +0.000 A 
ATOM     13  C   UNL     1      47.484   1.413   7.114  0.00  0.00    +0.000 A 
ATOM     14  N   UNL     1      47.825   2.596   6.558  0.00  0.00    +0.000 NA
ATOM     15  C   UNL     1      47.076   3.662   6.906  0.00  0.00    +0.000 A 
ATOM     16  C   UNL     1      46.002   3.599   7.783  0.00  0.00    +0.000 A 
ENDBRANCH  10  11
ENDBRANCH   9  10
ENDBRANCH   8   9
ENDBRANCH   5   8
ENDBRANCH   1   2
BRANCH   1  19
ATOM     17  C   UNL     1      49.032   7.932  15.184  0.00  0.00    +0.000 C 
ATOM     18  O   UNL     1      48.663   9.023  15.610  0.00  0.00    +0.000 OA
ATOM     19  N   UNL     1      48.470   7.346  14.078  0.00  0.00    +0.000 N 
ATOM     20  H   UNL     1      48.653   6.363  13.908  0.00  0.00    +0.000 HD
BRANCH  17  28
ATOM     21  C   UNL     1      48.315   3.123  18.147  0.00  0.00    +0.000 C 
ATOM     22  N   UNL     1      49.377   4.012  17.723  0.00  0.00    +0.000 N 
ATOM     23  C   UNL     1      50.695   3.743  18.031  0.00  0.00    +0.000 A 
ATOM     24  N   UNL     1      51.709   4.470  17.691  0.00  0.00    +0.000 NA
ATOM     25  C   UNL     1      51.392   5.578  16.973  0.00  0.00    +0.000 A 
ATOM     26  S   UNL     1      52.593   6.674  16.470  0.00  0.00    +0.000 S 
ATOM     27  C   UNL     1      51.439   7.686  15.724  0.00  0.00    +0.000 A 
ATOM     28  C   UNL     1      50.140   7.197  15.808  0.00  0.00    +0.000 A 
ATOM     29  C   UNL     1      50.132   5.973  16.572  0.00  0.00    +0.000 A 
ATOM     30  C   UNL     1      49.020   5.130  16.980  0.00  0.00    +0.000 A 
ATOM     31  O   UNL     1      47.857   5.380  16.674  0.00  0.00    +0.000 OA
ENDBRANCH  17  28
ENDBRANCH   1  19
TORSDOF 7
ENDMDL
MODEL 5
REMARK VINA RESULT:    -7.383      2.077      2.947
REMARK INTER + INTRA:         -11.638
REMARK INTER:                 -10.726
REMARK INTRA:                  -0.912
REMARK UNBOUND:                -1.233
REMARK  Name = 
REMARK  8 active torsions:
REMARK  status: ('A' for Active; 'I' for Inactive)
REMARK    1  A    between atoms: C_1  and  N_2
REMARK    2  A    between atoms: C_8  and  C_9
REMARK    3  A    between atoms: N_11  and  C_12
REMARK    4  A    between atoms: C_12  and  C_13
REMARK    5  A    between atoms: C_16  and  C_17
REMARK    6  A    between atoms: C_17  and  O_18
REMARK    7  A    between atoms: O_18  and  C_19
REMARK    8  A    between atoms: C_19  and  C_20
REMARK                            x       y       z     vdW  Elec       q    Type
REMARK                         _______ _______ _______ _____ _____    ______ ____
ROOT
ATOM      1  C   UNL     1      47.165   4.230  14.834  0.00  0.00    +0.000 C 
ENDROOT
BRANCH   1   2
ATOM      2  C   UNL     1      46.273   4.334  13.623  0.00  0.00    +0.000 A 
ATOM      3  C   UNL     1      45.895   3.187  12.911  0.00  0.00    +0.000 A 
ATOM      4  C   UNL     1      45.075   3.286  11.782  0.00  0.00    +0.000 A 
ATOM      5  C   UNL     1      44.627   4.535  11.332  0.00  0.00    +0.000 A 
ATOM      6  C   UNL     1      45.026   5.683  12.029  0.00  0.00    +0.000 A 
ATOM      7  C   UNL     1      45.844   5.584  13.159  0.00  0.00    +0.000 A 
BRANCH   5   8
ATOM      8  C   UNL     1      43.757   4.645  10.106  0.00  0.00    +0.000 C 
BRANCH   8   9
ATOM      9  O   UNL     1      44.203   3.717   9.119  0.00  0.00    +0.000 OA
BRANCH   9  10
ATOM     10  C   UNL     1      45.299   4.241   8.371  0.00  0.00    +0.000 C 
BRANCH  10  11
ATOM     11  C   UNL     1      46.077   3.124   7.723  0.00  0.00    +0.000 A 
ATOM     12  C   UNL     1      46.860   3.340   6.586  0.00  0.00    +0.000 A 
ATOM     13  C   UNL     1      47.578   2.280   6.058  0.00  0.00    +0.000 A 
ATOM     14  N   UNL     1      47.583   1.037   6.587  0.00  0.00    +0.000 NA
ATOM     15  C   UNL     1      46.833   0.849   7.692  0.00  0.00    +0.000 A 
ATOM     16  C   UNL     1      46.079   1.847   8.293  0.00  0.00    +0.000 A 
ENDBRANCH  10  11
ENDBRANCH   9  10
ENDBRANCH   8   9
ENDBRANCH   5   8
ENDBRANCH   1   2
BRANCH   1  19
ATOM     17  C   UNL     1      48.453   5.701  16.323  0.00  0.00    +0.000 C 
ATOM     18  O   UNL     1      48.699   4.790  17.109  0.00  0.00    +0.000 OA
ATOM     19  N   UNL     1      47.634   5.532  15.236  0.00  0.00    +0.000 N 
ATOM     20  H   UNL     1      47.645   6.239  14.509  0.00  0.00    +0.000 HD
BRANCH  17  28
ATOM     21  C   UNL     1      47.300   8.854  20.921  0.00  0.00    +0.000 C 
ATOM     22  N   UNL     1      48.057   8.933  19.689  0.00  0.00    +0.000 N 
ATOM     23  C   UNL     1      48.813  10.047  19.388  0.00  0.00    +0.000 A 
ATOM     24  N   UNL     1      49.526  10.205  18.321  0.00  0.00    +0.000 NA
ATOM     25  C   UNL     1      49.490   9.156  17.459  0.00  0.00    +0.000 A 
ATOM     26  S   UNL     1      50.338   9.200  15.984  0.00  0.00    +0.000 S 
ATOM     27  C   UNL     1      49.781   7.646  15.551  0.00  0.00    +0.000 A 
ATOM     28  C   UNL     1      48.983   7.055  16.524  0.00  0.00    +0.000 A 
ATOM     29  C   UNL     1      48.801   7.972  17.624  0.00  0.00    +0.000 A 
ATOM     30  C   UNL     1      48.008   7.838  18.834  0.00  0.00    +0.000 A 
ATOM     31  O   UNL     1      47.360   6.827  19.089  0.00  0.00    +0.000 OA
ENDBRANCH  17  28
ENDBRANCH   1  19
TORSDOF 7
ENDMDL
MODEL 6
REMARK VINA RESULT:    -7.297      1.688      3.569
REMARK INTER + INTRA:         -11.515
REMARK INTER:                 -10.388
REMARK INTRA:                  -1.127
REMARK UNBOUND:                -1.233
REMARK  Name = 
REMARK  8 active torsions:
REMARK  status: ('A' for Active; 'I' for Inactive)
REMARK    1  A    between atoms: C_1  and  N_2
REMARK    2  A    between atoms: C_8  and  C_9
REMARK    3  A    between atoms: N_11  and  C_12
REMARK    4  A    between atoms: C_12  and  C_13
REMARK    5  A    between atoms: C_16  and  C_17
REMARK    6  A    between atoms: C_17  and  O_18
REMARK    7  A    between atoms: O_18  and  C_19
REMARK    8  A    between atoms: C_19  and  C_20
REMARK                            x       y       z     vdW  Elec       q    Type
REMARK                         _______ _______ _______ _____ _____    ______ ____
ROOT
ATOM      1  C   UNL     1      47.264   4.016  15.518  0.00  0.00    +0.000 C 
ENDROOT
BRANCH   1   2
ATOM      2  C   UNL     1      46.682   4.305  14.158  0.00  0.00    +0.000 A 
ATOM      3  C   UNL     1      46.610   5.618  13.673  0.00  0.00    +0.000 A 
ATOM      4  C   UNL     1      46.061   5.886  12.415  0.00  0.00    +0.000 A 
ATOM      5  C   UNL     1      45.559   4.847  11.620  0.00  0.00    +0.000 A 
ATOM      6  C   UNL     1      45.607   3.538  12.115  0.00  0.00    +0.000 A 
ATOM      7  C   UNL     1      46.158   3.270  13.372  0.00  0.00    +0.000 A 
BRANCH   5   8
ATOM      8  C   UNL     1      44.951   5.135  10.271  0.00  0.00    +0.000 C 
BRANCH   8   9
ATOM      9  O   UNL     1      44.538   3.914   9.662  0.00  0.00    +0.000 OA
BRANCH   9  10
ATOM     10  C   UNL     1      44.715   3.953   8.247  0.00  0.00    +0.000 C 
BRANCH  10  11
ATOM     11  C   UNL     1      45.807   3.003   7.826  0.00  0.00    +0.000 A 
ATOM     12  C   UNL     1      45.820   1.669   8.245  0.00  0.00    +0.000 A 
ATOM     13  C   UNL     1      46.833   0.838   7.795  0.00  0.00    +0.000 A 
ATOM     14  N   UNL     1      47.814   1.233   6.956  0.00  0.00    +0.000 NA
ATOM     15  C   UNL     1      47.779   2.519   6.551  0.00  0.00    +0.000 A 
ATOM     16  C   UNL     1      46.808   3.428   6.946  0.00  0.00    +0.000 A 
ENDBRANCH  10  11
ENDBRANCH   9  10
ENDBRANCH   8   9
ENDBRANCH   5   8
ENDBRANCH   1   2
BRANCH   1  19
ATOM     17  C   UNL     1      48.670   5.630  16.725  0.00  0.00    +0.000 C 
ATOM     18  O   UNL     1      49.657   4.902  16.672  0.00  0.00    +0.000 OA
ATOM     19  N   UNL     1      47.439   5.234  16.267  0.00  0.00    +0.000 N 
ATOM     20  H   UNL     1      46.725   5.941  16.130  0.00  0.00    +0.000 HD
BRANCH  17  28
ATOM     21  C   UNL     1      49.243  10.412  13.689  0.00  0.00    +0.000 C 
ATOM     22  N   UNL     1      49.111   9.987  15.068  0.00  0.00    +0.000 N 
ATOM     23  C   UNL     1      49.071  10.908  16.094  0.00  0.00    +0.000 A 
ATOM     24  N   UNL     1      48.948  10.627  17.350  0.00  0.00    +0.000 NA
ATOM     25  C   UNL     1      48.855   9.299  17.624  0.00  0.00    +0.000 A 
ATOM     26  S   UNL     1      48.724   8.738  19.226  0.00  0.00    +0.000 S 
ATOM     27  C   UNL     1      48.686   7.111  18.713  0.00  0.00    +0.000 A 
ATOM     28  C   UNL     1      48.731   6.966  17.332  0.00  0.00    +0.000 A 
ATOM     29  C   UNL     1      48.861   8.264  16.712  0.00  0.00    +0.000 A 
ATOM     30  C   UNL     1      49.007   8.624  15.312  0.00  0.00    +0.000 A 
ATOM     31  O   UNL     1      49.018   7.786  14.414  0.00  0.00    +0.000 OA
ENDBRANCH  17  28
ENDBRANCH   1  19
TORSDOF 7
ENDMDL
MODEL 7
REMARK VINA RESULT:    -7.292      2.834      8.437
REMARK INTER + INTRA:         -11.509
REMARK INTER:                  -9.910
REMARK INTRA:                  -1.599
REMARK UNBOUND:                -1.233
REMARK  Name = 
REMARK  8 active torsions:
REMARK  status: ('A' for Active; 'I' for Inactive)
REMARK    1  A    between atoms: C_1  and  N_2
REMARK    2  A    between atoms: C_8  and  C_9
REMARK    3  A    between atoms: N_11  and  C_12
REMARK    4  A    between atoms: C_12  and  C_13
REMARK    5  A    between atoms: C_16  and  C_17
REMARK    6  A    between atoms: C_17  and  O_18
REMARK    7  A    between atoms: O_18  and  C_19
REMARK    8  A    between atoms: C_19  and  C_20
REMARK                            x       y       z     vdW  Elec       q    Type
REMARK                         _______ _______ _______ _____ _____    ______ ____
ROOT
ATOM      1  C   UNL     1      47.536   7.854  11.934  0.00  0.00    +0.000 C 
ENDROOT
BRANCH   1   2
ATOM      2  C   UNL     1      48.238   7.962  13.264  0.00  0.00    +0.000 A 
ATOM      3  C   UNL     1      49.460   7.311  13.485  0.00  0.00    +0.000 A 
ATOM      4  C   UNL     1      50.105   7.405  14.722  0.00  0.00    +0.000 A 
ATOM      5  C   UNL     1      49.536   8.140  15.770  0.00  0.00    +0.000 A 
ATOM      6  C   UNL     1      48.303   8.769  15.558  0.00  0.00    +0.000 A 
ATOM      7  C   UNL     1      47.659   8.677  14.319  0.00  0.00    +0.000 A 
BRANCH   5   8
ATOM      8  C   UNL     1      50.221   8.227  17.110  0.00  0.00    +0.000 C 
BRANCH   8   9
ATOM      9  O   UNL     1      50.571   6.919  17.555  0.00  0.00    +0.000 OA
BRANCH   9  10
ATOM     10  C   UNL     1      49.467   6.274  18.190  0.00  0.00    +0.000 C 
BRANCH  10  11
ATOM     11  C   UNL     1      49.186   4.946  17.536  0.00  0.00    +0.000 A 
ATOM     12  C   UNL     1      49.990   3.827  17.773  0.00  0.00    +0.000 A 
ATOM     13  C   UNL     1      49.657   2.626  17.168  0.00  0.00    +0.000 A 
ATOM     14  N   UNL     1      48.584   2.458  16.366  0.00  0.00    +0.000 NA
ATOM     15  C   UNL     1      47.811   3.544  16.159  0.00  0.00    +0.000 A 
ATOM     16  C   UNL     1      48.062   4.789  16.719  0.00  0.00    +0.000 A 
ENDBRANCH  10  11
ENDBRANCH   9  10
ENDBRANCH   8   9
ENDBRANCH   5   8
ENDBRANCH   1   2
BRANCH   1  19
ATOM     17  C   UNL     1      45.430   6.634  11.594  0.00  0.00    +0.000 C 
ATOM     18  O   UNL     1      44.766   7.667  11.575  0.00  0.00    +0.000 OA
ATOM     19  N   UNL     1      46.777   6.632  11.856  0.00  0.00    +0.000 N 
ATOM     20  H   UNL     1      47.309   5.796  11.641  0.00  0.00    +0.000 HD
BRANCH  17  28
ATOM     21  C   UNL     1      46.240   3.524   6.896  0.00  0.00    +0.000 C 
ATOM     22  N   UNL     1      45.531   3.457   8.156  0.00  0.00    +0.000 N 
ATOM     23  C   UNL     1      44.784   2.347   8.494  0.00  0.00    +0.000 A 
ATOM     24  N   UNL     1      44.125   2.192   9.595  0.00  0.00    +0.000 NA
ATOM     25  C   UNL     1      44.209   3.241  10.454  0.00  0.00    +0.000 A 
ATOM     26  S   UNL     1      43.376   3.231  11.938  0.00  0.00    +0.000 S 
ATOM     27  C   UNL     1      43.956   4.786  12.339  0.00  0.00    +0.000 A 
ATOM     28  C   UNL     1      44.814   5.318  11.384  0.00  0.00    +0.000 A 
ATOM     29  C   UNL     1      44.925   4.406  10.270  0.00  0.00    +0.000 A 
ATOM     30  C   UNL     1      45.647   4.541   9.017  0.00  0.00    +0.000 A 
ATOM     31  O   UNL     1      46.322   5.531   8.748  0.00  0.00    +0.000 OA
ENDBRANCH  17  28
ENDBRANCH   1  19
TORSDOF 7
ENDMDL
MODEL 8
REMARK VINA RESULT:    -6.736      3.717      5.107
REMARK INTER + INTRA:         -10.725
REMARK INTER:                  -9.602
REMARK INTRA:                  -1.123
REMARK UNBOUND:                -1.233
REMARK  Name = 
REMARK  8 active torsions:
REMARK  status: ('A' for Active; 'I' for Inactive)
REMARK    1  A    between atoms: C_1  and  N_2
REMARK    2  A    between atoms: C_8  and  C_9
REMARK    3  A    between atoms: N_11  and  C_12
REMARK    4  A    between atoms: C_12  and  C_13
REMARK    5  A    between atoms: C_16  and  C_17
REMARK    6  A    between atoms: C_17  and  O_18
REMARK    7  A    between atoms: O_18  and  C_19
REMARK    8  A    between atoms: C_19  and  C_20
REMARK                            x       y       z     vdW  Elec       q    Type
REMARK                         _______ _______ _______ _____ _____    ______ ____
ROOT
ATOM      1  C   UNL     1      47.599   7.531  12.823  0.00  0.00    +0.000 C 
ENDROOT
BRANCH   1   2
ATOM      2  C   UNL     1      46.720   6.381  12.400  0.00  0.00    +0.000 A 
ATOM      3  C   UNL     1      46.120   6.367  11.133  0.00  0.00    +0.000 A 
ATOM      4  C   UNL     1      45.298   5.304  10.745  0.00  0.00    +0.000 A 
ATOM      5  C   UNL     1      45.046   4.239  11.621  0.00  0.00    +0.000 A 
ATOM      6  C   UNL     1      45.626   4.266  12.896  0.00  0.00    +0.000 A 
ATOM      7  C   UNL     1      46.451   5.328  13.283  0.00  0.00    +0.000 A 
BRANCH   5   8
ATOM      8  C   UNL     1      44.147   3.101  11.211  0.00  0.00    +0.000 C 
BRANCH   8   9
ATOM      9  O   UNL     1      43.992   3.100   9.794  0.00  0.00    +0.000 OA
BRANCH   9  10
ATOM     10  C   UNL     1      44.477   1.887   9.219  0.00  0.00    +0.000 C 
BRANCH  10  11
ATOM     11  C   UNL     1      45.629   2.168   8.289  0.00  0.00    +0.000 A 
ATOM     12  C   UNL     1      45.873   3.451   7.792  0.00  0.00    +0.000 A 
ATOM     13  C   UNL     1      46.969   3.650   6.968  0.00  0.00    +0.000 A 
ATOM     14  N   UNL     1      47.838   2.676   6.621  0.00  0.00    +0.000 NA
ATOM     15  C   UNL     1      47.595   1.447   7.121  0.00  0.00    +0.000 A 
ATOM     16  C   UNL     1      46.525   1.148   7.952  0.00  0.00    +0.000 A 
ENDBRANCH  10  11
ENDBRANCH   9  10
ENDBRANCH   8   9
ENDBRANCH   5   8
ENDBRANCH   1   2
BRANCH   1  19
ATOM     17  C   UNL     1      49.650   8.396  11.782  0.00  0.00    +0.000 C 
ATOM     18  O   UNL     1      49.135   9.482  11.530  0.00  0.00    +0.000 OA
ATOM     19  N   UNL     1      48.941   7.357  12.330  0.00  0.00    +0.000 N 
ATOM     20  H   UNL     1      49.455   6.575  12.720  0.00  0.00    +0.000 HD
BRANCH  17  28
ATOM     21  C   UNL     1      53.992  10.466  14.827  0.00  0.00    +0.000 C 
ATOM     22  N   UNL     1      53.754   9.625  13.672  0.00  0.00    +0.000 N 
ATOM     23  C   UNL     1      54.801   9.042  12.989  0.00  0.00    +0.000 A 
ATOM     24  N   UNL     1      54.688   8.273  11.956  0.00  0.00    +0.000 NA
ATOM     25  C   UNL     1      53.410   8.056  11.552  0.00  0.00    +0.000 A 
ATOM     26  S   UNL     1      53.069   7.099  10.186  0.00  0.00    +0.000 S 
ATOM     27  C   UNL     1      51.389   7.348  10.361  0.00  0.00    +0.000 A 
ATOM     28  C   UNL     1      51.057   8.119  11.468  0.00  0.00    +0.000 A 
ATOM     29  C   UNL     1      52.262   8.550  12.137  0.00  0.00    +0.000 A 
ATOM     30  C   UNL     1      52.434   9.414  13.292  0.00  0.00    +0.000 A 
ATOM     31  O   UNL     1      51.484   9.904  13.897  0.00  0.00    +0.000 OA
ENDBRANCH  17  28
ENDBRANCH   1  19
TORSDOF 7
ENDMDL
MODEL 9
REMARK VINA RESULT:    -6.726      3.506      5.426
REMARK INTER + INTRA:         -10.711
REMARK INTER:                  -9.675
REMARK INTRA:                  -1.035
REMARK UNBOUND:                -1.233
REMARK  Name = 
REMARK  8 active torsions:
REMARK  status: ('A' for Active; 'I' for Inactive)
REMARK    1  A    between atoms: C_1  and  N_2
REMARK    2  A    between atoms: C_8  and  C_9
REMARK    3  A    between atoms: N_11  and  C_12
REMARK    4  A    between atoms: C_12  and  C_13
REMARK    5  A    between atoms: C_16  and  C_17
REMARK    6  A    between atoms: C_17  and  O_18
REMARK    7  A    between atoms: O_18  and  C_19
REMARK    8  A    between atoms: C_19  and  C_20
REMARK                            x       y       z     vdW  Elec       q    Type
REMARK                         _______ _______ _______ _____ _____    ______ ____
ROOT
ATOM      1  C   UNL     1      47.804   3.358  17.541  0.00  0.00    +0.000 C 
ENDROOT
BRANCH   1   2
ATOM      2  C   UNL     1      47.723   4.177  16.277  0.00  0.00    +0.000 A 
ATOM      3  C   UNL     1      48.243   5.479  16.233  0.00  0.00    +0.000 A 
ATOM      4  C   UNL     1      48.159   6.241  15.063  0.00  0.00    +0.000 A 
ATOM      5  C   UNL     1      47.540   5.724  13.917  0.00  0.00    +0.000 A 
ATOM      6  C   UNL     1      46.998   4.434  13.970  0.00  0.00    +0.000 A 
ATOM      7  C   UNL     1      47.085   3.670  15.139  0.00  0.00    +0.000 A 
BRANCH   5   8
ATOM      8  C   UNL     1      47.433   6.551  12.661  0.00  0.00    +0.000 C 
BRANCH   8   9
ATOM      9  O   UNL     1      46.060   6.796  12.366  0.00  0.00    +0.000 OA
BRANCH   9  10
ATOM     10  C   UNL     1      45.734   6.394  11.036  0.00  0.00    +0.000 C 
BRANCH  10  11
ATOM     11  C   UNL     1      44.875   5.156  11.054  0.00  0.00    +0.000 A 
ATOM     12  C   UNL     1      44.930   4.210  10.026  0.00  0.00    +0.000 A 
ATOM     13  C   UNL     1      44.140   3.077  10.119  0.00  0.00    +0.000 A 
ATOM     14  N   UNL     1      43.319   2.814  11.159  0.00  0.00    +0.000 NA
ATOM     15  C   UNL     1      43.288   3.730  12.148  0.00  0.00    +0.000 A 
ATOM     16  C   UNL     1      44.041   4.896  12.146  0.00  0.00    +0.000 A 
ENDBRANCH  10  11
ENDBRANCH   9  10
ENDBRANCH   8   9
ENDBRANCH   5   8
ENDBRANCH   1   2
BRANCH   1  19
ATOM     17  C   UNL     1      49.963   2.285  17.065  0.00  0.00    +0.000 C 
ATOM     18  O   UNL     1      49.509   1.659  16.111  0.00  0.00    +0.000 OA
ATOM     19  N   UNL     1      49.175   3.066  17.872  0.00  0.00    +0.000 N 
ATOM     20  H   UNL     1      49.628   3.726  18.495  0.00  0.00    +0.000 HD
BRANCH  17  28
ATOM     21  C   UNL     1      53.266   6.858  17.827  0.00  0.00    +0.000 C 
ATOM     22  N   UNL     1      53.348   5.414  17.887  0.00  0.00    +0.000 N 
ATOM     23  C   UNL     1      54.520   4.783  18.249  0.00  0.00    +0.000 A 
ATOM     24  N   UNL     1      54.688   3.504  18.338  0.00  0.00    +0.000 NA
ATOM     25  C   UNL     1      53.586   2.769  18.037  0.00  0.00    +0.000 A 
ATOM     26  S   UNL     1      53.628   1.068  18.065  0.00  0.00    +0.000 S 
ATOM     27  C   UNL     1      51.993   0.962  17.586  0.00  0.00    +0.000 A 
ATOM     28  C   UNL     1      51.380   2.200  17.438  0.00  0.00    +0.000 A 
ATOM     29  C   UNL     1      52.343   3.249  17.679  0.00  0.00    +0.000 A 
ATOM     30  C   UNL     1      52.199   4.692  17.586  0.00  0.00    +0.000 A 
ATOM     31  O   UNL     1      51.139   5.231  17.282  0.00  0.00    +0.000 OA
ENDBRANCH  17  28
ENDBRANCH   1  19
TORSDOF 7
ENDMDL
