MODEL 1
REMARK VINA RESULT:    -8.297      0.000      0.000
REMARK INTER + INTRA:         -13.379
REMARK INTER:                 -12.178
REMARK INTRA:                  -1.201
REMARK UNBOUND:                -1.201
REMARK  Name = 
REMARK  9 active torsions:
REMARK  status: ('A' for Active; 'I' for Inactive)
REMARK    1  A    between atoms: C_1  and  O_2
REMARK    2  A    between atoms: O_2  and  C_3
REMARK    3  A    between atoms: C_10  and  C_11
REMARK    4  A    between atoms: N_13  and  C_14
REMARK    5  A    between atoms: C_14  and  C_15
REMARK    6  A    between atoms: C_18  and  C_19
REMARK    7  A    between atoms: C_19  and  N_20
REMARK    8  A    between atoms: N_20  and  C_21
REMARK    9  A    between atoms: C_21  and  C_22
REMARK                            x       y       z     vdW  Elec       q    Type
REMARK                         _______ _______ _______ _____ _____    ______ ____
ROOT
ATOM      1  C   UNL     1      47.965   6.840  13.279  0.00  0.00    +0.000 C 
ENDROOT
BRANCH   1   2
ATOM      2  C   UNL     1      46.788   6.082  12.722  0.00  0.00    +0.000 A 
ATOM      3  C   UNL     1      46.113   5.135  13.502  0.00  0.00    +0.000 A 
ATOM      4  C   UNL     1      45.052   4.394  12.967  0.00  0.00    +0.000 A 
ATOM      5  C   UNL     1      44.644   4.582  11.639  0.00  0.00    +0.000 A 
ATOM      6  C   UNL     1      45.314   5.537  10.863  0.00  0.00    +0.000 A 
ATOM      7  C   UNL     1      46.377   6.274  11.396  0.00  0.00    +0.000 A 
BRANCH   5   8
ATOM      8  C   UNL     1      43.532   3.743  11.044  0.00  0.00    +0.000 C 
BRANCH   8   9
ATOM      9  N   UNL     1      43.785   3.431   9.638  0.00  0.00    +0.000 NA
ATOM     10  H   UNL     1      44.354   4.177   9.236  0.00  0.00    +0.000 HD
BRANCH   9  11
ATOM     11  C   UNL     1      44.531   2.171   9.499  0.00  0.00    +0.000 C 
BRANCH  11  12
ATOM     12  C   UNL     1      45.582   2.247   8.406  0.00  0.00    +0.000 A 
ATOM     13  C   UNL     1      45.738   3.416   7.662  0.00  0.00    +0.000 A 
ATOM     14  C   UNL     1      46.719   3.464   6.674  0.00  0.00    +0.000 A 
ATOM     15  C   UNL     1      47.509   2.347   6.448  0.00  0.00    +0.000 A 
ATOM     16  C   UNL     1      47.289   1.221   7.224  0.00  0.00    +0.000 A 
ATOM     17  N   UNL     1      46.349   1.145   8.194  0.00  0.00    +0.000 NA
ENDBRANCH  11  12
ENDBRANCH   9  11
ENDBRANCH   8   9
ENDBRANCH   5   8
ENDBRANCH   1   2
BRANCH   1  20
ATOM     18  C   UNL     1      49.067   6.944  15.473  0.00  0.00    +0.000 C 
ATOM     19  O   UNL     1      50.174   6.943  14.940  0.00  0.00    +0.000 OA
ATOM     20  N   UNL     1      47.922   6.891  14.722  0.00  0.00    +0.000 N 
ATOM     21  H   UNL     1      47.017   6.840  15.170  0.00  0.00    +0.000 HD
BRANCH  18  29
ATOM     22  C   UNL     1      48.874   4.540  17.943  0.00  0.00    +0.000 A 
ATOM     23  N   UNL     1      48.782   3.834  19.089  0.00  0.00    +0.000 NA
ATOM     24  C   UNL     1      48.652   4.504  20.236  0.00  0.00    +0.000 A 
ATOM     25  N   UNL     1      48.597   5.823  20.386  0.00  0.00    +0.000 NA
ATOM     26  C   UNL     1      48.701   6.490  19.225  0.00  0.00    +0.000 A 
ATOM     27  S   UNL     1      48.650   8.187  19.232  0.00  0.00    +0.000 S 
ATOM     28  C   UNL     1      48.822   8.246  17.543  0.00  0.00    +0.000 A 
ATOM     29  C   UNL     1      48.926   6.998  16.940  0.00  0.00    +0.000 A 
ATOM     30  C   UNL     1      48.850   5.945  17.952  0.00  0.00    +0.000 A 
BRANCH  22  32
ATOM     31  C   UNL     1      47.832   3.293  16.267  0.00  0.00    +0.000 C 
ATOM     32  O   UNL     1      49.051   3.840  16.768  0.00  0.00    +0.000 OA
ENDBRANCH  22  32
ENDBRANCH  18  29
ENDBRANCH   1  20
TORSDOF 8
ENDMDL
MODEL 2
REMARK VINA RESULT:    -7.766      2.259      2.826
REMARK INTER + INTRA:         -12.599
REMARK INTER:                 -11.451
REMARK INTRA:                  -1.148
REMARK UNBOUND:                -1.201
REMARK  Name = 
REMARK  9 active torsions:
REMARK  status: ('A' for Active; 'I' for Inactive)
REMARK    1  A    between atoms: C_1  and  O_2
REMARK    2  A    between atoms: O_2  and  C_3
REMARK    3  A    between atoms: C_10  and  C_11
REMARK    4  A    between atoms: N_13  and  C_14
REMARK    5  A    between atoms: C_14  and  C_15
REMARK    6  A    between atoms: C_18  and  C_19
REMARK    7  A    between atoms: C_19  and  N_20
REMARK    8  A    between atoms: N_20  and  C_21
REMARK    9  A    between atoms: C_21  and  C_22
REMARK                            x       y       z     vdW  Elec       q    Type
REMARK                         _______ _______ _______ _____ _____    ______ ____
ROOT
ATOM      1  C   UNL     1      48.377   6.925  15.145  0.00  0.00    +0.000 C 
ENDROOT
BRANCH   1   2
ATOM      2  C   UNL     1      47.529   6.251  14.097  0.00  0.00    +0.000 A 
ATOM      3  C   UNL     1      47.262   6.885  12.876  0.00  0.00    +0.000 A 
ATOM      4  C   UNL     1      46.433   6.280  11.924  0.00  0.00    +0.000 A 
ATOM      5  C   UNL     1      45.851   5.029  12.171  0.00  0.00    +0.000 A 
ATOM      6  C   UNL     1      46.127   4.391  13.388  0.00  0.00    +0.000 A 
ATOM      7  C   UNL     1      46.952   4.999  14.342  0.00  0.00    +0.000 A 
BRANCH   5   8
ATOM      8  C   UNL     1      44.911   4.398  11.164  0.00  0.00    +0.000 C 
BRANCH   8   9
ATOM      9  N   UNL     1      45.188   2.974  10.985  0.00  0.00    +0.000 NA
ATOM     10  H   UNL     1      44.796   2.463  11.777  0.00  0.00    +0.000 HD
BRANCH   9  11
ATOM     11  C   UNL     1      44.555   2.459   9.760  0.00  0.00    +0.000 C 
BRANCH  11  12
ATOM     12  C   UNL     1      45.523   2.414   8.592  0.00  0.00    +0.000 A 
ATOM     13  C   UNL     1      45.703   3.537   7.785  0.00  0.00    +0.000 A 
ATOM     14  C   UNL     1      46.607   3.473   6.727  0.00  0.00    +0.000 A 
ATOM     15  C   UNL     1      47.299   2.293   6.497  0.00  0.00    +0.000 A 
ATOM     16  C   UNL     1      47.060   1.219   7.338  0.00  0.00    +0.000 A 
ATOM     17  N   UNL     1      46.194   1.251   8.377  0.00  0.00    +0.000 NA
ENDBRANCH  11  12
ENDBRANCH   9  11
ENDBRANCH   8   9
ENDBRANCH   5   8
ENDBRANCH   1   2
BRANCH   1  20
ATOM     18  C   UNL     1      49.867   6.123  16.926  0.00  0.00    +0.000 C 
ATOM     19  O   UNL     1      49.423   6.963  17.705  0.00  0.00    +0.000 OA
ATOM     20  N   UNL     1      49.405   6.039  15.638  0.00  0.00    +0.000 N 
ATOM     21  H   UNL     1      49.812   5.379  14.990  0.00  0.00    +0.000 HD
BRANCH  18  29
ATOM     22  C   UNL     1      50.085   2.678  16.977  0.00  0.00    +0.000 A 
ATOM     23  N   UNL     1      50.441   1.383  17.102  0.00  0.00    +0.000 NA
ATOM     24  C   UNL     1      51.648   1.104  17.601  0.00  0.00    +0.000 A 
ATOM     25  N   UNL     1      52.565   1.978  18.002  0.00  0.00    +0.000 NA
ATOM     26  C   UNL     1      52.177   3.255  17.854  0.00  0.00    +0.000 A 
ATOM     27  S   UNL     1      53.227   4.505  18.318  0.00  0.00    +0.000 S 
ATOM     28  C   UNL     1      52.100   5.688  17.858  0.00  0.00    +0.000 A 
ATOM     29  C   UNL     1      50.915   5.173  17.344  0.00  0.00    +0.000 A 
ATOM     30  C   UNL     1      50.963   3.712  17.345  0.00  0.00    +0.000 A 
BRANCH  22  32
ATOM     31  C   UNL     1      47.800   2.936  17.385  0.00  0.00    +0.000 C 
ATOM     32  O   UNL     1      48.853   2.956  16.422  0.00  0.00    +0.000 OA
ENDBRANCH  22  32
ENDBRANCH  18  29
ENDBRANCH   1  20
TORSDOF 8
ENDMDL
MODEL 3
REMARK VINA RESULT:    -7.480      1.671      2.105
REMARK INTER + INTRA:         -12.179
REMARK INTER:                 -10.879
REMARK INTRA:                  -1.300
REMARK UNBOUND:                -1.201
REMARK  Name = 
REMARK  9 active torsions:
REMARK  status: ('A' for Active; 'I' for Inactive)
REMARK    1  A    between atoms: C_1  and  O_2
REMARK    2  A    between atoms: O_2  and  C_3
REMARK    3  A    between atoms: C_10  and  C_11
REMARK    4  A    between atoms: N_13  and  C_14
REMARK    5  A    between atoms: C_14  and  C_15
REMARK    6  A    between atoms: C_18  and  C_19
REMARK    7  A    between atoms: C_19  and  N_20
REMARK    8  A    between atoms: N_20  and  C_21
REMARK    9  A    between atoms: C_21  and  C_22
REMARK                            x       y       z     vdW  Elec       q    Type
REMARK                         _______ _______ _______ _____ _____    ______ ____
ROOT
ATOM      1  C   UNL     1      46.741   7.939  13.176  0.00  0.00    +0.000 C 
ENDROOT
BRANCH   1   2
ATOM      2  C   UNL     1      46.177   6.630  12.686  0.00  0.00    +0.000 A 
ATOM      3  C   UNL     1      45.870   6.445  11.332  0.00  0.00    +0.000 A 
ATOM      4  C   UNL     1      45.298   5.248  10.886  0.00  0.00    +0.000 A 
ATOM      5  C   UNL     1      45.018   4.208  11.784  0.00  0.00    +0.000 A 
ATOM      6  C   UNL     1      45.335   4.391  13.138  0.00  0.00    +0.000 A 
ATOM      7  C   UNL     1      45.902   5.590  13.583  0.00  0.00    +0.000 A 
BRANCH   5   8
ATOM      8  C   UNL     1      44.350   2.933  11.312  0.00  0.00    +0.000 C 
BRANCH   8   9
ATOM      9  N   UNL     1      44.019   2.992   9.889  0.00  0.00    +0.000 NA
ATOM     10  H   UNL     1      44.517   3.780   9.471  0.00  0.00    +0.000 HD
BRANCH   9  11
ATOM     11  C   UNL     1      44.448   1.769   9.193  0.00  0.00    +0.000 C 
BRANCH  11  12
ATOM     12  C   UNL     1      45.616   2.024   8.257  0.00  0.00    +0.000 A 
ATOM     13  C   UNL     1      45.803   3.286   7.696  0.00  0.00    +0.000 A 
ATOM     14  C   UNL     1      46.891   3.497   6.851  0.00  0.00    +0.000 A 
ATOM     15  C   UNL     1      47.755   2.445   6.582  0.00  0.00    +0.000 A 
ATOM     16  C   UNL     1      47.497   1.219   7.173  0.00  0.00    +0.000 A 
ATOM     17  N   UNL     1      46.454   0.985   8.002  0.00  0.00    +0.000 NA
ENDBRANCH  11  12
ENDBRANCH   9  11
ENDBRANCH   8   9
ENDBRANCH   5   8
ENDBRANCH   1   2
BRANCH   1  20
ATOM     18  C   UNL     1      49.083   7.535  13.800  0.00  0.00    +0.000 C 
ATOM     19  O   UNL     1      49.419   7.529  12.618  0.00  0.00    +0.000 OA
ATOM     20  N   UNL     1      47.776   7.728  14.161  0.00  0.00    +0.000 N 
ATOM     21  H   UNL     1      47.501   7.680  15.133  0.00  0.00    +0.000 HD
BRANCH  18  29
ATOM     22  C   UNL     1      49.206   5.485  16.574  0.00  0.00    +0.000 A 
ATOM     23  N   UNL     1      49.518   4.809  17.699  0.00  0.00    +0.000 NA
ATOM     24  C   UNL     1      50.676   5.087  18.303  0.00  0.00    +0.000 A 
ATOM     25  N   UNL     1      51.583   5.978  17.916  0.00  0.00    +0.000 NA
ATOM     26  C   UNL     1      51.241   6.622  16.788  0.00  0.00    +0.000 A 
ATOM     27  S   UNL     1      52.286   7.797  16.150  0.00  0.00    +0.000 S 
ATOM     28  C   UNL     1      51.228   8.106  14.858  0.00  0.00    +0.000 A 
ATOM     29  C   UNL     1      50.072   7.332  14.875  0.00  0.00    +0.000 A 
ATOM     30  C   UNL     1      50.081   6.444  16.037  0.00  0.00    +0.000 A 
BRANCH  22  32
ATOM     31  C   UNL     1      47.540   3.871  16.304  0.00  0.00    +0.000 C 
ATOM     32  O   UNL     1      48.028   5.161  15.934  0.00  0.00    +0.000 OA
ENDBRANCH  22  32
ENDBRANCH  18  29
ENDBRANCH   1  20
TORSDOF 8
ENDMDL
MODEL 4
REMARK VINA RESULT:    -7.346      1.750      3.153
REMARK INTER + INTRA:         -11.983
REMARK INTER:                 -10.809
REMARK INTRA:                  -1.173
REMARK UNBOUND:                -1.201
REMARK  Name = 
REMARK  9 active torsions:
REMARK  status: ('A' for Active; 'I' for Inactive)
REMARK    1  A    between atoms: C_1  and  O_2
REMARK    2  A    between atoms: O_2  and  C_3
REMARK    3  A    between atoms: C_10  and  C_11
REMARK    4  A    between atoms: N_13  and  C_14
REMARK    5  A    between atoms: C_14  and  C_15
REMARK    6  A    between atoms: C_18  and  C_19
REMARK    7  A    between atoms: C_19  and  N_20
REMARK    8  A    between atoms: N_20  and  C_21
REMARK    9  A    between atoms: C_21  and  C_22
REMARK                            x       y       z     vdW  Elec       q    Type
REMARK                         _______ _______ _______ _____ _____    ______ ____
ROOT
ATOM      1  C   UNL     1      47.279   4.056  14.745  0.00  0.00    +0.000 C 
ENDROOT
BRANCH   1   2
ATOM      2  C   UNL     1      46.362   4.310  13.575  0.00  0.00    +0.000 A 
ATOM      3  C   UNL     1      46.040   5.616  13.189  0.00  0.00    +0.000 A 
ATOM      4  C   UNL     1      45.148   5.850  12.135  0.00  0.00    +0.000 A 
ATOM      5  C   UNL     1      44.558   4.783  11.444  0.00  0.00    +0.000 A 
ATOM      6  C   UNL     1      44.890   3.475  11.825  0.00  0.00    +0.000 A 
ATOM      7  C   UNL     1      45.777   3.242  12.882  0.00  0.00    +0.000 A 
BRANCH   5   8
ATOM      8  C   UNL     1      43.552   5.035  10.339  0.00  0.00    +0.000 C 
BRANCH   8   9
ATOM      9  N   UNL     1      43.896   4.305   9.120  0.00  0.00    +0.000 NA
ATOM     10  H   UNL     1      43.259   4.595   8.376  0.00  0.00    +0.000 HD
BRANCH   9  11
ATOM     11  C   UNL     1      45.267   4.614   8.684  0.00  0.00    +0.000 C 
BRANCH  11  12
ATOM     12  C   UNL     1      45.926   3.436   7.990  0.00  0.00    +0.000 A 
ATOM     13  C   UNL     1      46.610   3.622   6.789  0.00  0.00    +0.000 A 
ATOM     14  C   UNL     1      47.217   2.526   6.179  0.00  0.00    +0.000 A 
ATOM     15  C   UNL     1      47.118   1.277   6.775  0.00  0.00    +0.000 A 
ATOM     16  C   UNL     1      46.416   1.173   7.964  0.00  0.00    +0.000 A 
ATOM     17  N   UNL     1      45.821   2.218   8.584  0.00  0.00    +0.000 NA
ENDBRANCH  11  12
ENDBRANCH   9  11
ENDBRANCH   8   9
ENDBRANCH   5   8
ENDBRANCH   1   2
BRANCH   1  20
ATOM     18  C   UNL     1      48.525   5.342  16.427  0.00  0.00    +0.000 C 
ATOM     19  O   UNL     1      49.232   4.369  16.677  0.00  0.00    +0.000 OA
ATOM     20  N   UNL     1      47.531   5.270  15.486  0.00  0.00    +0.000 N 
ATOM     21  H   UNL     1      46.920   6.059  15.324  0.00  0.00    +0.000 HD
BRANCH  18  29
ATOM     22  C   UNL     1      48.726   8.628  15.391  0.00  0.00    +0.000 A 
ATOM     23  N   UNL     1      48.832   9.968  15.274  0.00  0.00    +0.000 NA
ATOM     24  C   UNL     1      49.017  10.687  16.384  0.00  0.00    +0.000 A 
ATOM     25  N   UNL     1      49.114  10.224  17.626  0.00  0.00    +0.000 NA
ATOM     26  C   UNL     1      48.994   8.888  17.701  0.00  0.00    +0.000 A 
ATOM     27  S   UNL     1      49.093   8.127  19.215  0.00  0.00    +0.000 S 
ATOM     28  C   UNL     1      48.871   6.597  18.513  0.00  0.00    +0.000 A 
ATOM     29  C   UNL     1      48.713   6.624  17.132  0.00  0.00    +0.000 A 
ATOM     30  C   UNL     1      48.790   8.001  16.647  0.00  0.00    +0.000 A 
BRANCH  22  32
ATOM     31  C   UNL     1      49.694   7.581  13.542  0.00  0.00    +0.000 C 
ATOM     32  O   UNL     1      48.492   7.899  14.244  0.00  0.00    +0.000 OA
ENDBRANCH  22  32
ENDBRANCH  18  29
ENDBRANCH   1  20
TORSDOF 8
ENDMDL
MODEL 5
REMARK VINA RESULT:    -6.970      1.659      2.039
REMARK INTER + INTRA:         -11.430
REMARK INTER:                 -10.251
REMARK INTRA:                  -1.179
REMARK UNBOUND:                -1.201
REMARK  Name = 
REMARK  9 active torsions:
REMARK  status: ('A' for Active; 'I' for Inactive)
REMARK    1  A    between atoms: C_1  and  O_2
REMARK    2  A    between atoms: O_2  and  C_3
REMARK    3  A    between atoms: C_10  and  C_11
REMARK    4  A    between atoms: N_13  and  C_14
REMARK    5  A    between atoms: C_14  and  C_15
REMARK    6  A    between atoms: C_18  and  C_19
REMARK    7  A    between atoms: C_19  and  N_20
REMARK    8  A    between atoms: N_20  and  C_21
REMARK    9  A    between atoms: C_21  and  C_22
REMARK                            x       y       z     vdW  Elec       q    Type
REMARK                         _______ _______ _______ _____ _____    ______ ____
ROOT
ATOM      1  C   UNL     1      47.990   8.829  13.808  0.00  0.00    +0.000 C 
ENDROOT
BRANCH   1   2
ATOM      2  C   UNL     1      47.020   7.938  13.075  0.00  0.00    +0.000 A 
ATOM      3  C   UNL     1      47.402   6.658  12.655  0.00  0.00    +0.000 A 
ATOM      4  C   UNL     1      46.517   5.851  11.929  0.00  0.00    +0.000 A 
ATOM      5  C   UNL     1      45.231   6.306  11.606  0.00  0.00    +0.000 A 
ATOM      6  C   UNL     1      44.846   7.583  12.037  0.00  0.00    +0.000 A 
ATOM      7  C   UNL     1      45.733   8.392  12.758  0.00  0.00    +0.000 A 
BRANCH   5   8
ATOM      8  C   UNL     1      44.292   5.455  10.776  0.00  0.00    +0.000 C 
BRANCH   8   9
ATOM      9  N   UNL     1      44.722   4.058  10.736  0.00  0.00    +0.000 NA
ATOM     10  H   UNL     1      44.352   3.580  11.559  0.00  0.00    +0.000 HD
BRANCH   9  11
ATOM     11  C   UNL     1      44.197   3.374   9.544  0.00  0.00    +0.000 C 
BRANCH  11  12
ATOM     12  C   UNL     1      45.297   3.007   8.565  0.00  0.00    +0.000 A 
ATOM     13  C   UNL     1      45.812   1.710   8.541  0.00  0.00    +0.000 A 
ATOM     14  C   UNL     1      46.812   1.396   7.624  0.00  0.00    +0.000 A 
ATOM     15  C   UNL     1      47.278   2.380   6.764  0.00  0.00    +0.000 A 
ATOM     16  C   UNL     1      46.721   3.644   6.853  0.00  0.00    +0.000 A 
ATOM     17  N   UNL     1      45.745   3.980   7.728  0.00  0.00    +0.000 NA
ENDBRANCH  11  12
ENDBRANCH   9  11
ENDBRANCH   8   9
ENDBRANCH   5   8
ENDBRANCH   1   2
BRANCH   1  20
ATOM     18  C   UNL     1      48.654   8.487  16.149  0.00  0.00    +0.000 C 
ATOM     19  O   UNL     1      48.011   9.475  16.497  0.00  0.00    +0.000 OA
ATOM     20  N   UNL     1      48.698   8.101  14.835  0.00  0.00    +0.000 N 
ATOM     21  H   UNL     1      49.271   7.318  14.550  0.00  0.00    +0.000 HD
BRANCH  18  29
ATOM     22  C   UNL     1      48.990   5.096  16.692  0.00  0.00    +0.000 A 
ATOM     23  N   UNL     1      49.302   3.855  17.122  0.00  0.00    +0.000 NA
ATOM     24  C   UNL     1      50.117   3.736  18.172  0.00  0.00    +0.000 A 
ATOM     25  N   UNL     1      50.672   4.724  18.866  0.00  0.00    +0.000 NA
ATOM     26  C   UNL     1      50.345   5.942  18.403  0.00  0.00    +0.000 A 
ATOM     27  S   UNL     1      50.965   7.321  19.173  0.00  0.00    +0.000 S 
ATOM     28  C   UNL     1      50.154   8.349  18.092  0.00  0.00    +0.000 A 
ATOM     29  C   UNL     1      49.406   7.681  17.129  0.00  0.00    +0.000 A 
ATOM     30  C   UNL     1      49.520   6.236  17.320  0.00  0.00    +0.000 A 
BRANCH  22  32
ATOM     31  C   UNL     1      47.261   4.123  15.461  0.00  0.00    +0.000 C 
ATOM     32  O   UNL     1      48.181   5.207  15.580  0.00  0.00    +0.000 OA
ENDBRANCH  22  32
ENDBRANCH  18  29
ENDBRANCH   1  20
TORSDOF 8
ENDMDL
MODEL 6
REMARK VINA RESULT:    -6.823      3.332      8.323
REMARK INTER + INTRA:         -11.215
REMARK INTER:                  -9.710
REMARK INTRA:                  -1.505
REMARK UNBOUND:                -1.201
REMARK  Name = 
REMARK  9 active torsions:
REMARK  status: ('A' for Active; 'I' for Inactive)
REMARK    1  A    between atoms: C_1  and  O_2
REMARK    2  A    between atoms: O_2  and  C_3
REMARK    3  A    between atoms: C_10  and  C_11
REMARK    4  A    between atoms: N_13  and  C_14
REMARK    5  A    between atoms: C_14  and  C_15
REMARK    6  A    between atoms: C_18  and  C_19
REMARK    7  A    between atoms: C_19  and  N_20
REMARK    8  A    between atoms: N_20  and  C_21
REMARK    9  A    between atoms: C_21  and  C_22
REMARK                            x       y       z     vdW  Elec       q    Type
REMARK                         _______ _______ _______ _____ _____    ______ ____
ROOT
ATOM      1  C   UNL     1      48.352   8.002  11.945  0.00  0.00    +0.000 C 
ENDROOT
BRANCH   1   2
ATOM      2  C   UNL     1      48.420   7.935  13.449  0.00  0.00    +0.000 A 
ATOM      3  C   UNL     1      47.929   8.985  14.235  0.00  0.00    +0.000 A 
ATOM      4  C   UNL     1      48.039   8.944  15.630  0.00  0.00    +0.000 A 
ATOM      5  C   UNL     1      48.644   7.854  16.271  0.00  0.00    +0.000 A 
ATOM      6  C   UNL     1      49.127   6.800  15.484  0.00  0.00    +0.000 A 
ATOM      7  C   UNL     1      49.021   6.843  14.089  0.00  0.00    +0.000 A 
BRANCH   5   8
ATOM      8  C   UNL     1      48.812   7.835  17.776  0.00  0.00    +0.000 C 
BRANCH   8   9
ATOM      9  N   UNL     1      47.585   7.417  18.451  0.00  0.00    +0.000 NA
ATOM     10  H   UNL     1      46.900   7.144  17.744  0.00  0.00    +0.000 HD
BRANCH   9  11
ATOM     11  C   UNL     1      47.824   6.252  19.317  0.00  0.00    +0.000 C 
BRANCH  11  12
ATOM     12  C   UNL     1      48.074   4.987  18.517  0.00  0.00    +0.000 A 
ATOM     13  C   UNL     1      49.351   4.430  18.466  0.00  0.00    +0.000 A 
ATOM     14  C   UNL     1      49.551   3.260  17.735  0.00  0.00    +0.000 A 
ATOM     15  C   UNL     1      48.478   2.684  17.070  0.00  0.00    +0.000 A 
ATOM     16  C   UNL     1      47.242   3.301  17.165  0.00  0.00    +0.000 A 
ATOM     17  N   UNL     1      47.015   4.432  17.871  0.00  0.00    +0.000 NA
ENDBRANCH  11  12
ENDBRANCH   9  11
ENDBRANCH   8   9
ENDBRANCH   5   8
ENDBRANCH   1   2
BRANCH   1  20
ATOM     18  C   UNL     1      46.260   6.879  11.313  0.00  0.00    +0.000 C 
ATOM     19  O   UNL     1      45.602   7.841  11.701  0.00  0.00    +0.000 OA
ATOM     20  N   UNL     1      47.628   6.877  11.401  0.00  0.00    +0.000 N 
ATOM     21  H   UNL     1      48.158   6.060  11.128  0.00  0.00    +0.000 HD
BRANCH  18  29
ATOM     22  C   UNL     1      44.450   4.268  12.662  0.00  0.00    +0.000 A 
ATOM     23  N   UNL     1      43.722   3.159  12.909  0.00  0.00    +0.000 NA
ATOM     24  C   UNL     1      43.396   2.375  11.879  0.00  0.00    +0.000 A 
ATOM     25  N   UNL     1      43.715   2.562  10.603  0.00  0.00    +0.000 NA
ATOM     26  C   UNL     1      44.431   3.680  10.397  0.00  0.00    +0.000 A 
ATOM     27  S   UNL     1      44.926   4.074   8.823  0.00  0.00    +0.000 S 
ATOM     28  C   UNL     1      45.704   5.482   9.368  0.00  0.00    +0.000 A 
ATOM     29  C   UNL     1      45.606   5.688  10.740  0.00  0.00    +0.000 A 
ATOM     30  C   UNL     1      44.843   4.602  11.355  0.00  0.00    +0.000 A 
BRANCH  22  32
ATOM     31  C   UNL     1      46.063   4.883  14.235  0.00  0.00    +0.000 C 
ATOM     32  O   UNL     1      44.746   5.094  13.727  0.00  0.00    +0.000 OA
ENDBRANCH  22  32
ENDBRANCH  18  29
ENDBRANCH   1  20
TORSDOF 8
ENDMDL
MODEL 7
REMARK VINA RESULT:    -6.602      3.216      4.928
REMARK INTER + INTRA:         -10.890
REMARK INTER:                  -9.703
REMARK INTRA:                  -1.187
REMARK UNBOUND:                -1.201
REMARK  Name = 
REMARK  9 active torsions:
REMARK  status: ('A' for Active; 'I' for Inactive)
REMARK    1  A    between atoms: C_1  and  O_2
REMARK    2  A    between atoms: O_2  and  C_3
REMARK    3  A    between atoms: C_10  and  C_11
REMARK    4  A    between atoms: N_13  and  C_14
REMARK    5  A    between atoms: C_14  and  C_15
REMARK    6  A    between atoms: C_18  and  C_19
REMARK    7  A    between atoms: C_19  and  N_20
REMARK    8  A    between atoms: N_20  and  C_21
REMARK    9  A    between atoms: C_21  and  C_22
REMARK                            x       y       z     vdW  Elec       q    Type
REMARK                         _______ _______ _______ _____ _____    ______ ____
ROOT
ATOM      1  C   UNL     1      47.749   3.327  17.249  0.00  0.00    +0.000 C 
ENDROOT
BRANCH   1   2
ATOM      2  C   UNL     1      47.661   4.277  16.081  0.00  0.00    +0.000 A 
ATOM      3  C   UNL     1      48.304   5.520  16.120  0.00  0.00    +0.000 A 
ATOM      4  C   UNL     1      48.179   6.422  15.057  0.00  0.00    +0.000 A 
ATOM      5  C   UNL     1      47.408   6.102  13.931  0.00  0.00    +0.000 A 
ATOM      6  C   UNL     1      46.774   4.853  13.889  0.00  0.00    +0.000 A 
ATOM      7  C   UNL     1      46.894   3.954  14.954  0.00  0.00    +0.000 A 
BRANCH   5   8
ATOM      8  C   UNL     1      47.229   7.099  12.804  0.00  0.00    +0.000 C 
BRANCH   8   9
ATOM      9  N   UNL     1      47.103   6.432  11.509  0.00  0.00    +0.000 NA
ATOM     10  H   UNL     1      47.365   5.451  11.620  0.00  0.00    +0.000 HD
BRANCH   9  11
ATOM     11  C   UNL     1      45.716   6.476  11.021  0.00  0.00    +0.000 C 
BRANCH  11  12
ATOM     12  C   UNL     1      45.336   5.214  10.267  0.00  0.00    +0.000 A 
ATOM     13  C   UNL     1      44.633   4.196  10.912  0.00  0.00    +0.000 A 
ATOM     14  C   UNL     1      44.285   3.054  10.194  0.00  0.00    +0.000 A 
ATOM     15  C   UNL     1      44.652   2.953   8.860  0.00  0.00    +0.000 A 
ATOM     16  C   UNL     1      45.354   4.004   8.293  0.00  0.00    +0.000 A 
ATOM     17  N   UNL     1      45.702   5.128   8.961  0.00  0.00    +0.000 NA
ENDBRANCH  11  12
ENDBRANCH   9  11
ENDBRANCH   8   9
ENDBRANCH   5   8
ENDBRANCH   1   2
BRANCH   1  20
ATOM     18  C   UNL     1      49.980   2.322  17.023  0.00  0.00    +0.000 C 
ATOM     19  O   UNL     1      49.617   1.686  16.037  0.00  0.00    +0.000 OA
ATOM     20  N   UNL     1      49.115   3.156  17.684  0.00  0.00    +0.000 N 
ATOM     21  H   UNL     1      49.408   3.636  18.524  0.00  0.00    +0.000 HD
BRANCH  18  29
ATOM     22  C   UNL     1      52.182   4.568  18.446  0.00  0.00    +0.000 A 
ATOM     23  N   UNL     1      53.220   5.211  19.019  0.00  0.00    +0.000 NA
ATOM     24  C   UNL     1      54.331   4.517  19.274  0.00  0.00    +0.000 A 
ATOM     25  N   UNL     1      54.542   3.229  19.019  0.00  0.00    +0.000 NA
ATOM     26  C   UNL     1      53.483   2.623  18.457  0.00  0.00    +0.000 A 
ATOM     27  S   UNL     1      53.579   0.975  18.063  0.00  0.00    +0.000 S 
ATOM     28  C   UNL     1      51.994   0.979  17.454  0.00  0.00    +0.000 A 
ATOM     29  C   UNL     1      51.358   2.214  17.537  0.00  0.00    +0.000 A 
ATOM     30  C   UNL     1      52.256   3.199  18.137  0.00  0.00    +0.000 A 
BRANCH  22  32
ATOM     31  C   UNL     1      50.717   6.173  19.300  0.00  0.00    +0.000 C 
ATOM     32  O   UNL     1      51.023   5.284  18.226  0.00  0.00    +0.000 OA
ENDBRANCH  22  32
ENDBRANCH  18  29
ENDBRANCH   1  20
TORSDOF 8
ENDMDL
MODEL 8
REMARK VINA RESULT:    -6.142      3.455      8.413
REMARK INTER + INTRA:         -10.216
REMARK INTER:                  -8.588
REMARK INTRA:                  -1.627
REMARK UNBOUND:                -1.201
REMARK  Name = 
REMARK  9 active torsions:
REMARK  status: ('A' for Active; 'I' for Inactive)
REMARK    1  A    between atoms: C_1  and  O_2
REMARK    2  A    between atoms: O_2  and  C_3
REMARK    3  A    between atoms: C_10  and  C_11
REMARK    4  A    between atoms: N_13  and  C_14
REMARK    5  A    between atoms: C_14  and  C_15
REMARK    6  A    between atoms: C_18  and  C_19
REMARK    7  A    between atoms: C_19  and  N_20
REMARK    8  A    between atoms: N_20  and  C_21
REMARK    9  A    between atoms: C_21  and  C_22
REMARK                            x       y       z     vdW  Elec       q    Type
REMARK                         _______ _______ _______ _____ _____    ______ ____
ROOT
ATOM      1  C   UNL     1      48.041   9.053  14.143  0.00  0.00    +0.000 C 
ENDROOT
BRANCH   1   2
ATOM      2  C   UNL     1      48.377   8.669  15.561  0.00  0.00    +0.000 A 
ATOM      3  C   UNL     1      49.030   7.462  15.840  0.00  0.00    +0.000 A 
ATOM      4  C   UNL     1      49.295   7.081  17.161  0.00  0.00    +0.000 A 
ATOM      5  C   UNL     1      48.912   7.898  18.234  0.00  0.00    +0.000 A 
ATOM      6  C   UNL     1      48.267   9.111  17.953  0.00  0.00    +0.000 A 
ATOM      7  C   UNL     1      47.998   9.488  16.632  0.00  0.00    +0.000 A 
BRANCH   5   8
ATOM      8  C   UNL     1      49.150   7.463  19.665  0.00  0.00    +0.000 C 
BRANCH   8   9
ATOM      9  N   UNL     1      48.221   6.410  20.070  0.00  0.00    +0.000 NA
ATOM     10  H   UNL     1      47.662   6.138  19.260  0.00  0.00    +0.000 HD
BRANCH   9  11
ATOM     11  C   UNL     1      48.942   5.216  20.539  0.00  0.00    +0.000 C 
BRANCH  11  12
ATOM     12  C   UNL     1      49.492   4.392  19.390  0.00  0.00    +0.000 A 
ATOM     13  C   UNL     1      48.632   3.629  18.599  0.00  0.00    +0.000 A 
ATOM     14  C   UNL     1      49.160   2.892  17.541  0.00  0.00    +0.000 A 
ATOM     15  C   UNL     1      50.528   2.926  17.306  0.00  0.00    +0.000 A 
ATOM     16  C   UNL     1      51.316   3.702  18.140  0.00  0.00    +0.000 A 
ATOM     17  N   UNL     1      50.832   4.433  19.171  0.00  0.00    +0.000 NA
ENDBRANCH  11  12
ENDBRANCH   9  11
ENDBRANCH   8   9
ENDBRANCH   5   8
ENDBRANCH   1   2
BRANCH   1  20
ATOM     18  C   UNL     1      46.960   7.387  12.697  0.00  0.00    +0.000 C 
ATOM     19  O   UNL     1      48.040   7.097  12.189  0.00  0.00    +0.000 OA
ATOM     20  N   UNL     1      46.873   8.348  13.670  0.00  0.00    +0.000 N 
ATOM     21  H   UNL     1      45.973   8.617  14.046  0.00  0.00    +0.000 HD
BRANCH  18  29
ATOM     22  C   UNL     1      45.831   4.129  12.865  0.00  0.00    +0.000 A 
ATOM     23  N   UNL     1      45.148   2.967  12.805  0.00  0.00    +0.000 NA
ATOM     24  C   UNL     1      43.933   2.976  12.252  0.00  0.00    +0.000 A 
ATOM     25  N   UNL     1      43.300   4.025  11.737  0.00  0.00    +0.000 NA
ATOM     26  C   UNL     1      44.009   5.162  11.823  0.00  0.00    +0.000 A 
ATOM     27  S   UNL     1      43.351   6.602  11.211  0.00  0.00    +0.000 S 
ATOM     28  C   UNL     1      44.733   7.481  11.659  0.00  0.00    +0.000 A 
ATOM     29  C   UNL     1      45.714   6.716  12.280  0.00  0.00    +0.000 A 
ATOM     30  C   UNL     1      45.277   5.323  12.374  0.00  0.00    +0.000 A 
BRANCH  22  32
ATOM     31  C   UNL     1      46.992   4.409  14.871  0.00  0.00    +0.000 C 
ATOM     32  O   UNL     1      47.068   4.117  13.476  0.00  0.00    +0.000 OA
ENDBRANCH  22  32
ENDBRANCH  18  29
ENDBRANCH   1  20
TORSDOF 8
ENDMDL
MODEL 9
REMARK VINA RESULT:    -5.884      2.667      3.854
REMARK INTER + INTRA:          -9.837
REMARK INTER:                  -8.726
REMARK INTRA:                  -1.110
REMARK UNBOUND:                -1.201
REMARK  Name = 
REMARK  9 active torsions:
REMARK  status: ('A' for Active; 'I' for Inactive)
REMARK    1  A    between atoms: C_1  and  O_2
REMARK    2  A    between atoms: O_2  and  C_3
REMARK    3  A    between atoms: C_10  and  C_11
REMARK    4  A    between atoms: N_13  and  C_14
REMARK    5  A    between atoms: C_14  and  C_15
REMARK    6  A    between atoms: C_18  and  C_19
REMARK    7  A    between atoms: C_19  and  N_20
REMARK    8  A    between atoms: N_20  and  C_21
REMARK    9  A    between atoms: C_21  and  C_22
REMARK                            x       y       z     vdW  Elec       q    Type
REMARK                         _______ _______ _______ _____ _____    ______ ____
ROOT
ATOM      1  C   UNL     1      49.660   7.967  16.348  0.00  0.00    +0.000 C 
ENDROOT
BRANCH   1   2
ATOM      2  C   UNL     1      48.666   7.764  15.234  0.00  0.00    +0.000 A 
ATOM      3  C   UNL     1      48.019   8.858  14.645  0.00  0.00    +0.000 A 
ATOM      4  C   UNL     1      47.057   8.665  13.646  0.00  0.00    +0.000 A 
ATOM      5  C   UNL     1      46.720   7.374  13.213  0.00  0.00    +0.000 A 
ATOM      6  C   UNL     1      47.376   6.282  13.797  0.00  0.00    +0.000 A 
ATOM      7  C   UNL     1      48.333   6.475  14.800  0.00  0.00    +0.000 A 
BRANCH   5   8
ATOM      8  C   UNL     1      45.642   7.162  12.171  0.00  0.00    +0.000 C 
BRANCH   8   9
ATOM      9  N   UNL     1      45.682   5.809  11.620  0.00  0.00    +0.000 NA
ATOM     10  H   UNL     1      44.853   5.303  11.936  0.00  0.00    +0.000 HD
BRANCH   9  11
ATOM     11  C   UNL     1      45.661   5.832  10.149  0.00  0.00    +0.000 C 
BRANCH  11  12
ATOM     12  C   UNL     1      45.384   4.461   9.560  0.00  0.00    +0.000 A 
ATOM     13  C   UNL     1      45.785   4.163   8.258  0.00  0.00    +0.000 A 
ATOM     14  C   UNL     1      45.530   2.893   7.745  0.00  0.00    +0.000 A 
ATOM     15  C   UNL     1      44.876   1.960   8.537  0.00  0.00    +0.000 A 
ATOM     16  C   UNL     1      44.504   2.334   9.817  0.00  0.00    +0.000 A 
ATOM     17  N   UNL     1      44.742   3.557  10.346  0.00  0.00    +0.000 NA
ENDBRANCH  11  12
ENDBRANCH   9  11
ENDBRANCH   8   9
ENDBRANCH   5   8
ENDBRANCH   1   2
BRANCH   1  20
ATOM     18  C   UNL     1      50.839   6.428  17.859  0.00  0.00    +0.000 C 
ATOM     19  O   UNL     1      50.582   7.145  18.823  0.00  0.00    +0.000 OA
ATOM     20  N   UNL     1      50.422   6.766  16.597  0.00  0.00    +0.000 N 
ATOM     21  H   UNL     1      50.683   6.197  15.803  0.00  0.00    +0.000 HD
BRANCH  18  29
ATOM     22  C   UNL     1      50.211   3.123  17.090  0.00  0.00    +0.000 A 
ATOM     23  N   UNL     1      50.237   1.787  16.898  0.00  0.00    +0.000 NA
ATOM     24  C   UNL     1      51.319   1.113  17.292  0.00  0.00    +0.000 A 
ATOM     25  N   UNL     1      52.406   1.616  17.869  0.00  0.00    +0.000 NA
ATOM     26  C   UNL     1      52.346   2.947  18.034  0.00  0.00    +0.000 A 
ATOM     27  S   UNL     1      53.650   3.757  18.758  0.00  0.00    +0.000 S 
ATOM     28  C   UNL     1      52.862   5.254  18.615  0.00  0.00    +0.000 A 
ATOM     29  C   UNL     1      51.609   5.180  18.018  0.00  0.00    +0.000 A 
ATOM     30  C   UNL     1      51.300   3.793  17.673  0.00  0.00    +0.000 A 
BRANCH  22  32
ATOM     31  C   UNL     1      47.994   3.706  17.529  0.00  0.00    +0.000 C 
ATOM     32  O   UNL     1      49.106   3.816  16.642  0.00  0.00    +0.000 OA
ENDBRANCH  22  32
ENDBRANCH  18  29
ENDBRANCH   1  20
TORSDOF 8
ENDMDL
