MODEL 1
REMARK VINA RESULT:    -7.993      0.000      0.000
REMARK INTER + INTRA:         -10.278
REMARK INTER:                 -10.096
REMARK INTRA:                  -0.181
REMARK UNBOUND:                -0.181
REMARK  Name = 
REMARK  5 active torsions:
REMARK  status: ('A' for Active; 'I' for Inactive)
REMARK    1  A    between atoms: N_1  and  C_2
REMARK    2  A    between atoms: C_2  and  C_3
REMARK    3  A    between atoms: C_6  and  C_7
REMARK    4  A    between atoms: C_7  and  N_8
REMARK    5  A    between atoms: C_12  and  C_13
REMARK                            x       y       z     vdW  Elec       q    Type
REMARK                         _______ _______ _______ _____ _____    ______ ____
ROOT
ATOM      1  N   UNL     1      44.519   5.570  10.503  0.00  0.00    +0.000 N 
ATOM      2  C   UNL     1      45.232   5.284  11.681  0.00  0.00    +0.000 A 
ATOM      3  C   UNL     1      45.915   6.308  12.355  0.00  0.00    +0.000 A 
ATOM      4  N   UNL     1      46.631   6.129  13.499  0.00  0.00    +0.000 NA
ATOM      5  C   UNL     1      46.647   4.845  13.952  0.00  0.00    +0.000 A 
ATOM      6  C   UNL     1      45.990   3.819  13.294  0.00  0.00    +0.000 A 
ATOM      7  N   UNL     1      45.283   4.020  12.154  0.00  0.00    +0.000 NA
ATOM      8  H   UNL     1      43.834   6.298  10.684  0.00  0.00    +0.000 HD
ENDROOT
BRANCH   5   9
ATOM      9  C   UNL     1      47.395   4.548  15.203  0.00  0.00    +0.000 C 
ATOM     10  N   UNL     1      47.858   5.630  15.898  0.00  0.00    +0.000 N 
ATOM     11  O   UNL     1      47.584   3.403  15.594  0.00  0.00    +0.000 OA
ATOM     12  H   UNL     1      47.694   6.569  15.551  0.00  0.00    +0.000 HD
ATOM     13  H   UNL     1      48.374   5.483  16.753  0.00  0.00    +0.000 HD
ENDBRANCH   5   9
BRANCH   1  14
ATOM     14  C   UNL     1      43.888   4.389   9.910  0.00  0.00    +0.000 C 
BRANCH  14  18
ATOM     15  C   UNL     1      46.654   2.156   7.414  0.00  0.00    +0.000 A 
ATOM     16  C   UNL     1      46.545   3.547   7.274  0.00  0.00    +0.000 A 
ATOM     17  C   UNL     1      45.662   4.280   8.074  0.00  0.00    +0.000 A 
ATOM     18  C   UNL     1      44.847   3.634   9.013  0.00  0.00    +0.000 A 
ATOM     19  C   UNL     1      44.983   2.246   9.174  0.00  0.00    +0.000 A 
ATOM     20  C   UNL     1      45.872   1.514   8.381  0.00  0.00    +0.000 A 
BRANCH  15  21
ATOM     21  C   UNL     1      47.573   1.362   6.520  0.00  0.00    +0.000 C 
BRANCH  21  22
ATOM     22  N   UNL     1      48.603   2.199   5.916  0.00  0.00    +0.000 NA
ATOM     23  H   UNL     1      48.346   2.395   4.951  0.00  0.00    +0.000 HD
ATOM     24  H   UNL     1      49.474   1.671   5.882  0.00  0.00    +0.000 HD
ENDBRANCH  21  22
ENDBRANCH  15  21
ENDBRANCH  14  18
ENDBRANCH   1  14
TORSDOF 5
ENDMDL
MODEL 2
REMARK VINA RESULT:    -7.923      2.057      2.646
REMARK INTER + INTRA:         -10.189
REMARK INTER:                 -10.086
REMARK INTRA:                  -0.103
REMARK UNBOUND:                -0.181
REMARK  Name = 
REMARK  5 active torsions:
REMARK  status: ('A' for Active; 'I' for Inactive)
REMARK    1  A    between atoms: N_1  and  C_2
REMARK    2  A    between atoms: C_2  and  C_3
REMARK    3  A    between atoms: C_6  and  C_7
REMARK    4  A    between atoms: C_7  and  N_8
REMARK    5  A    between atoms: C_12  and  C_13
REMARK                            x       y       z     vdW  Elec       q    Type
REMARK                         _______ _______ _______ _____ _____    ______ ____
ROOT
ATOM      1  N   UNL     1      45.062   3.161  11.604  0.00  0.00    +0.000 N 
ATOM      2  C   UNL     1      45.220   4.514  11.950  0.00  0.00    +0.000 A 
ATOM      3  C   UNL     1      45.992   4.870  13.066  0.00  0.00    +0.000 A 
ATOM      4  N   UNL     1      46.202   6.150  13.479  0.00  0.00    +0.000 NA
ATOM      5  C   UNL     1      45.583   7.091  12.714  0.00  0.00    +0.000 A 
ATOM      6  C   UNL     1      44.807   6.761  11.617  0.00  0.00    +0.000 A 
ATOM      7  N   UNL     1      44.610   5.477  11.224  0.00  0.00    +0.000 NA
ATOM      8  H   UNL     1      45.973   2.732  11.469  0.00  0.00    +0.000 HD
ENDROOT
BRANCH   5   9
ATOM      9  C   UNL     1      45.759   8.523  13.078  0.00  0.00    +0.000 C 
ATOM     10  N   UNL     1      46.698   8.788  14.036  0.00  0.00    +0.000 N 
ATOM     11  O   UNL     1      45.108   9.416  12.550  0.00  0.00    +0.000 OA
ATOM     12  H   UNL     1      47.220   8.032  14.463  0.00  0.00    +0.000 HD
ATOM     13  H   UNL     1      46.855   9.744  14.321  0.00  0.00    +0.000 HD
ENDBRANCH   5   9
BRANCH   1  14
ATOM     14  C   UNL     1      44.206   2.961  10.433  0.00  0.00    +0.000 C 
BRANCH  14  18
ATOM     15  C   UNL     1      46.584   2.704   6.808  0.00  0.00    +0.000 A 
ATOM     16  C   UNL     1      45.999   3.922   7.182  0.00  0.00    +0.000 A 
ATOM     17  C   UNL     1      45.235   4.021   8.349  0.00  0.00    +0.000 A 
ATOM     18  C   UNL     1      45.014   2.896   9.154  0.00  0.00    +0.000 A 
ATOM     19  C   UNL     1      45.628   1.686   8.795  0.00  0.00    +0.000 A 
ATOM     20  C   UNL     1      46.400   1.589   7.633  0.00  0.00    +0.000 A 
BRANCH  15  21
ATOM     21  C   UNL     1      47.370   2.588   5.526  0.00  0.00    +0.000 C 
BRANCH  21  22
ATOM     22  N   UNL     1      48.589   1.806   5.702  0.00  0.00    +0.000 NA
ATOM     23  H   UNL     1      48.514   1.267   6.562  0.00  0.00    +0.000 HD
ATOM     24  H   UNL     1      49.371   2.446   5.830  0.00  0.00    +0.000 HD
ENDBRANCH  21  22
ENDBRANCH  15  21
ENDBRANCH  14  18
ENDBRANCH   1  14
TORSDOF 5
ENDMDL
MODEL 3
REMARK VINA RESULT:    -7.918      1.498      1.891
REMARK INTER + INTRA:         -10.182
REMARK INTER:                  -9.960
REMARK INTRA:                  -0.222
REMARK UNBOUND:                -0.181
REMARK  Name = 
REMARK  5 active torsions:
REMARK  status: ('A' for Active; 'I' for Inactive)
REMARK    1  A    between atoms: N_1  and  C_2
REMARK    2  A    between atoms: C_2  and  C_3
REMARK    3  A    between atoms: C_6  and  C_7
REMARK    4  A    between atoms: C_7  and  N_8
REMARK    5  A    between atoms: C_12  and  C_13
REMARK                            x       y       z     vdW  Elec       q    Type
REMARK                         _______ _______ _______ _____ _____    ______ ____
ROOT
ATOM      1  N   UNL     1      44.986   2.870  11.820  0.00  0.00    +0.000 N 
ATOM      2  C   UNL     1      45.775   3.865  12.422  0.00  0.00    +0.000 A 
ATOM      3  C   UNL     1      46.533   3.566  13.564  0.00  0.00    +0.000 A 
ATOM      4  N   UNL     1      47.326   4.461  14.216  0.00  0.00    +0.000 NA
ATOM      5  C   UNL     1      47.324   5.709  13.671  0.00  0.00    +0.000 A 
ATOM      6  C   UNL     1      46.572   6.027  12.553  0.00  0.00    +0.000 A 
ATOM      7  N   UNL     1      45.788   5.119  11.919  0.00  0.00    +0.000 NA
ATOM      8  H   UNL     1      45.565   2.072  11.576  0.00  0.00    +0.000 HD
ENDROOT
BRANCH   5   9
ATOM      9  C   UNL     1      48.167   6.757  14.306  0.00  0.00    +0.000 C 
ATOM     10  N   UNL     1      47.579   7.979  14.475  0.00  0.00    +0.000 N 
ATOM     11  O   UNL     1      49.318   6.542  14.662  0.00  0.00    +0.000 OA
ATOM     12  H   UNL     1      46.626   8.136  14.166  0.00  0.00    +0.000 HD
ATOM     13  H   UNL     1      48.109   8.727  14.899  0.00  0.00    +0.000 HD
ENDBRANCH   5   9
BRANCH   1  14
ATOM     14  C   UNL     1      44.236   3.352  10.658  0.00  0.00    +0.000 C 
BRANCH  14  18
ATOM     15  C   UNL     1      46.526   2.753   7.017  0.00  0.00    +0.000 A 
ATOM     16  C   UNL     1      46.146   4.045   7.405  0.00  0.00    +0.000 A 
ATOM     17  C   UNL     1      45.412   4.254   8.577  0.00  0.00    +0.000 A 
ATOM     18  C   UNL     1      45.018   3.171   9.374  0.00  0.00    +0.000 A 
ATOM     19  C   UNL     1      45.429   1.882   9.000  0.00  0.00    +0.000 A 
ATOM     20  C   UNL     1      46.170   1.673   7.834  0.00  0.00    +0.000 A 
BRANCH  15  21
ATOM     21  C   UNL     1      47.278   2.525   5.729  0.00  0.00    +0.000 C 
BRANCH  21  22
ATOM     22  N   UNL     1      48.478   1.721   5.934  0.00  0.00    +0.000 NA
ATOM     23  H   UNL     1      49.229   2.325   6.260  0.00  0.00    +0.000 HD
ATOM     24  H   UNL     1      48.777   1.347   5.035  0.00  0.00    +0.000 HD
ENDBRANCH  21  22
ENDBRANCH  15  21
ENDBRANCH  14  18
ENDBRANCH   1  14
TORSDOF 5
ENDMDL
MODEL 4
REMARK VINA RESULT:    -7.321      2.721      6.851
REMARK INTER + INTRA:          -9.429
REMARK INTER:                  -9.261
REMARK INTRA:                  -0.168
REMARK UNBOUND:                -0.181
REMARK  Name = 
REMARK  5 active torsions:
REMARK  status: ('A' for Active; 'I' for Inactive)
REMARK    1  A    between atoms: N_1  and  C_2
REMARK    2  A    between atoms: C_2  and  C_3
REMARK    3  A    between atoms: C_6  and  C_7
REMARK    4  A    between atoms: C_7  and  N_8
REMARK    5  A    between atoms: C_12  and  C_13
REMARK                            x       y       z     vdW  Elec       q    Type
REMARK                         _______ _______ _______ _____ _____    ______ ____
ROOT
ATOM      1  N   UNL     1      43.886   3.462  10.477  0.00  0.00    +0.000 N 
ATOM      2  C   UNL     1      44.789   3.208   9.430  0.00  0.00    +0.000 A 
ATOM      3  C   UNL     1      45.180   1.891   9.143  0.00  0.00    +0.000 A 
ATOM      4  N   UNL     1      46.048   1.546   8.152  0.00  0.00    +0.000 NA
ATOM      5  C   UNL     1      46.533   2.603   7.443  0.00  0.00    +0.000 A 
ATOM      6  C   UNL     1      46.170   3.909   7.720  0.00  0.00    +0.000 A 
ATOM      7  N   UNL     1      45.304   4.231   8.714  0.00  0.00    +0.000 NA
ATOM      8  H   UNL     1      43.029   2.937  10.326  0.00  0.00    +0.000 HD
ENDROOT
BRANCH   5   9
ATOM      9  C   UNL     1      47.483   2.329   6.332  0.00  0.00    +0.000 C 
ATOM     10  N   UNL     1      47.386   3.149   5.243  0.00  0.00    +0.000 N 
ATOM     11  O   UNL     1      48.309   1.426   6.386  0.00  0.00    +0.000 OA
ATOM     12  H   UNL     1      46.690   3.886   5.218  0.00  0.00    +0.000 HD
ATOM     13  H   UNL     1      48.006   3.004   4.459  0.00  0.00    +0.000 HD
ENDBRANCH   5   9
BRANCH   1  14
ATOM     14  C   UNL     1      43.605   4.887  10.663  0.00  0.00    +0.000 C 
BRANCH  14  18
ATOM     15  C   UNL     1      46.642   6.859  13.060  0.00  0.00    +0.000 A 
ATOM     16  C   UNL     1      46.281   5.533  13.333  0.00  0.00    +0.000 A 
ATOM     17  C   UNL     1      45.307   4.883  12.567  0.00  0.00    +0.000 A 
ATOM     18  C   UNL     1      44.653   5.556  11.527  0.00  0.00    +0.000 A 
ATOM     19  C   UNL     1      45.041   6.873  11.234  0.00  0.00    +0.000 A 
ATOM     20  C   UNL     1      46.020   7.519  11.993  0.00  0.00    +0.000 A 
BRANCH  15  21
ATOM     21  C   UNL     1      47.659   7.573  13.915  0.00  0.00    +0.000 C 
BRANCH  21  22
ATOM     22  N   UNL     1      47.118   8.796  14.499  0.00  0.00    +0.000 NA
ATOM     23  H   UNL     1      46.305   9.087  13.960  0.00  0.00    +0.000 HD
ATOM     24  H   UNL     1      47.810   9.537  14.401  0.00  0.00    +0.000 HD
ENDBRANCH  21  22
ENDBRANCH  15  21
ENDBRANCH  14  18
ENDBRANCH   1  14
TORSDOF 5
ENDMDL
MODEL 5
REMARK VINA RESULT:    -6.590      2.065      3.558
REMARK INTER + INTRA:          -8.505
REMARK INTER:                  -8.207
REMARK INTRA:                  -0.297
REMARK UNBOUND:                -0.181
REMARK  Name = 
REMARK  5 active torsions:
REMARK  status: ('A' for Active; 'I' for Inactive)
REMARK    1  A    between atoms: N_1  and  C_2
REMARK    2  A    between atoms: C_2  and  C_3
REMARK    3  A    between atoms: C_6  and  C_7
REMARK    4  A    between atoms: C_7  and  N_8
REMARK    5  A    between atoms: C_12  and  C_13
REMARK                            x       y       z     vdW  Elec       q    Type
REMARK                         _______ _______ _______ _____ _____    ______ ____
ROOT
ATOM      1  N   UNL     1      46.396   5.665  13.726  0.00  0.00    +0.000 N 
ATOM      2  C   UNL     1      47.114   5.140  14.814  0.00  0.00    +0.000 A 
ATOM      3  C   UNL     1      48.258   5.800  15.286  0.00  0.00    +0.000 A 
ATOM      4  N   UNL     1      49.018   5.369  16.331  0.00  0.00    +0.000 NA
ATOM      5  C   UNL     1      48.581   4.210  16.897  0.00  0.00    +0.000 A 
ATOM      6  C   UNL     1      47.463   3.537  16.437  0.00  0.00    +0.000 A 
ATOM      7  N   UNL     1      46.721   3.984  15.393  0.00  0.00    +0.000 NA
ATOM      8  H   UNL     1      46.110   6.618  13.931  0.00  0.00    +0.000 HD
ENDROOT
BRANCH   5   9
ATOM      9  C   UNL     1      49.339   3.661  18.054  0.00  0.00    +0.000 C 
ATOM     10  N   UNL     1      48.619   3.440  19.194  0.00  0.00    +0.000 N 
ATOM     11  O   UNL     1      50.537   3.416  17.992  0.00  0.00    +0.000 OA
ATOM     12  H   UNL     1      47.629   3.657  19.223  0.00  0.00    +0.000 HD
ATOM     13  H   UNL     1      49.086   3.070  20.009  0.00  0.00    +0.000 HD
ENDBRANCH   5   9
BRANCH   1  14
ATOM     14  C   UNL     1      45.248   4.842  13.341  0.00  0.00    +0.000 C 
BRANCH  14  18
ATOM     15  C   UNL     1      45.285   3.973   9.086  0.00  0.00    +0.000 A 
ATOM     16  C   UNL     1      44.895   2.987  10.002  0.00  0.00    +0.000 A 
ATOM     17  C   UNL     1      44.874   3.253  11.375  0.00  0.00    +0.000 A 
ATOM     18  C   UNL     1      45.270   4.505  11.864  0.00  0.00    +0.000 A 
ATOM     19  C   UNL     1      45.628   5.500  10.942  0.00  0.00    +0.000 A 
ATOM     20  C   UNL     1      45.641   5.237   9.569  0.00  0.00    +0.000 A 
BRANCH  15  21
ATOM     21  C   UNL     1      45.351   3.670   7.610  0.00  0.00    +0.000 C 
BRANCH  21  22
ATOM     22  N   UNL     1      46.609   4.113   7.018  0.00  0.00    +0.000 NA
ATOM     23  H   UNL     1      47.326   3.416   7.205  0.00  0.00    +0.000 HD
ATOM     24  H   UNL     1      46.907   4.967   7.487  0.00  0.00    +0.000 HD
ENDBRANCH  21  22
ENDBRANCH  15  21
ENDBRANCH  14  18
ENDBRANCH   1  14
TORSDOF 5
ENDMDL
MODEL 6
REMARK VINA RESULT:    -6.500      3.401      7.654
REMARK INTER + INTRA:          -8.392
REMARK INTER:                  -8.065
REMARK INTRA:                  -0.327
REMARK UNBOUND:                -0.181
REMARK  Name = 
REMARK  5 active torsions:
REMARK  status: ('A' for Active; 'I' for Inactive)
REMARK    1  A    between atoms: N_1  and  C_2
REMARK    2  A    between atoms: C_2  and  C_3
REMARK    3  A    between atoms: C_6  and  C_7
REMARK    4  A    between atoms: C_7  and  N_8
REMARK    5  A    between atoms: C_12  and  C_13
REMARK                            x       y       z     vdW  Elec       q    Type
REMARK                         _______ _______ _______ _____ _____    ______ ____
ROOT
ATOM      1  N   UNL     1      47.435   5.440  15.215  0.00  0.00    +0.000 N 
ATOM      2  C   UNL     1      46.734   5.243  14.012  0.00  0.00    +0.000 A 
ATOM      3  C   UNL     1      46.874   6.159  12.959  0.00  0.00    +0.000 A 
ATOM      4  N   UNL     1      46.238   6.054  11.760  0.00  0.00    +0.000 NA
ATOM      5  C   UNL     1      45.423   4.969  11.654  0.00  0.00    +0.000 A 
ATOM      6  C   UNL     1      45.261   4.061  12.686  0.00  0.00    +0.000 A 
ATOM      7  N   UNL     1      45.905   4.186  13.874  0.00  0.00    +0.000 NA
ATOM      8  H   UNL     1      48.430   5.506  15.026  0.00  0.00    +0.000 HD
ENDROOT
BRANCH   5   9
ATOM      9  C   UNL     1      44.690   4.760  10.376  0.00  0.00    +0.000 C 
ATOM     10  N   UNL     1      45.346   5.136   9.238  0.00  0.00    +0.000 N 
ATOM     11  O   UNL     1      43.566   4.275  10.341  0.00  0.00    +0.000 OA
ATOM     12  H   UNL     1      46.274   5.541   9.293  0.00  0.00    +0.000 HD
ATOM     13  H   UNL     1      44.891   5.017   8.345  0.00  0.00    +0.000 HD
ENDBRANCH   5   9
BRANCH   1  14
ATOM     14  C   UNL     1      47.156   4.411  16.220  0.00  0.00    +0.000 C 
BRANCH  14  18
ATOM     15  C   UNL     1      50.809   2.353  17.350  0.00  0.00    +0.000 A 
ATOM     16  C   UNL     1      49.800   1.668  16.660  0.00  0.00    +0.000 A 
ATOM     17  C   UNL     1      48.619   2.319  16.286  0.00  0.00    +0.000 A 
ATOM     18  C   UNL     1      48.411   3.664  16.618  0.00  0.00    +0.000 A 
ATOM     19  C   UNL     1      49.438   4.356  17.279  0.00  0.00    +0.000 A 
ATOM     20  C   UNL     1      50.621   3.709  17.645  0.00  0.00    +0.000 A 
BRANCH  15  21
ATOM     21  C   UNL     1      52.061   1.639  17.793  0.00  0.00    +0.000 C 
BRANCH  21  22
ATOM     22  N   UNL     1      51.802   0.244  18.132  0.00  0.00    +0.000 NA
ATOM     23  H   UNL     1      52.687  -0.258  18.170  0.00  0.00    +0.000 HD
ATOM     24  H   UNL     1      51.262  -0.180  17.379  0.00  0.00    +0.000 HD
ENDBRANCH  21  22
ENDBRANCH  15  21
ENDBRANCH  14  18
ENDBRANCH   1  14
TORSDOF 5
ENDMDL
MODEL 7
REMARK VINA RESULT:    -6.097      2.707      4.757
REMARK INTER + INTRA:          -7.882
REMARK INTER:                  -7.627
REMARK INTRA:                  -0.255
REMARK UNBOUND:                -0.181
REMARK  Name = 
REMARK  5 active torsions:
REMARK  status: ('A' for Active; 'I' for Inactive)
REMARK    1  A    between atoms: N_1  and  C_2
REMARK    2  A    between atoms: C_2  and  C_3
REMARK    3  A    between atoms: C_6  and  C_7
REMARK    4  A    between atoms: C_7  and  N_8
REMARK    5  A    between atoms: C_12  and  C_13
REMARK                            x       y       z     vdW  Elec       q    Type
REMARK                         _______ _______ _______ _____ _____    ______ ____
ROOT
ATOM      1  N   UNL     1      46.590   3.986  14.849  0.00  0.00    +0.000 N 
ATOM      2  C   UNL     1      47.572   4.146  15.842  0.00  0.00    +0.000 A 
ATOM      3  C   UNL     1      47.863   3.091  16.720  0.00  0.00    +0.000 A 
ATOM      4  N   UNL     1      48.795   3.152  17.711  0.00  0.00    +0.000 NA
ATOM      5  C   UNL     1      49.438   4.349  17.799  0.00  0.00    +0.000 A 
ATOM      6  C   UNL     1      49.157   5.405  16.951  0.00  0.00    +0.000 A 
ATOM      7  N   UNL     1      48.222   5.323  15.970  0.00  0.00    +0.000 NA
ATOM      8  H   UNL     1      46.817   3.185  14.268  0.00  0.00    +0.000 HD
ENDROOT
BRANCH   5   9
ATOM      9  C   UNL     1      50.483   4.512  18.846  0.00  0.00    +0.000 C 
ATOM     10  N   UNL     1      51.495   3.593  18.833  0.00  0.00    +0.000 N 
ATOM     11  O   UNL     1      50.446   5.417  19.670  0.00  0.00    +0.000 OA
ATOM     12  H   UNL     1      51.501   2.849  18.145  0.00  0.00    +0.000 HD
ATOM     13  H   UNL     1      52.229   3.658  19.524  0.00  0.00    +0.000 HD
ENDBRANCH   5   9
BRANCH   1  14
ATOM     14  C   UNL     1      46.389   5.187  14.037  0.00  0.00    +0.000 C 
BRANCH  14  18
ATOM     15  C   UNL     1      45.017   4.307  10.012  0.00  0.00    +0.000 A 
ATOM     16  C   UNL     1      44.878   3.351  11.028  0.00  0.00    +0.000 A 
ATOM     17  C   UNL     1      45.311   3.622  12.330  0.00  0.00    +0.000 A 
ATOM     18  C   UNL     1      45.920   4.846  12.638  0.00  0.00    +0.000 A 
ATOM     19  C   UNL     1      46.027   5.813  11.627  0.00  0.00    +0.000 A 
ATOM     20  C   UNL     1      45.586   5.546  10.328  0.00  0.00    +0.000 A 
BRANCH  15  21
ATOM     21  C   UNL     1      44.592   3.996   8.598  0.00  0.00    +0.000 C 
BRANCH  21  22
ATOM     22  N   UNL     1      45.706   4.086   7.662  0.00  0.00    +0.000 NA
ATOM     23  H   UNL     1      46.327   4.837   7.957  0.00  0.00    +0.000 HD
ATOM     24  H   UNL     1      45.343   4.354   6.748  0.00  0.00    +0.000 HD
ENDBRANCH  21  22
ENDBRANCH  15  21
ENDBRANCH  14  18
ENDBRANCH   1  14
TORSDOF 5
ENDMDL
MODEL 8
REMARK VINA RESULT:    -5.911      3.821      6.250
REMARK INTER + INTRA:          -7.648
REMARK INTER:                  -7.420
REMARK INTRA:                  -0.228
REMARK UNBOUND:                -0.181
REMARK  Name = 
REMARK  5 active torsions:
REMARK  status: ('A' for Active; 'I' for Inactive)
REMARK    1  A    between atoms: N_1  and  C_2
REMARK    2  A    between atoms: C_2  and  C_3
REMARK    3  A    between atoms: C_6  and  C_7
REMARK    4  A    between atoms: C_7  and  N_8
REMARK    5  A    between atoms: C_12  and  C_13
REMARK                            x       y       z     vdW  Elec       q    Type
REMARK                         _______ _______ _______ _____ _____    ______ ____
ROOT
ATOM      1  N   UNL     1      46.317   7.279  13.368  0.00  0.00    +0.000 N 
ATOM      2  C   UNL     1      45.702   6.163  12.775  0.00  0.00    +0.000 A 
ATOM      3  C   UNL     1      45.488   4.997  13.526  0.00  0.00    +0.000 A 
ATOM      4  N   UNL     1      44.903   3.867  13.040  0.00  0.00    +0.000 NA
ATOM      5  C   UNL     1      44.538   3.947  11.731  0.00  0.00    +0.000 A 
ATOM      6  C   UNL     1      44.753   5.083  10.970  0.00  0.00    +0.000 A 
ATOM      7  N   UNL     1      45.339   6.198  11.474  0.00  0.00    +0.000 NA
ATOM      8  H   UNL     1      45.793   7.563  14.190  0.00  0.00    +0.000 HD
ENDROOT
BRANCH   5   9
ATOM      9  C   UNL     1      43.881   2.766  11.109  0.00  0.00    +0.000 C 
ATOM     10  N   UNL     1      44.451   2.298   9.958  0.00  0.00    +0.000 N 
ATOM     11  O   UNL     1      42.890   2.237  11.598  0.00  0.00    +0.000 OA
ATOM     12  H   UNL     1      45.267   2.756   9.568  0.00  0.00    +0.000 HD
ATOM     13  H   UNL     1      44.041   1.500   9.495  0.00  0.00    +0.000 HD
ENDBRANCH   5   9
BRANCH   1  14
ATOM     14  C   UNL     1      46.492   8.400  12.442  0.00  0.00    +0.000 C 
BRANCH  14  18
ATOM     15  C   UNL     1      50.670   8.794  11.321  0.00  0.00    +0.000 A 
ATOM     16  C   UNL     1      49.844   9.925  11.371  0.00  0.00    +0.000 A 
ATOM     17  C   UNL     1      48.498   9.815  11.735  0.00  0.00    +0.000 A 
ATOM     18  C   UNL     1      47.940   8.564  12.029  0.00  0.00    +0.000 A 
ATOM     19  C   UNL     1      48.777   7.437  12.011  0.00  0.00    +0.000 A 
ATOM     20  C   UNL     1      50.124   7.549  11.656  0.00  0.00    +0.000 A 
BRANCH  15  21
ATOM     21  C   UNL     1      52.109   8.908  10.884  0.00  0.00    +0.000 C 
BRANCH  21  22
ATOM     22  N   UNL     1      52.935   7.846  11.447  0.00  0.00    +0.000 NA
ATOM     23  H   UNL     1      52.866   7.023  10.852  0.00  0.00    +0.000 HD
ATOM     24  H   UNL     1      52.552   7.580  12.353  0.00  0.00    +0.000 HD
ENDBRANCH  21  22
ENDBRANCH  15  21
ENDBRANCH  14  18
ENDBRANCH   1  14
TORSDOF 5
ENDMDL
MODEL 9
REMARK VINA RESULT:    -5.860      3.245      8.389
REMARK INTER + INTRA:          -7.583
REMARK INTER:                  -7.318
REMARK INTRA:                  -0.266
REMARK UNBOUND:                -0.181
REMARK  Name = 
REMARK  5 active torsions:
REMARK  status: ('A' for Active; 'I' for Inactive)
REMARK    1  A    between atoms: N_1  and  C_2
REMARK    2  A    between atoms: C_2  and  C_3
REMARK    3  A    between atoms: C_6  and  C_7
REMARK    4  A    between atoms: C_7  and  N_8
REMARK    5  A    between atoms: C_12  and  C_13
REMARK                            x       y       z     vdW  Elec       q    Type
REMARK                         _______ _______ _______ _____ _____    ______ ____
ROOT
ATOM      1  N   UNL     1      47.046   5.263  14.577  0.00  0.00    +0.000 N 
ATOM      2  C   UNL     1      46.381   4.855  13.407  0.00  0.00    +0.000 A 
ATOM      3  C   UNL     1      46.196   5.761  12.352  0.00  0.00    +0.000 A 
ATOM      4  N   UNL     1      45.566   5.460  11.183  0.00  0.00    +0.000 NA
ATOM      5  C   UNL     1      45.104   4.181  11.112  0.00  0.00    +0.000 A 
ATOM      6  C   UNL     1      45.264   3.277  12.147  0.00  0.00    +0.000 A 
ATOM      7  N   UNL     1      45.895   3.599  13.305  0.00  0.00    +0.000 NA
ATOM      8  H   UNL     1      47.968   5.618  14.342  0.00  0.00    +0.000 HD
ENDROOT
BRANCH   5   9
ATOM      9  C   UNL     1      44.408   3.751   9.869  0.00  0.00    +0.000 C 
ATOM     10  N   UNL     1      43.783   4.737   9.158  0.00  0.00    +0.000 N 
ATOM     11  O   UNL     1      44.397   2.584   9.498  0.00  0.00    +0.000 OA
ATOM     12  H   UNL     1      43.801   5.695   9.489  0.00  0.00    +0.000 HD
ATOM     13  H   UNL     1      43.294   4.497   8.308  0.00  0.00    +0.000 HD
ENDBRANCH   5   9
BRANCH   1  14
ATOM     14  C   UNL     1      47.129   4.209  15.590  0.00  0.00    +0.000 C 
BRANCH  14  18
ATOM     15  C   UNL     1      49.706   5.274  18.920  0.00  0.00    +0.000 A 
ATOM     16  C   UNL     1      49.555   6.152  17.837  0.00  0.00    +0.000 A 
ATOM     17  C   UNL     1      48.726   5.824  16.760  0.00  0.00    +0.000 A 
ATOM     18  C   UNL     1      48.049   4.598  16.728  0.00  0.00    +0.000 A 
ATOM     19  C   UNL     1      48.175   3.736  17.829  0.00  0.00    +0.000 A 
ATOM     20  C   UNL     1      48.997   4.067  18.910  0.00  0.00    +0.000 A 
BRANCH  15  21
ATOM     21  C   UNL     1      50.636   5.609  20.059  0.00  0.00    +0.000 C 
BRANCH  21  22
ATOM     22  N   UNL     1      50.958   4.434  20.862  0.00  0.00    +0.000 NA
ATOM     23  H   UNL     1      51.214   3.669  20.241  0.00  0.00    +0.000 HD
ATOM     24  H   UNL     1      50.119   4.137  21.356  0.00  0.00    +0.000 HD
ENDBRANCH  21  22
ENDBRANCH  15  21
ENDBRANCH  14  18
ENDBRANCH   1  14
TORSDOF 5
ENDMDL
