MODEL 1
REMARK VINA RESULT:    -7.807      0.000      0.000
REMARK INTER + INTRA:         -10.169
REMARK INTER:                  -9.633
REMARK INTRA:                  -0.536
REMARK UNBOUND:                -0.536
REMARK  Name = 
REMARK  6 active torsions:
REMARK  status: ('A' for Active; 'I' for Inactive)
REMARK    1  A    between atoms: C_1  and  C_2
REMARK    2  A    between atoms: C_2  and  C_3
REMARK    3  A    between atoms: C_2  and  C_4
REMARK    4  A    between atoms: C_2  and  C_15
REMARK    5  A    between atoms: C_5  and  C_6
REMARK    6  A    between atoms: C_9  and  C_10
REMARK                            x       y       z     vdW  Elec       q    Type
REMARK                         _______ _______ _______ _____ _____    ______ ____
ROOT
ATOM      1  C   UNL     1      45.289   4.587  11.955  0.00  0.00    +0.000 C 
ATOM      2  C   UNL     1      45.614   4.049  13.148  0.00  0.00    +0.000 C 
ENDROOT
BRANCH   2   3
ATOM      3  C   UNL     1      46.618   4.604  14.065  0.00  0.00    +0.000 A 
ATOM      4  C   UNL     1      47.404   5.703  13.707  0.00  0.00    +0.000 A 
ATOM      5  N   UNL     1      48.348   6.250  14.517  0.00  0.00    +0.000 NA
ATOM      6  C   UNL     1      48.469   5.638  15.728  0.00  0.00    +0.000 A 
ATOM      7  C   UNL     1      47.688   4.549  16.097  0.00  0.00    +0.000 A 
ATOM      8  N   UNL     1      46.751   4.015  15.277  0.00  0.00    +0.000 NA
BRANCH   6   9
ATOM      9  C   UNL     1      49.487   6.157  16.679  0.00  0.00    +0.000 C 
ATOM     10  N   UNL     1      49.069   7.102  17.577  0.00  0.00    +0.000 N 
ATOM     11  O   UNL     1      50.651   5.762  16.664  0.00  0.00    +0.000 OA
ATOM     12  H   UNL     1      48.111   7.429  17.579  0.00  0.00    +0.000 HD
ATOM     13  H   UNL     1      49.741   7.481  18.228  0.00  0.00    +0.000 HD
ENDBRANCH   6   9
ENDBRANCH   2   3
BRANCH   1  15
ATOM     14  C   UNL     1      43.422   2.892  11.541  0.00  0.00    +0.000 C 
ATOM     15  C   UNL     1      44.268   4.046  10.951  0.00  0.00    +0.000 C 
ATOM     16  C   UNL     1      43.282   5.198  10.639  0.00  0.00    +0.000 C 
BRANCH  15  17
ATOM     17  C   UNL     1      45.003   3.530   9.693  0.00  0.00    +0.000 A 
ATOM     18  C   UNL     1      45.534   4.449   8.761  0.00  0.00    +0.000 A 
ATOM     19  C   UNL     1      46.250   4.019   7.637  0.00  0.00    +0.000 A 
ATOM     20  C   UNL     1      46.437   2.662   7.420  0.00  0.00    +0.000 A 
ATOM     21  F   UNL     1      47.138   2.253   6.354  0.00  0.00    +0.000 F 
ATOM     22  C   UNL     1      45.902   1.738   8.303  0.00  0.00    +0.000 A 
ATOM     23  F   UNL     1      46.072   0.425   8.091  0.00  0.00    +0.000 F 
ATOM     24  C   UNL     1      45.187   2.159   9.425  0.00  0.00    +0.000 A 
ENDBRANCH  15  17
ENDBRANCH   1  15
TORSDOF 4
ENDMDL
MODEL 2
REMARK VINA RESULT:    -7.575      1.615      1.839
REMARK INTER + INTRA:          -9.882
REMARK INTER:                  -9.282
REMARK INTRA:                  -0.600
REMARK UNBOUND:                -0.536
REMARK  Name = 
REMARK  6 active torsions:
REMARK  status: ('A' for Active; 'I' for Inactive)
REMARK    1  A    between atoms: C_1  and  C_2
REMARK    2  A    between atoms: C_2  and  C_3
REMARK    3  A    between atoms: C_2  and  C_4
REMARK    4  A    between atoms: C_2  and  C_15
REMARK    5  A    between atoms: C_5  and  C_6
REMARK    6  A    between atoms: C_9  and  C_10
REMARK                            x       y       z     vdW  Elec       q    Type
REMARK                         _______ _______ _______ _____ _____    ______ ____
ROOT
ATOM      1  C   UNL     1      45.137   4.942  12.837  0.00  0.00    +0.000 C 
ATOM      2  C   UNL     1      46.363   5.364  13.206  0.00  0.00    +0.000 C 
ENDROOT
BRANCH   2   3
ATOM      3  C   UNL     1      47.072   4.911  14.409  0.00  0.00    +0.000 A 
ATOM      4  C   UNL     1      47.926   5.761  15.116  0.00  0.00    +0.000 A 
ATOM      5  N   UNL     1      48.607   5.388  16.232  0.00  0.00    +0.000 NA
ATOM      6  C   UNL     1      48.386   4.100  16.618  0.00  0.00    +0.000 A 
ATOM      7  C   UNL     1      47.534   3.248  15.926  0.00  0.00    +0.000 A 
ATOM      8  N   UNL     1      46.863   3.635  14.815  0.00  0.00    +0.000 NA
BRANCH   6   9
ATOM      9  C   UNL     1      49.100   3.596  17.821  0.00  0.00    +0.000 C 
ATOM     10  N   UNL     1      48.329   3.264  18.902  0.00  0.00    +0.000 N 
ATOM     11  O   UNL     1      50.323   3.481  17.849  0.00  0.00    +0.000 OA
ATOM     12  H   UNL     1      47.323   3.368  18.875  0.00  0.00    +0.000 HD
ATOM     13  H   UNL     1      48.787   2.928  19.737  0.00  0.00    +0.000 HD
ENDBRANCH   6   9
ENDBRANCH   2   3
BRANCH   1  15
ATOM     14  C   UNL     1      42.815   5.227  11.809  0.00  0.00    +0.000 C 
ATOM     15  C   UNL     1      44.341   5.391  11.608  0.00  0.00    +0.000 C 
ATOM     16  C   UNL     1      44.600   6.906  11.427  0.00  0.00    +0.000 C 
BRANCH  15  17
ATOM     17  C   UNL     1      44.773   4.558  10.380  0.00  0.00    +0.000 A 
ATOM     18  C   UNL     1      45.563   5.150   9.370  0.00  0.00    +0.000 A 
ATOM     19  C   UNL     1      46.015   4.413   8.269  0.00  0.00    +0.000 A 
ATOM     20  C   UNL     1      45.675   3.073   8.154  0.00  0.00    +0.000 A 
ATOM     21  F   UNL     1      46.124   2.364   7.108  0.00  0.00    +0.000 F 
ATOM     22  C   UNL     1      44.877   2.475   9.115  0.00  0.00    +0.000 A 
ATOM     23  F   UNL     1      44.538   1.183   9.002  0.00  0.00    +0.000 F 
ATOM     24  C   UNL     1      44.422   3.204  10.215  0.00  0.00    +0.000 A 
ENDBRANCH  15  17
ENDBRANCH   1  15
TORSDOF 4
ENDMDL
MODEL 3
REMARK VINA RESULT:    -7.100      1.536      2.071
REMARK INTER + INTRA:          -9.296
REMARK INTER:                  -8.738
REMARK INTRA:                  -0.558
REMARK UNBOUND:                -0.536
REMARK  Name = 
REMARK  6 active torsions:
REMARK  status: ('A' for Active; 'I' for Inactive)
REMARK    1  A    between atoms: C_1  and  C_2
REMARK    2  A    between atoms: C_2  and  C_3
REMARK    3  A    between atoms: C_2  and  C_4
REMARK    4  A    between atoms: C_2  and  C_15
REMARK    5  A    between atoms: C_5  and  C_6
REMARK    6  A    between atoms: C_9  and  C_10
REMARK                            x       y       z     vdW  Elec       q    Type
REMARK                         _______ _______ _______ _____ _____    ______ ____
ROOT
ATOM      1  C   UNL     1      45.361   4.673  12.747  0.00  0.00    +0.000 C 
ATOM      2  C   UNL     1      46.202   5.517  13.377  0.00  0.00    +0.000 C 
ENDROOT
BRANCH   2   3
ATOM      3  C   UNL     1      47.026   5.157  14.538  0.00  0.00    +0.000 A 
ATOM      4  C   UNL     1      48.122   5.933  14.924  0.00  0.00    +0.000 A 
ATOM      5  N   UNL     1      48.916   5.640  15.987  0.00  0.00    +0.000 NA
ATOM      6  C   UNL     1      48.554   4.514  16.663  0.00  0.00    +0.000 A 
ATOM      7  C   UNL     1      47.463   3.738  16.293  0.00  0.00    +0.000 A 
ATOM      8  N   UNL     1      46.681   4.044  15.229  0.00  0.00    +0.000 NA
BRANCH   6   9
ATOM      9  C   UNL     1      49.374   4.104  17.833  0.00  0.00    +0.000 C 
ATOM     10  N   UNL     1      48.916   3.043  18.567  0.00  0.00    +0.000 N 
ATOM     11  O   UNL     1      50.415   4.685  18.133  0.00  0.00    +0.000 OA
ATOM     12  H   UNL     1      48.055   2.573  18.319  0.00  0.00    +0.000 HD
ATOM     13  H   UNL     1      49.446   2.748  19.374  0.00  0.00    +0.000 HD
ENDBRANCH   6   9
ENDBRANCH   2   3
BRANCH   1  15
ATOM     14  C   UNL     1      42.982   4.640  11.815  0.00  0.00    +0.000 C 
ATOM     15  C   UNL     1      44.465   4.995  11.547  0.00  0.00    +0.000 C 
ATOM     16  C   UNL     1      44.519   6.527  11.337  0.00  0.00    +0.000 C 
BRANCH  15  17
ATOM     17  C   UNL     1      44.950   4.202  10.312  0.00  0.00    +0.000 A 
ATOM     18  C   UNL     1      44.637   2.831  10.187  0.00  0.00    +0.000 A 
ATOM     19  C   UNL     1      45.015   2.093   9.059  0.00  0.00    +0.000 A 
ATOM     20  C   UNL     1      45.725   2.714   8.041  0.00  0.00    +0.000 A 
ATOM     21  F   UNL     1      46.071   2.011   6.953  0.00  0.00    +0.000 F 
ATOM     22  C   UNL     1      46.071   4.051   8.151  0.00  0.00    +0.000 A 
ATOM     23  F   UNL     1      46.765   4.651   7.173  0.00  0.00    +0.000 F 
ATOM     24  C   UNL     1      45.697   4.791   9.273  0.00  0.00    +0.000 A 
ENDBRANCH  15  17
ENDBRANCH   1  15
TORSDOF 4
ENDMDL
MODEL 4
REMARK VINA RESULT:    -6.737      1.756      1.938
REMARK INTER + INTRA:          -8.849
REMARK INTER:                  -8.310
REMARK INTRA:                  -0.539
REMARK UNBOUND:                -0.536
REMARK  Name = 
REMARK  6 active torsions:
REMARK  status: ('A' for Active; 'I' for Inactive)
REMARK    1  A    between atoms: C_1  and  C_2
REMARK    2  A    between atoms: C_2  and  C_3
REMARK    3  A    between atoms: C_2  and  C_4
REMARK    4  A    between atoms: C_2  and  C_15
REMARK    5  A    between atoms: C_5  and  C_6
REMARK    6  A    between atoms: C_9  and  C_10
REMARK                            x       y       z     vdW  Elec       q    Type
REMARK                         _______ _______ _______ _____ _____    ______ ____
ROOT
ATOM      1  C   UNL     1      45.481   5.483  11.814  0.00  0.00    +0.000 C 
ATOM      2  C   UNL     1      46.252   5.297  12.903  0.00  0.00    +0.000 C 
ENDROOT
BRANCH   2   3
ATOM      3  C   UNL     1      47.238   6.266  13.399  0.00  0.00    +0.000 A 
ATOM      4  C   UNL     1      47.327   7.554  12.865  0.00  0.00    +0.000 A 
ATOM      5  N   UNL     1      48.223   8.485  13.286  0.00  0.00    +0.000 NA
ATOM      6  C   UNL     1      49.040   8.061  14.290  0.00  0.00    +0.000 A 
ATOM      7  C   UNL     1      48.957   6.785  14.834  0.00  0.00    +0.000 A 
ATOM      8  N   UNL     1      48.058   5.868  14.402  0.00  0.00    +0.000 NA
BRANCH   6   9
ATOM      9  C   UNL     1      50.065   9.006  14.808  0.00  0.00    +0.000 C 
ATOM     10  N   UNL     1      49.896   9.459  16.089  0.00  0.00    +0.000 N 
ATOM     11  O   UNL     1      51.020   9.367  14.124  0.00  0.00    +0.000 OA
ATOM     12  H   UNL     1      49.104   9.163  16.645  0.00  0.00    +0.000 HD
ATOM     13  H   UNL     1      50.571  10.109  16.464  0.00  0.00    +0.000 HD
ENDBRANCH   6   9
ENDBRANCH   2   3
BRANCH   1  15
ATOM     14  C   UNL     1      44.092   3.380  12.239  0.00  0.00    +0.000 C 
ATOM     15  C   UNL     1      44.453   4.505  11.239  0.00  0.00    +0.000 C 
ATOM     16  C   UNL     1      43.151   5.307  10.991  0.00  0.00    +0.000 C 
BRANCH  15  17
ATOM     17  C   UNL     1      45.014   3.862   9.950  0.00  0.00    +0.000 A 
ATOM     18  C   UNL     1      45.549   4.680   8.930  0.00  0.00    +0.000 A 
ATOM     19  C   UNL     1      46.113   4.131   7.772  0.00  0.00    +0.000 A 
ATOM     20  C   UNL     1      46.140   2.753   7.610  0.00  0.00    +0.000 A 
ATOM     21  F   UNL     1      46.697   2.228   6.509  0.00  0.00    +0.000 F 
ATOM     22  C   UNL     1      45.597   1.928   8.582  0.00  0.00    +0.000 A 
ATOM     23  F   UNL     1      45.613   0.597   8.423  0.00  0.00    +0.000 F 
ATOM     24  C   UNL     1      45.033   2.470   9.738  0.00  0.00    +0.000 A 
ENDBRANCH  15  17
ENDBRANCH   1  15
TORSDOF 4
ENDMDL
MODEL 5
REMARK VINA RESULT:    -6.626      4.913      8.297
REMARK INTER + INTRA:          -8.711
REMARK INTER:                  -8.130
REMARK INTRA:                  -0.581
REMARK UNBOUND:                -0.536
REMARK  Name = 
REMARK  6 active torsions:
REMARK  status: ('A' for Active; 'I' for Inactive)
REMARK    1  A    between atoms: C_1  and  C_2
REMARK    2  A    between atoms: C_2  and  C_3
REMARK    3  A    between atoms: C_2  and  C_4
REMARK    4  A    between atoms: C_2  and  C_15
REMARK    5  A    between atoms: C_5  and  C_6
REMARK    6  A    between atoms: C_9  and  C_10
REMARK                            x       y       z     vdW  Elec       q    Type
REMARK                         _______ _______ _______ _____ _____    ______ ____
ROOT
ATOM      1  C   UNL     1      47.401   4.732  15.911  0.00  0.00    +0.000 C 
ATOM      2  C   UNL     1      47.530   5.223  14.663  0.00  0.00    +0.000 C 
ENDROOT
BRANCH   2   3
ATOM      3  C   UNL     1      46.680   4.843  13.527  0.00  0.00    +0.000 A 
ATOM      4  C   UNL     1      46.386   5.746  12.502  0.00  0.00    +0.000 A 
ATOM      5  N   UNL     1      45.602   5.445  11.434  0.00  0.00    +0.000 NA
ATOM      6  C   UNL     1      45.120   4.171  11.436  0.00  0.00    +0.000 A 
ATOM      7  C   UNL     1      45.411   3.262  12.446  0.00  0.00    +0.000 A 
ATOM      8  N   UNL     1      46.194   3.579  13.506  0.00  0.00    +0.000 NA
BRANCH   6   9
ATOM      9  C   UNL     1      44.239   3.752  10.313  0.00  0.00    +0.000 C 
ATOM     10  N   UNL     1      43.977   4.690   9.351  0.00  0.00    +0.000 N 
ATOM     11  O   UNL     1      43.765   2.620  10.246  0.00  0.00    +0.000 OA
ATOM     12  H   UNL     1      44.365   5.622   9.415  0.00  0.00    +0.000 HD
ATOM     13  H   UNL     1      43.374   4.438   8.581  0.00  0.00    +0.000 HD
ENDBRANCH   6   9
ENDBRANCH   2   3
BRANCH   1  15
ATOM     14  C   UNL     1      48.900   6.482  17.016  0.00  0.00    +0.000 C 
ATOM     15  C   UNL     1      48.265   5.075  17.128  0.00  0.00    +0.000 C 
ATOM     16  C   UNL     1      47.325   5.114  18.357  0.00  0.00    +0.000 C 
BRANCH  15  17
ATOM     17  C   UNL     1      49.395   4.029  17.270  0.00  0.00    +0.000 A 
ATOM     18  C   UNL     1      49.143   2.674  16.963  0.00  0.00    +0.000 A 
ATOM     19  C   UNL     1      50.155   1.708  17.031  0.00  0.00    +0.000 A 
ATOM     20  C   UNL     1      51.434   2.081  17.419  0.00  0.00    +0.000 A 
ATOM     21  F   UNL     1      52.406   1.159  17.466  0.00  0.00    +0.000 F 
ATOM     22  C   UNL     1      51.701   3.399  17.754  0.00  0.00    +0.000 A 
ATOM     23  F   UNL     1      52.933   3.760  18.140  0.00  0.00    +0.000 F 
ATOM     24  C   UNL     1      50.697   4.365  17.689  0.00  0.00    +0.000 A 
ENDBRANCH  15  17
ENDBRANCH   1  15
TORSDOF 4
ENDMDL
MODEL 6
REMARK VINA RESULT:    -6.029      5.256      8.568
REMARK INTER + INTRA:          -7.976
REMARK INTER:                  -7.453
REMARK INTRA:                  -0.523
REMARK UNBOUND:                -0.536
REMARK  Name = 
REMARK  6 active torsions:
REMARK  status: ('A' for Active; 'I' for Inactive)
REMARK    1  A    between atoms: C_1  and  C_2
REMARK    2  A    between atoms: C_2  and  C_3
REMARK    3  A    between atoms: C_2  and  C_4
REMARK    4  A    between atoms: C_2  and  C_15
REMARK    5  A    between atoms: C_5  and  C_6
REMARK    6  A    between atoms: C_9  and  C_10
REMARK                            x       y       z     vdW  Elec       q    Type
REMARK                         _______ _______ _______ _____ _____    ______ ____
ROOT
ATOM      1  C   UNL     1      47.607   3.458  15.625  0.00  0.00    +0.000 C 
ATOM      2  C   UNL     1      46.976   4.536  15.119  0.00  0.00    +0.000 C 
ENDROOT
BRANCH   2   3
ATOM      3  C   UNL     1      46.405   4.608  13.768  0.00  0.00    +0.000 A 
ATOM      4  C   UNL     1      46.604   5.723  12.950  0.00  0.00    +0.000 A 
ATOM      5  N   UNL     1      46.094   5.839  11.696  0.00  0.00    +0.000 NA
ATOM      6  C   UNL     1      45.366   4.764  11.286  0.00  0.00    +0.000 A 
ATOM      7  C   UNL     1      45.167   3.646  12.088  0.00  0.00    +0.000 A 
ATOM      8  N   UNL     1      45.682   3.546  13.337  0.00  0.00    +0.000 NA
BRANCH   6   9
ATOM      9  C   UNL     1      44.755   4.805   9.931  0.00  0.00    +0.000 C 
ATOM     10  N   UNL     1      45.604   5.009   8.877  0.00  0.00    +0.000 N 
ATOM     11  O   UNL     1      43.546   4.663   9.759  0.00  0.00    +0.000 OA
ATOM     12  H   UNL     1      46.597   5.132   9.026  0.00  0.00    +0.000 HD
ATOM     13  H   UNL     1      45.217   5.052   7.945  0.00  0.00    +0.000 HD
ENDBRANCH   6   9
ENDBRANCH   2   3
BRANCH   1  15
ATOM     14  C   UNL     1      47.278   2.666  18.032  0.00  0.00    +0.000 C 
ATOM     15  C   UNL     1      48.237   3.330  17.014  0.00  0.00    +0.000 C 
ATOM     16  C   UNL     1      49.454   2.383  16.876  0.00  0.00    +0.000 C 
BRANCH  15  17
ATOM     17  C   UNL     1      48.625   4.731  17.538  0.00  0.00    +0.000 A 
ATOM     18  C   UNL     1      49.859   5.307  17.163  0.00  0.00    +0.000 A 
ATOM     19  C   UNL     1      50.222   6.594  17.576  0.00  0.00    +0.000 A 
ATOM     20  C   UNL     1      49.359   7.324  18.381  0.00  0.00    +0.000 A 
ATOM     21  F   UNL     1      49.699   8.564  18.761  0.00  0.00    +0.000 F 
ATOM     22  C   UNL     1      48.155   6.773  18.788  0.00  0.00    +0.000 A 
ATOM     23  F   UNL     1      47.324   7.472  19.574  0.00  0.00    +0.000 F 
ATOM     24  C   UNL     1      47.788   5.490  18.380  0.00  0.00    +0.000 A 
ENDBRANCH  15  17
ENDBRANCH   1  15
TORSDOF 4
ENDMDL
MODEL 7
REMARK VINA RESULT:    -5.721      2.897      4.536
REMARK INTER + INTRA:          -7.596
REMARK INTER:                  -7.098
REMARK INTRA:                  -0.497
REMARK UNBOUND:                -0.536
REMARK  Name = 
REMARK  6 active torsions:
REMARK  status: ('A' for Active; 'I' for Inactive)
REMARK    1  A    between atoms: C_1  and  C_2
REMARK    2  A    between atoms: C_2  and  C_3
REMARK    3  A    between atoms: C_2  and  C_4
REMARK    4  A    between atoms: C_2  and  C_15
REMARK    5  A    between atoms: C_5  and  C_6
REMARK    6  A    between atoms: C_9  and  C_10
REMARK                            x       y       z     vdW  Elec       q    Type
REMARK                         _______ _______ _______ _____ _____    ______ ____
ROOT
ATOM      1  C   UNL     1      47.717   6.642  13.898  0.00  0.00    +0.000 C 
ATOM      2  C   UNL     1      48.675   7.160  14.693  0.00  0.00    +0.000 C 
ENDROOT
BRANCH   2   3
ATOM      3  C   UNL     1      49.318   6.439  15.798  0.00  0.00    +0.000 A 
ATOM      4  C   UNL     1      50.557   6.837  16.306  0.00  0.00    +0.000 A 
ATOM      5  N   UNL     1      51.195   6.201  17.324  0.00  0.00    +0.000 NA
ATOM      6  C   UNL     1      50.519   5.129  17.824  0.00  0.00    +0.000 A 
ATOM      7  C   UNL     1      49.283   4.728  17.332  0.00  0.00    +0.000 A 
ATOM      8  N   UNL     1      48.661   5.372  16.315  0.00  0.00    +0.000 NA
BRANCH   6   9
ATOM      9  C   UNL     1      51.145   4.360  18.932  0.00  0.00    +0.000 C 
ATOM     10  N   UNL     1      50.473   4.336  20.124  0.00  0.00    +0.000 N 
ATOM     11  O   UNL     1      52.215   3.771  18.791  0.00  0.00    +0.000 OA
ATOM     12  H   UNL     1      49.596   4.828  20.236  0.00  0.00    +0.000 HD
ATOM     13  H   UNL     1      50.879   3.830  20.898  0.00  0.00    +0.000 HD
ENDBRANCH   6   9
ENDBRANCH   2   3
BRANCH   1  15
ATOM     14  C   UNL     1      46.379   8.698  13.183  0.00  0.00    +0.000 C 
ATOM     15  C   UNL     1      46.998   7.349  12.746  0.00  0.00    +0.000 C 
ATOM     16  C   UNL     1      48.068   7.682  11.678  0.00  0.00    +0.000 C 
BRANCH  15  17
ATOM     17  C   UNL     1      45.873   6.439  12.203  0.00  0.00    +0.000 A 
ATOM     18  C   UNL     1      45.952   5.928  10.889  0.00  0.00    +0.000 A 
ATOM     19  C   UNL     1      44.978   5.060  10.381  0.00  0.00    +0.000 A 
ATOM     20  C   UNL     1      43.900   4.698  11.177  0.00  0.00    +0.000 A 
ATOM     21  F   UNL     1      42.978   3.853  10.695  0.00  0.00    +0.000 F 
ATOM     22  C   UNL     1      43.783   5.207  12.460  0.00  0.00    +0.000 A 
ATOM     23  F   UNL     1      42.737   4.867  13.227  0.00  0.00    +0.000 F 
ATOM     24  C   UNL     1      44.750   6.073  12.971  0.00  0.00    +0.000 A 
ENDBRANCH  15  17
ENDBRANCH   1  15
TORSDOF 4
ENDMDL
MODEL 8
REMARK VINA RESULT:    -5.710      3.259      4.162
REMARK INTER + INTRA:          -7.581
REMARK INTER:                  -7.077
REMARK INTRA:                  -0.504
REMARK UNBOUND:                -0.536
REMARK  Name = 
REMARK  6 active torsions:
REMARK  status: ('A' for Active; 'I' for Inactive)
REMARK    1  A    between atoms: C_1  and  C_2
REMARK    2  A    between atoms: C_2  and  C_3
REMARK    3  A    between atoms: C_2  and  C_4
REMARK    4  A    between atoms: C_2  and  C_15
REMARK    5  A    between atoms: C_5  and  C_6
REMARK    6  A    between atoms: C_9  and  C_10
REMARK                            x       y       z     vdW  Elec       q    Type
REMARK                         _______ _______ _______ _____ _____    ______ ____
ROOT
ATOM      1  C   UNL     1      46.744   6.708  11.690  0.00  0.00    +0.000 C 
ATOM      2  C   UNL     1      47.439   7.209  12.731  0.00  0.00    +0.000 C 
ENDROOT
BRANCH   2   3
ATOM      3  C   UNL     1      48.861   7.574  12.682  0.00  0.00    +0.000 A 
ATOM      4  C   UNL     1      49.598   7.795  13.848  0.00  0.00    +0.000 A 
ATOM      5  N   UNL     1      50.912   8.138  13.856  0.00  0.00    +0.000 NA
ATOM      6  C   UNL     1      51.469   8.250  12.618  0.00  0.00    +0.000 A 
ATOM      7  C   UNL     1      50.748   8.027  11.451  0.00  0.00    +0.000 A 
ATOM      8  N   UNL     1      49.437   7.685  11.461  0.00  0.00    +0.000 NA
BRANCH   6   9
ATOM      9  C   UNL     1      52.901   8.637  12.524  0.00  0.00    +0.000 C 
ATOM     10  N   UNL     1      53.796   7.635  12.260  0.00  0.00    +0.000 N 
ATOM     11  O   UNL     1      53.271   9.799  12.676  0.00  0.00    +0.000 OA
ATOM     12  H   UNL     1      53.486   6.679  12.144  0.00  0.00    +0.000 HD
ATOM     13  H   UNL     1      54.777   7.866  12.201  0.00  0.00    +0.000 HD
ENDBRANCH   6   9
ENDBRANCH   2   3
BRANCH   1  15
ATOM     14  C   UNL     1      44.753   5.956  13.105  0.00  0.00    +0.000 C 
ATOM     15  C   UNL     1      45.271   6.291  11.685  0.00  0.00    +0.000 C 
ATOM     16  C   UNL     1      44.454   7.513  11.197  0.00  0.00    +0.000 C 
BRANCH  15  17
ATOM     17  C   UNL     1      45.087   5.050  10.783  0.00  0.00    +0.000 A 
ATOM     18  C   UNL     1      44.436   3.903  11.288  0.00  0.00    +0.000 A 
ATOM     19  C   UNL     1      44.206   2.779  10.485  0.00  0.00    +0.000 A 
ATOM     20  C   UNL     1      44.636   2.780   9.165  0.00  0.00    +0.000 A 
ATOM     21  F   UNL     1      44.400   1.710   8.393  0.00  0.00    +0.000 F 
ATOM     22  C   UNL     1      45.304   3.880   8.653  0.00  0.00    +0.000 A 
ATOM     23  F   UNL     1      45.730   3.879   7.382  0.00  0.00    +0.000 F 
ATOM     24  C   UNL     1      45.536   5.003   9.449  0.00  0.00    +0.000 A 
ENDBRANCH  15  17
ENDBRANCH   1  15
TORSDOF 4
ENDMDL
MODEL 9
REMARK VINA RESULT:    -5.626      4.960      8.543
REMARK INTER + INTRA:          -7.478
REMARK INTER:                  -6.959
REMARK INTRA:                  -0.519
REMARK UNBOUND:                -0.536
REMARK  Name = 
REMARK  6 active torsions:
REMARK  status: ('A' for Active; 'I' for Inactive)
REMARK    1  A    between atoms: C_1  and  C_2
REMARK    2  A    between atoms: C_2  and  C_3
REMARK    3  A    between atoms: C_2  and  C_4
REMARK    4  A    between atoms: C_2  and  C_15
REMARK    5  A    between atoms: C_5  and  C_6
REMARK    6  A    between atoms: C_9  and  C_10
REMARK                            x       y       z     vdW  Elec       q    Type
REMARK                         _______ _______ _______ _____ _____    ______ ____
ROOT
ATOM      1  C   UNL     1      48.270   6.615  14.748  0.00  0.00    +0.000 C 
ATOM      2  C   UNL     1      47.997   6.847  13.449  0.00  0.00    +0.000 C 
ENDROOT
BRANCH   2   3
ATOM      3  C   UNL     1      46.941   6.167  12.687  0.00  0.00    +0.000 A 
ATOM      4  C   UNL     1      46.631   6.541  11.377  0.00  0.00    +0.000 A 
ATOM      5  N   UNL     1      45.662   5.948  10.632  0.00  0.00    +0.000 NA
ATOM      6  C   UNL     1      45.006   4.938  11.270  0.00  0.00    +0.000 A 
ATOM      7  C   UNL     1      45.310   4.552  12.570  0.00  0.00    +0.000 A 
ATOM      8  N   UNL     1      46.280   5.156  13.299  0.00  0.00    +0.000 NA
BRANCH   6   9
ATOM      9  C   UNL     1      43.917   4.237  10.539  0.00  0.00    +0.000 C 
ATOM     10  N   UNL     1      43.880   4.400   9.181  0.00  0.00    +0.000 N 
ATOM     11  O   UNL     1      43.087   3.542  11.121  0.00  0.00    +0.000 OA
ATOM     12  H   UNL     1      44.562   4.979   8.708  0.00  0.00    +0.000 HD
ATOM     13  H   UNL     1      43.146   3.944   8.659  0.00  0.00    +0.000 HD
ENDBRANCH   6   9
ENDBRANCH   2   3
BRANCH   1  15
ATOM     14  C   UNL     1      50.419   7.997  14.713  0.00  0.00    +0.000 C 
ATOM     15  C   UNL     1      49.366   7.276  15.589  0.00  0.00    +0.000 C 
ATOM     16  C   UNL     1      48.684   8.370  16.446  0.00  0.00    +0.000 C 
BRANCH  15  17
ATOM     17  C   UNL     1      50.080   6.203  16.442  0.00  0.00    +0.000 A 
ATOM     18  C   UNL     1      49.329   5.178  17.058  0.00  0.00    +0.000 A 
ATOM     19  C   UNL     1      49.946   4.161  17.796  0.00  0.00    +0.000 A 
ATOM     20  C   UNL     1      51.326   4.160  17.940  0.00  0.00    +0.000 A 
ATOM     21  F   UNL     1      51.917   3.175  18.632  0.00  0.00    +0.000 F 
ATOM     22  C   UNL     1      52.085   5.170  17.372  0.00  0.00    +0.000 A 
ATOM     23  F   UNL     1      53.417   5.177  17.518  0.00  0.00    +0.000 F 
ATOM     24  C   UNL     1      51.475   6.186  16.635  0.00  0.00    +0.000 A 
ENDBRANCH  15  17
ENDBRANCH   1  15
TORSDOF 4
ENDMDL
