MODEL 1
REMARK VINA RESULT:    -8.526      0.000      0.000
REMARK INTER + INTRA:         -12.999
REMARK INTER:                 -12.015
REMARK INTRA:                  -0.984
REMARK UNBOUND:                -0.984
REMARK  Name = 
REMARK  7 active torsions:
REMARK  status: ('A' for Active; 'I' for Inactive)
REMARK    1  A    between atoms: C_2  and  C_4
REMARK    2  A    between atoms: C_7  and  N_8
REMARK    3  A    between atoms: N_8  and  C_9
REMARK    4  A    between atoms: C_9  and  C_10
REMARK    5  A    between atoms: C_10  and  C_13
REMARK    6  A    between atoms: C_15  and  S_16
REMARK    7  A    between atoms: S_16  and  C_17
REMARK                            x       y       z     vdW  Elec       q    Type
REMARK                         _______ _______ _______ _____ _____    ______ ____
ROOT
ATOM      1  C   UNL     1      43.337   4.666  12.688  0.00  0.00    +0.000 C 
ATOM      2  F   UNL     1      42.263   5.505  12.817  0.00  0.00    +0.000 F 
ATOM      3  F   UNL     1      43.215   3.774  13.723  0.00  0.00    +0.000 F 
ENDROOT
BRANCH   1   4
ATOM      4  C   UNL     1      44.657   5.436  12.759  0.00  0.00    +0.000 A 
ATOM      5  C   UNL     1      45.668   4.995  13.618  0.00  0.00    +0.000 A 
ATOM      6  C   UNL     1      46.840   5.748  13.734  0.00  0.00    +0.000 A 
ATOM      7  C   UNL     1      46.972   6.917  12.989  0.00  0.00    +0.000 A 
ATOM      8  C   UNL     1      45.936   7.280  12.151  0.00  0.00    +0.000 A 
ATOM      9  N   UNL     1      44.798   6.569  12.014  0.00  0.00    +0.000 NA
BRANCH   6  10
ATOM     10  S   UNL     1      48.053   5.363  14.979  0.00  0.00    +0.000 S 
BRANCH  10  11
ATOM     11  C   UNL     1      47.145   4.146  15.998  0.00  0.00    +0.000 C 
ATOM     12  C   UNL     1      47.153   4.571  17.486  0.00  0.00    +0.000 C 
ATOM     13  N   UNL     1      47.536   3.198  17.867  0.00  0.00    +0.000 NA
ATOM     14  C   UNL     1      47.975   2.941  16.477  0.00  0.00    +0.000 C 
ATOM     15  H   UNL     1      46.750   2.624  18.174  0.00  0.00    +0.000 HD
ENDBRANCH  10  11
ENDBRANCH   6  10
ENDBRANCH   1   4
BRANCH   1  16
ATOM     16  C   UNL     1      43.203   3.879  11.357  0.00  0.00    +0.000 C 
BRANCH  16  17
ATOM     17  N   UNL     1      43.773   4.569  10.177  0.00  0.00    +0.000 N 
ATOM     18  H   UNL     1      43.093   5.100   9.633  0.00  0.00    +0.000 HD
BRANCH  17  22
ATOM     19  C   UNL     1      46.529   2.525   7.709  0.00  0.00    +0.000 A 
ATOM     20  C   UNL     1      46.446   3.918   7.641  0.00  0.00    +0.000 A 
ATOM     21  C   UNL     1      45.548   4.608   8.466  0.00  0.00    +0.000 A 
ATOM     22  C   UNL     1      44.740   3.937   9.394  0.00  0.00    +0.000 A 
ATOM     23  C   UNL     1      44.820   2.537   9.430  0.00  0.00    +0.000 A 
ATOM     24  C   UNL     1      45.699   1.834   8.594  0.00  0.00    +0.000 A 
BRANCH  19  26
ATOM     25  N   UNL     1      48.562   2.399   6.375  0.00  0.00    +0.000 N 
ATOM     26  C   UNL     1      47.447   1.753   6.835  0.00  0.00    +0.000 C 
ATOM     27  O   UNL     1      47.243   0.576   6.562  0.00  0.00    +0.000 OA
ATOM     28  H   UNL     1      49.231   1.831   5.870  0.00  0.00    +0.000 HD
ATOM     29  H   UNL     1      48.886   3.269   6.774  0.00  0.00    +0.000 HD
ENDBRANCH  19  26
ENDBRANCH  17  22
ENDBRANCH  16  17
ENDBRANCH   1  16
TORSDOF 7
ENDMDL
MODEL 2
REMARK VINA RESULT:    -8.312      2.077      3.047
REMARK INTER + INTRA:         -12.698
REMARK INTER:                 -11.874
REMARK INTRA:                  -0.824
REMARK UNBOUND:                -0.984
REMARK  Name = 
REMARK  7 active torsions:
REMARK  status: ('A' for Active; 'I' for Inactive)
REMARK    1  A    between atoms: C_2  and  C_4
REMARK    2  A    between atoms: C_7  and  N_8
REMARK    3  A    between atoms: N_8  and  C_9
REMARK    4  A    between atoms: C_9  and  C_10
REMARK    5  A    between atoms: C_10  and  C_13
REMARK    6  A    between atoms: C_15  and  S_16
REMARK    7  A    between atoms: S_16  and  C_17
REMARK                            x       y       z     vdW  Elec       q    Type
REMARK                         _______ _______ _______ _____ _____    ______ ____
ROOT
ATOM      1  C   UNL     1      43.337   4.968  12.597  0.00  0.00    +0.000 C 
ATOM      2  F   UNL     1      42.750   6.188  12.387  0.00  0.00    +0.000 F 
ATOM      3  F   UNL     1      42.607   4.395  13.607  0.00  0.00    +0.000 F 
ENDROOT
BRANCH   1   4
ATOM      4  C   UNL     1      44.810   5.117  12.978  0.00  0.00    +0.000 A 
ATOM      5  C   UNL     1      45.451   6.345  12.794  0.00  0.00    +0.000 A 
ATOM      6  C   UNL     1      46.816   6.451  13.072  0.00  0.00    +0.000 A 
ATOM      7  C   UNL     1      47.504   5.330  13.528  0.00  0.00    +0.000 A 
ATOM      8  C   UNL     1      46.800   4.154  13.700  0.00  0.00    +0.000 A 
ATOM      9  N   UNL     1      45.481   4.026  13.446  0.00  0.00    +0.000 NA
BRANCH   6  10
ATOM     10  S   UNL     1      47.727   7.917  12.635  0.00  0.00    +0.000 S 
BRANCH  10  11
ATOM     11  C   UNL     1      49.446   7.293  12.672  0.00  0.00    +0.000 C 
ATOM     12  C   UNL     1      50.355   8.254  13.475  0.00  0.00    +0.000 C 
ATOM     13  N   UNL     1      51.354   8.200  12.390  0.00  0.00    +0.000 NA
ATOM     14  C   UNL     1      50.316   7.693  11.466  0.00  0.00    +0.000 C 
ATOM     15  H   UNL     1      52.117   7.546  12.568  0.00  0.00    +0.000 HD
ENDBRANCH  10  11
ENDBRANCH   6  10
ENDBRANCH   1   4
BRANCH   1  16
ATOM     16  C   UNL     1      43.160   4.101  11.322  0.00  0.00    +0.000 C 
BRANCH  16  17
ATOM     17  N   UNL     1      43.763   4.677  10.099  0.00  0.00    +0.000 N 
ATOM     18  H   UNL     1      43.110   5.201   9.516  0.00  0.00    +0.000 HD
BRANCH  17  22
ATOM     19  C   UNL     1      46.417   2.337   7.788  0.00  0.00    +0.000 A 
ATOM     20  C   UNL     1      46.419   3.726   7.641  0.00  0.00    +0.000 A 
ATOM     21  C   UNL     1      45.555   4.514   8.413  0.00  0.00    +0.000 A 
ATOM     22  C   UNL     1      44.699   3.946   9.366  0.00  0.00    +0.000 A 
ATOM     23  C   UNL     1      44.693   2.547   9.481  0.00  0.00    +0.000 A 
ATOM     24  C   UNL     1      45.537   1.747   8.698  0.00  0.00    +0.000 A 
BRANCH  19  26
ATOM     25  N   UNL     1      48.401   2.041   6.407  0.00  0.00    +0.000 N 
ATOM     26  C   UNL     1      47.296   1.463   6.971  0.00  0.00    +0.000 C 
ATOM     27  O   UNL     1      47.071   0.266   6.832  0.00  0.00    +0.000 OA
ATOM     28  H   UNL     1      49.046   1.413   5.944  0.00  0.00    +0.000 HD
ATOM     29  H   UNL     1      48.748   2.943   6.699  0.00  0.00    +0.000 HD
ENDBRANCH  19  26
ENDBRANCH  17  22
ENDBRANCH  16  17
ENDBRANCH   1  16
TORSDOF 7
ENDMDL
MODEL 3
REMARK VINA RESULT:    -8.195      1.455      1.708
REMARK INTER + INTRA:         -12.532
REMARK INTER:                 -11.442
REMARK INTRA:                  -1.090
REMARK UNBOUND:                -0.984
REMARK  Name = 
REMARK  7 active torsions:
REMARK  status: ('A' for Active; 'I' for Inactive)
REMARK    1  A    between atoms: C_2  and  C_4
REMARK    2  A    between atoms: C_7  and  N_8
REMARK    3  A    between atoms: N_8  and  C_9
REMARK    4  A    between atoms: C_9  and  C_10
REMARK    5  A    between atoms: C_10  and  C_13
REMARK    6  A    between atoms: C_15  and  S_16
REMARK    7  A    between atoms: S_16  and  C_17
REMARK                            x       y       z     vdW  Elec       q    Type
REMARK                         _______ _______ _______ _____ _____    ______ ____
ROOT
ATOM      1  C   UNL     1      43.797   4.671  12.511  0.00  0.00    +0.000 C 
ATOM      2  F   UNL     1      42.816   4.987  13.413  0.00  0.00    +0.000 F 
ATOM      3  F   UNL     1      44.454   3.601  13.064  0.00  0.00    +0.000 F 
ENDROOT
BRANCH   1   4
ATOM      4  C   UNL     1      44.740   5.852  12.276  0.00  0.00    +0.000 A 
ATOM      5  C   UNL     1      46.110   5.698  12.506  0.00  0.00    +0.000 A 
ATOM      6  C   UNL     1      46.953   6.803  12.364  0.00  0.00    +0.000 A 
ATOM      7  C   UNL     1      46.408   8.030  11.994  0.00  0.00    +0.000 A 
ATOM      8  C   UNL     1      45.047   8.101  11.769  0.00  0.00    +0.000 A 
ATOM      9  N   UNL     1      44.211   7.049  11.892  0.00  0.00    +0.000 NA
BRANCH   6  10
ATOM     10  S   UNL     1      48.659   6.722  12.869  0.00  0.00    +0.000 S 
BRANCH  10  11
ATOM     11  C   UNL     1      48.508   6.970  14.674  0.00  0.00    +0.000 C 
ATOM     12  C   UNL     1      49.906   6.989  15.338  0.00  0.00    +0.000 C 
ATOM     13  N   UNL     1      49.418   6.058  16.373  0.00  0.00    +0.000 NA
ATOM     14  C   UNL     1      48.284   5.687  15.497  0.00  0.00    +0.000 C 
ATOM     15  H   UNL     1      49.148   6.517  17.243  0.00  0.00    +0.000 HD
ENDBRANCH  10  11
ENDBRANCH   6  10
ENDBRANCH   1   4
BRANCH   1  16
ATOM     16  C   UNL     1      43.131   4.198  11.191  0.00  0.00    +0.000 C 
BRANCH  16  17
ATOM     17  N   UNL     1      43.749   4.744   9.962  0.00  0.00    +0.000 N 
ATOM     18  H   UNL     1      43.102   5.243   9.353  0.00  0.00    +0.000 HD
BRANCH  17  22
ATOM     19  C   UNL     1      46.466   2.370   7.760  0.00  0.00    +0.000 A 
ATOM     20  C   UNL     1      46.489   3.759   7.611  0.00  0.00    +0.000 A 
ATOM     21  C   UNL     1      45.604   4.558   8.348  0.00  0.00    +0.000 A 
ATOM     22  C   UNL     1      44.705   4.001   9.267  0.00  0.00    +0.000 A 
ATOM     23  C   UNL     1      44.681   2.603   9.385  0.00  0.00    +0.000 A 
ATOM     24  C   UNL     1      45.546   1.792   8.637  0.00  0.00    +0.000 A 
BRANCH  19  26
ATOM     25  N   UNL     1      48.435   2.073   6.359  0.00  0.00    +0.000 N 
ATOM     26  C   UNL     1      47.367   1.485   6.980  0.00  0.00    +0.000 C 
ATOM     27  O   UNL     1      47.192   0.274   6.920  0.00  0.00    +0.000 OA
ATOM     28  H   UNL     1      49.098   1.446   5.921  0.00  0.00    +0.000 HD
ATOM     29  H   UNL     1      48.748   3.006   6.588  0.00  0.00    +0.000 HD
ENDBRANCH  19  26
ENDBRANCH  17  22
ENDBRANCH  16  17
ENDBRANCH   1  16
TORSDOF 7
ENDMDL
MODEL 4
REMARK VINA RESULT:    -8.048      1.917      3.612
REMARK INTER + INTRA:         -12.325
REMARK INTER:                 -11.540
REMARK INTRA:                  -0.785
REMARK UNBOUND:                -0.984
REMARK  Name = 
REMARK  7 active torsions:
REMARK  status: ('A' for Active; 'I' for Inactive)
REMARK    1  A    between atoms: C_2  and  C_4
REMARK    2  A    between atoms: C_7  and  N_8
REMARK    3  A    between atoms: N_8  and  C_9
REMARK    4  A    between atoms: C_9  and  C_10
REMARK    5  A    between atoms: C_10  and  C_13
REMARK    6  A    between atoms: C_15  and  S_16
REMARK    7  A    between atoms: S_16  and  C_17
REMARK                            x       y       z     vdW  Elec       q    Type
REMARK                         _______ _______ _______ _____ _____    ______ ____
ROOT
ATOM      1  C   UNL     1      43.531   4.485  12.713  0.00  0.00    +0.000 C 
ATOM      2  F   UNL     1      42.605   5.385  13.168  0.00  0.00    +0.000 F 
ATOM      3  F   UNL     1      43.180   3.293  13.296  0.00  0.00    +0.000 F 
ENDROOT
BRANCH   1   4
ATOM      4  C   UNL     1      44.951   4.904  13.095  0.00  0.00    +0.000 A 
ATOM      5  C   UNL     1      45.495   6.072  12.555  0.00  0.00    +0.000 A 
ATOM      6  C   UNL     1      46.820   6.406  12.848  0.00  0.00    +0.000 A 
ATOM      7  C   UNL     1      47.565   5.567  13.673  0.00  0.00    +0.000 A 
ATOM      8  C   UNL     1      46.954   4.438  14.181  0.00  0.00    +0.000 A 
ATOM      9  N   UNL     1      45.675   4.095  13.921  0.00  0.00    +0.000 NA
BRANCH   6  10
ATOM     10  S   UNL     1      47.632   7.748  12.005  0.00  0.00    +0.000 S 
BRANCH  10  11
ATOM     11  C   UNL     1      46.886   9.195  12.837  0.00  0.00    +0.000 C 
ATOM     12  C   UNL     1      45.664   9.709  12.038  0.00  0.00    +0.000 C 
ATOM     13  N   UNL     1      46.177  11.088  12.158  0.00  0.00    +0.000 NA
ATOM     14  C   UNL     1      47.518  10.554  12.484  0.00  0.00    +0.000 C 
ATOM     15  H   UNL     1      45.740  11.623  12.909  0.00  0.00    +0.000 HD
ENDBRANCH  10  11
ENDBRANCH   6  10
ENDBRANCH   1   4
BRANCH   1  16
ATOM     16  C   UNL     1      43.372   4.334  11.176  0.00  0.00    +0.000 C 
BRANCH  16  17
ATOM     17  N   UNL     1      43.867   3.050  10.631  0.00  0.00    +0.000 N 
ATOM     18  H   UNL     1      44.050   2.338  11.337  0.00  0.00    +0.000 HD
BRANCH  17  22
ATOM     19  C   UNL     1      46.501   2.882   7.330  0.00  0.00    +0.000 A 
ATOM     20  C   UNL     1      46.043   4.122   7.781  0.00  0.00    +0.000 A 
ATOM     21  C   UNL     1      45.183   4.192   8.886  0.00  0.00    +0.000 A 
ATOM     22  C   UNL     1      44.786   3.042   9.580  0.00  0.00    +0.000 A 
ATOM     23  C   UNL     1      45.236   1.804   9.096  0.00  0.00    +0.000 A 
ATOM     24  C   UNL     1      46.080   1.720   7.980  0.00  0.00    +0.000 A 
BRANCH  19  26
ATOM     25  N   UNL     1      48.680   2.362   6.377  0.00  0.00    +0.000 N 
ATOM     26  C   UNL     1      47.391   2.761   6.149  0.00  0.00    +0.000 C 
ATOM     27  O   UNL     1      46.989   2.970   5.010  0.00  0.00    +0.000 OA
ATOM     28  H   UNL     1      49.244   2.181   5.556  0.00  0.00    +0.000 HD
ATOM     29  H   UNL     1      48.971   1.947   7.251  0.00  0.00    +0.000 HD
ENDBRANCH  19  26
ENDBRANCH  17  22
ENDBRANCH  16  17
ENDBRANCH   1  16
TORSDOF 7
ENDMDL
MODEL 5
REMARK VINA RESULT:    -7.400      2.640      3.144
REMARK INTER + INTRA:         -11.412
REMARK INTER:                 -10.429
REMARK INTRA:                  -0.983
REMARK UNBOUND:                -0.984
REMARK  Name = 
REMARK  7 active torsions:
REMARK  status: ('A' for Active; 'I' for Inactive)
REMARK    1  A    between atoms: C_2  and  C_4
REMARK    2  A    between atoms: C_7  and  N_8
REMARK    3  A    between atoms: N_8  and  C_9
REMARK    4  A    between atoms: C_9  and  C_10
REMARK    5  A    between atoms: C_10  and  C_13
REMARK    6  A    between atoms: C_15  and  S_16
REMARK    7  A    between atoms: S_16  and  C_17
REMARK                            x       y       z     vdW  Elec       q    Type
REMARK                         _______ _______ _______ _____ _____    ______ ____
ROOT
ATOM      1  C   UNL     1      43.229   5.376  12.421  0.00  0.00    +0.000 C 
ATOM      2  F   UNL     1      41.902   5.704  12.503  0.00  0.00    +0.000 F 
ATOM      3  F   UNL     1      43.521   4.784  13.623  0.00  0.00    +0.000 F 
ENDROOT
BRANCH   1   4
ATOM      4  C   UNL     1      44.095   6.613  12.176  0.00  0.00    +0.000 A 
ATOM      5  C   UNL     1      45.272   6.787  12.907  0.00  0.00    +0.000 A 
ATOM      6  C   UNL     1      46.017   7.957  12.733  0.00  0.00    +0.000 A 
ATOM      7  C   UNL     1      45.567   8.920  11.833  0.00  0.00    +0.000 A 
ATOM      8  C   UNL     1      44.402   8.670  11.135  0.00  0.00    +0.000 A 
ATOM      9  N   UNL     1      43.668   7.547  11.279  0.00  0.00    +0.000 NA
BRANCH   6  10
ATOM     10  S   UNL     1      47.390   8.335  13.802  0.00  0.00    +0.000 S 
BRANCH  10  11
ATOM     11  C   UNL     1      48.733   8.575  12.586  0.00  0.00    +0.000 C 
ATOM     12  C   UNL     1      48.849   7.344  11.655  0.00  0.00    +0.000 C 
ATOM     13  N   UNL     1      50.310   7.337  11.861  0.00  0.00    +0.000 NA
ATOM     14  C   UNL     1      50.138   8.172  13.070  0.00  0.00    +0.000 C 
ATOM     15  H   UNL     1      50.832   7.786  11.108  0.00  0.00    +0.000 HD
ENDBRANCH  10  11
ENDBRANCH   6  10
ENDBRANCH   1   4
BRANCH   1  16
ATOM     16  C   UNL     1      43.416   4.316  11.304  0.00  0.00    +0.000 C 
BRANCH  16  17
ATOM     17  N   UNL     1      44.017   4.838  10.056  0.00  0.00    +0.000 N 
ATOM     18  H   UNL     1      43.418   5.480   9.538  0.00  0.00    +0.000 HD
BRANCH  17  22
ATOM     19  C   UNL     1      46.500   2.406   7.651  0.00  0.00    +0.000 A 
ATOM     20  C   UNL     1      45.638   1.808   8.573  0.00  0.00    +0.000 A 
ATOM     21  C   UNL     1      44.798   2.604   9.364  0.00  0.00    +0.000 A 
ATOM     22  C   UNL     1      44.773   3.998   9.236  0.00  0.00    +0.000 A 
ATOM     23  C   UNL     1      45.664   4.581   8.321  0.00  0.00    +0.000 A 
ATOM     24  C   UNL     1      46.524   3.798   7.540  0.00  0.00    +0.000 A 
BRANCH  19  26
ATOM     25  N   UNL     1      48.601   2.195   6.438  0.00  0.00    +0.000 N 
ATOM     26  C   UNL     1      47.425   1.604   6.811  0.00  0.00    +0.000 C 
ATOM     27  O   UNL     1      47.172   0.448   6.493  0.00  0.00    +0.000 OA
ATOM     28  H   UNL     1      49.266   1.602   5.959  0.00  0.00    +0.000 HD
ATOM     29  H   UNL     1      48.949   3.034   6.880  0.00  0.00    +0.000 HD
ENDBRANCH  19  26
ENDBRANCH  17  22
ENDBRANCH  16  17
ENDBRANCH   1  16
TORSDOF 7
ENDMDL
MODEL 6
REMARK VINA RESULT:    -6.726      3.555      8.040
REMARK INTER + INTRA:         -10.463
REMARK INTER:                  -9.744
REMARK INTRA:                  -0.720
REMARK UNBOUND:                -0.984
REMARK  Name = 
REMARK  7 active torsions:
REMARK  status: ('A' for Active; 'I' for Inactive)
REMARK    1  A    between atoms: C_2  and  C_4
REMARK    2  A    between atoms: C_7  and  N_8
REMARK    3  A    between atoms: N_8  and  C_9
REMARK    4  A    between atoms: C_9  and  C_10
REMARK    5  A    between atoms: C_10  and  C_13
REMARK    6  A    between atoms: C_15  and  S_16
REMARK    7  A    between atoms: S_16  and  C_17
REMARK                            x       y       z     vdW  Elec       q    Type
REMARK                         _______ _______ _______ _____ _____    ______ ____
ROOT
ATOM      1  C   UNL     1      45.546   6.173  12.312  0.00  0.00    +0.000 C 
ATOM      2  F   UNL     1      44.553   6.765  13.045  0.00  0.00    +0.000 F 
ATOM      3  F   UNL     1      45.935   7.127  11.407  0.00  0.00    +0.000 F 
ENDROOT
BRANCH   1   4
ATOM      4  C   UNL     1      45.045   4.906  11.617  0.00  0.00    +0.000 A 
ATOM      5  C   UNL     1      45.369   4.680  10.276  0.00  0.00    +0.000 A 
ATOM      6  C   UNL     1      44.844   3.560   9.627  0.00  0.00    +0.000 A 
ATOM      7  C   UNL     1      44.011   2.695  10.332  0.00  0.00    +0.000 A 
ATOM      8  C   UNL     1      43.748   2.976  11.659  0.00  0.00    +0.000 A 
ATOM      9  N   UNL     1      44.248   4.045  12.312  0.00  0.00    +0.000 NA
BRANCH   6  10
ATOM     10  S   UNL     1      45.031   3.351   7.868  0.00  0.00    +0.000 S 
BRANCH  10  11
ATOM     11  C   UNL     1      46.729   2.683   7.767  0.00  0.00    +0.000 C 
ATOM     12  C   UNL     1      47.226   2.684   6.301  0.00  0.00    +0.000 C 
ATOM     13  N   UNL     1      47.697   1.295   6.470  0.00  0.00    +0.000 NA
ATOM     14  C   UNL     1      46.826   1.150   7.657  0.00  0.00    +0.000 C 
ATOM     15  H   UNL     1      48.696   1.223   6.666  0.00  0.00    +0.000 HD
ENDBRANCH  10  11
ENDBRANCH   6  10
ENDBRANCH   1   4
BRANCH   1  16
ATOM     16  C   UNL     1      46.750   5.876  13.246  0.00  0.00    +0.000 C 
BRANCH  16  17
ATOM     17  N   UNL     1      46.411   5.091  14.454  0.00  0.00    +0.000 N 
ATOM     18  H   UNL     1      45.527   5.353  14.890  0.00  0.00    +0.000 HD
BRANCH  17  22
ATOM     19  C   UNL     1      49.339   4.238  17.380  0.00  0.00    +0.000 A 
ATOM     20  C   UNL     1      48.468   3.228  16.964  0.00  0.00    +0.000 A 
ATOM     21  C   UNL     1      47.504   3.495  15.983  0.00  0.00    +0.000 A 
ATOM     22  C   UNL     1      47.405   4.753  15.374  0.00  0.00    +0.000 A 
ATOM     23  C   UNL     1      48.272   5.760  15.823  0.00  0.00    +0.000 A 
ATOM     24  C   UNL     1      49.226   5.512  16.819  0.00  0.00    +0.000 A 
BRANCH  19  26
ATOM     25  N   UNL     1      50.015   4.340  19.717  0.00  0.00    +0.000 N 
ATOM     26  C   UNL     1      50.357   4.007  18.435  0.00  0.00    +0.000 C 
ATOM     27  O   UNL     1      51.447   3.505  18.184  0.00  0.00    +0.000 OA
ATOM     28  H   UNL     1      50.675   4.079  20.438  0.00  0.00    +0.000 HD
ATOM     29  H   UNL     1      49.059   4.516  19.993  0.00  0.00    +0.000 HD
ENDBRANCH  19  26
ENDBRANCH  17  22
ENDBRANCH  16  17
ENDBRANCH   1  16
TORSDOF 7
ENDMDL
MODEL 7
REMARK VINA RESULT:    -6.673      2.478      2.975
REMARK INTER + INTRA:         -10.388
REMARK INTER:                  -9.693
REMARK INTRA:                  -0.694
REMARK UNBOUND:                -0.984
REMARK  Name = 
REMARK  7 active torsions:
REMARK  status: ('A' for Active; 'I' for Inactive)
REMARK    1  A    between atoms: C_2  and  C_4
REMARK    2  A    between atoms: C_7  and  N_8
REMARK    3  A    between atoms: N_8  and  C_9
REMARK    4  A    between atoms: C_9  and  C_10
REMARK    5  A    between atoms: C_10  and  C_13
REMARK    6  A    between atoms: C_15  and  S_16
REMARK    7  A    between atoms: S_16  and  C_17
REMARK                            x       y       z     vdW  Elec       q    Type
REMARK                         _______ _______ _______ _____ _____    ______ ____
ROOT
ATOM      1  C   UNL     1      45.068   6.342  12.165  0.00  0.00    +0.000 C 
ATOM      2  F   UNL     1      44.617   7.111  11.125  0.00  0.00    +0.000 F 
ATOM      3  F   UNL     1      44.280   6.694  13.231  0.00  0.00    +0.000 F 
ENDROOT
BRANCH   1   4
ATOM      4  C   UNL     1      46.549   6.600  12.448  0.00  0.00    +0.000 A 
ATOM      5  C   UNL     1      47.056   6.375  13.730  0.00  0.00    +0.000 A 
ATOM      6  C   UNL     1      48.391   6.687  14.000  0.00  0.00    +0.000 A 
ATOM      7  C   UNL     1      49.184   7.212  12.983  0.00  0.00    +0.000 A 
ATOM      8  C   UNL     1      48.617   7.392  11.737  0.00  0.00    +0.000 A 
ATOM      9  N   UNL     1      47.333   7.093  11.447  0.00  0.00    +0.000 NA
BRANCH   6  10
ATOM     10  S   UNL     1      49.023   6.642  15.664  0.00  0.00    +0.000 S 
BRANCH  10  11
ATOM     11  C   UNL     1      49.262   8.423  16.002  0.00  0.00    +0.000 C 
ATOM     12  C   UNL     1      50.410   8.632  17.020  0.00  0.00    +0.000 C 
ATOM     13  N   UNL     1      49.554   9.564  17.779  0.00  0.00    +0.000 NA
ATOM     14  C   UNL     1      48.360   9.010  17.104  0.00  0.00    +0.000 C 
ATOM     15  H   UNL     1      49.737  10.547  17.575  0.00  0.00    +0.000 HD
ENDBRANCH  10  11
ENDBRANCH   6  10
ENDBRANCH   1   4
BRANCH   1  16
ATOM     16  C   UNL     1      44.798   4.849  11.839  0.00  0.00    +0.000 C 
BRANCH  16  17
ATOM     17  N   UNL     1      44.171   4.612  10.519  0.00  0.00    +0.000 N 
ATOM     18  H   UNL     1      43.172   4.415  10.559  0.00  0.00    +0.000 HD
BRANCH  17  22
ATOM     19  C   UNL     1      46.412   2.483   7.638  0.00  0.00    +0.000 A 
ATOM     20  C   UNL     1      45.636   1.779   8.562  0.00  0.00    +0.000 A 
ATOM     21  C   UNL     1      44.875   2.475   9.511  0.00  0.00    +0.000 A 
ATOM     22  C   UNL     1      44.845   3.875   9.544  0.00  0.00    +0.000 A 
ATOM     23  C   UNL     1      45.651   4.563   8.624  0.00  0.00    +0.000 A 
ATOM     24  C   UNL     1      46.432   3.878   7.683  0.00  0.00    +0.000 A 
BRANCH  19  26
ATOM     25  N   UNL     1      48.186   2.537   5.970  0.00  0.00    +0.000 N 
ATOM     26  C   UNL     1      47.254   1.786   6.632  0.00  0.00    +0.000 C 
ATOM     27  O   UNL     1      47.150   0.583   6.424  0.00  0.00    +0.000 OA
ATOM     28  H   UNL     1      48.822   2.030   5.368  0.00  0.00    +0.000 HD
ATOM     29  H   UNL     1      48.467   3.454   6.287  0.00  0.00    +0.000 HD
ENDBRANCH  19  26
ENDBRANCH  17  22
ENDBRANCH  16  17
ENDBRANCH   1  16
TORSDOF 7
ENDMDL
MODEL 8
REMARK VINA RESULT:    -6.592      3.459      5.014
REMARK INTER + INTRA:         -10.274
REMARK INTER:                  -8.950
REMARK INTRA:                  -1.323
REMARK UNBOUND:                -0.984
REMARK  Name = 
REMARK  7 active torsions:
REMARK  status: ('A' for Active; 'I' for Inactive)
REMARK    1  A    between atoms: C_2  and  C_4
REMARK    2  A    between atoms: C_7  and  N_8
REMARK    3  A    between atoms: N_8  and  C_9
REMARK    4  A    between atoms: C_9  and  C_10
REMARK    5  A    between atoms: C_10  and  C_13
REMARK    6  A    between atoms: C_15  and  S_16
REMARK    7  A    between atoms: S_16  and  C_17
REMARK                            x       y       z     vdW  Elec       q    Type
REMARK                         _______ _______ _______ _____ _____    ______ ____
ROOT
ATOM      1  C   UNL     1      48.757   7.990  13.006  0.00  0.00    +0.000 C 
ATOM      2  F   UNL     1      49.096   6.782  12.458  0.00  0.00    +0.000 F 
ATOM      3  F   UNL     1      49.656   8.881  12.479  0.00  0.00    +0.000 F 
ENDROOT
BRANCH   1   4
ATOM      4  C   UNL     1      48.830   7.949  14.533  0.00  0.00    +0.000 A 
ATOM      5  C   UNL     1      49.312   6.803  15.171  0.00  0.00    +0.000 A 
ATOM      6  C   UNL     1      49.303   6.745  16.567  0.00  0.00    +0.000 A 
ATOM      7  C   UNL     1      48.815   7.832  17.288  0.00  0.00    +0.000 A 
ATOM      8  C   UNL     1      48.370   8.936  16.588  0.00  0.00    +0.000 A 
ATOM      9  N   UNL     1      48.374   9.021  15.241  0.00  0.00    +0.000 NA
BRANCH   6  10
ATOM     10  S   UNL     1      49.682   5.230  17.422  0.00  0.00    +0.000 S 
BRANCH  10  11
ATOM     11  C   UNL     1      48.017   4.694  17.955  0.00  0.00    +0.000 C 
ATOM     12  C   UNL     1      48.042   3.213  18.403  0.00  0.00    +0.000 C 
ATOM     13  N   UNL     1      46.836   2.957  17.592  0.00  0.00    +0.000 NA
ATOM     14  C   UNL     1      47.095   4.197  16.827  0.00  0.00    +0.000 C 
ATOM     15  H   UNL     1      45.970   2.966  18.131  0.00  0.00    +0.000 HD
ENDBRANCH  10  11
ENDBRANCH   6  10
ENDBRANCH   1   4
BRANCH   1  16
ATOM     16  C   UNL     1      47.340   8.385  12.511  0.00  0.00    +0.000 C 
BRANCH  16  17
ATOM     17  N   UNL     1      46.230   7.767  13.270  0.00  0.00    +0.000 N 
ATOM     18  H   UNL     1      46.335   7.817  14.283  0.00  0.00    +0.000 HD
BRANCH  17  22
ATOM     19  C   UNL     1      44.588   4.194  11.722  0.00  0.00    +0.000 A 
ATOM     20  C   UNL     1      45.425   4.138  12.839  0.00  0.00    +0.000 A 
ATOM     21  C   UNL     1      45.961   5.318  13.372  0.00  0.00    +0.000 A 
ATOM     22  C   UNL     1      45.656   6.573  12.830  0.00  0.00    +0.000 A 
ATOM     23  C   UNL     1      44.834   6.606  11.693  0.00  0.00    +0.000 A 
ATOM     24  C   UNL     1      44.309   5.431  11.138  0.00  0.00    +0.000 A 
BRANCH  19  26
ATOM     25  N   UNL     1      44.732   2.387  10.095  0.00  0.00    +0.000 N 
ATOM     26  C   UNL     1      44.020   2.967  11.110  0.00  0.00    +0.000 C 
ATOM     27  O   UNL     1      42.977   2.465  11.513  0.00  0.00    +0.000 OA
ATOM     28  H   UNL     1      44.389   1.496   9.761  0.00  0.00    +0.000 HD
ATOM     29  H   UNL     1      45.697   2.621   9.910  0.00  0.00    +0.000 HD
ENDBRANCH  19  26
ENDBRANCH  17  22
ENDBRANCH  16  17
ENDBRANCH   1  16
TORSDOF 7
ENDMDL
MODEL 9
REMARK VINA RESULT:    -6.277      4.283      8.302
REMARK INTER + INTRA:          -9.829
REMARK INTER:                  -9.206
REMARK INTRA:                  -0.624
REMARK UNBOUND:                -0.984
REMARK  Name = 
REMARK  7 active torsions:
REMARK  status: ('A' for Active; 'I' for Inactive)
REMARK    1  A    between atoms: C_2  and  C_4
REMARK    2  A    between atoms: C_7  and  N_8
REMARK    3  A    between atoms: N_8  and  C_9
REMARK    4  A    between atoms: C_9  and  C_10
REMARK    5  A    between atoms: C_10  and  C_13
REMARK    6  A    between atoms: C_15  and  S_16
REMARK    7  A    between atoms: S_16  and  C_17
REMARK                            x       y       z     vdW  Elec       q    Type
REMARK                         _______ _______ _______ _____ _____    ______ ____
ROOT
ATOM      1  C   UNL     1      47.568   4.418  15.747  0.00  0.00    +0.000 C 
ATOM      2  F   UNL     1      47.819   3.102  15.463  0.00  0.00    +0.000 F 
ATOM      3  F   UNL     1      46.415   4.404  16.491  0.00  0.00    +0.000 F 
ENDROOT
BRANCH   1   4
ATOM      4  C   UNL     1      47.405   5.243  14.469  0.00  0.00    +0.000 A 
ATOM      5  C   UNL     1      46.343   4.972  13.602  0.00  0.00    +0.000 A 
ATOM      6  C   UNL     1      46.247   5.678  12.400  0.00  0.00    +0.000 A 
ATOM      7  C   UNL     1      47.211   6.635  12.097  0.00  0.00    +0.000 A 
ATOM      8  C   UNL     1      48.223   6.858  13.010  0.00  0.00    +0.000 A 
ATOM      9  N   UNL     1      48.336   6.197  14.180  0.00  0.00    +0.000 NA
BRANCH   6  10
ATOM     10  S   UNL     1      45.057   5.212  11.160  0.00  0.00    +0.000 S 
BRANCH  10  11
ATOM     11  C   UNL     1      44.730   3.472  11.615  0.00  0.00    +0.000 C 
ATOM     12  C   UNL     1      43.988   2.742  10.469  0.00  0.00    +0.000 C 
ATOM     13  N   UNL     1      43.031   2.195  11.450  0.00  0.00    +0.000 NA
ATOM     14  C   UNL     1      43.439   3.235  12.420  0.00  0.00    +0.000 C 
ATOM     15  H   UNL     1      43.242   1.240  11.740  0.00  0.00    +0.000 HD
ENDBRANCH  10  11
ENDBRANCH   6  10
ENDBRANCH   1   4
BRANCH   1  16
ATOM     16  C   UNL     1      48.712   4.966  16.641  0.00  0.00    +0.000 C 
BRANCH  16  17
ATOM     17  N   UNL     1      49.009   4.139  17.833  0.00  0.00    +0.000 N 
ATOM     18  H   UNL     1      48.736   4.564  18.717  0.00  0.00    +0.000 HD
BRANCH  17  22
ATOM     19  C   UNL     1      52.611   1.928  17.824  0.00  0.00    +0.000 A 
ATOM     20  C   UNL     1      52.603   3.227  18.338  0.00  0.00    +0.000 A 
ATOM     21  C   UNL     1      51.411   3.964  18.362  0.00  0.00    +0.000 A 
ATOM     22  C   UNL     1      50.203   3.419  17.907  0.00  0.00    +0.000 A 
ATOM     23  C   UNL     1      50.237   2.123  17.372  0.00  0.00    +0.000 A 
ATOM     24  C   UNL     1      51.427   1.384  17.323  0.00  0.00    +0.000 A 
BRANCH  19  26
ATOM     25  N   UNL     1      54.034   0.165  18.717  0.00  0.00    +0.000 N 
ATOM     26  C   UNL     1      53.856   1.123  17.756  0.00  0.00    +0.000 C 
ATOM     27  O   UNL     1      54.678   1.275  16.859  0.00  0.00    +0.000 OA
ATOM     28  H   UNL     1      54.831  -0.446  18.597  0.00  0.00    +0.000 HD
ATOM     29  H   UNL     1      53.280  -0.153  19.309  0.00  0.00    +0.000 HD
ENDBRANCH  19  26
ENDBRANCH  17  22
ENDBRANCH  16  17
ENDBRANCH   1  16
TORSDOF 7
ENDMDL
