MODEL 1
REMARK VINA RESULT:    -8.380      0.000      0.000
REMARK INTER + INTRA:         -12.169
REMARK INTER:                 -11.319
REMARK INTRA:                  -0.849
REMARK UNBOUND:                -0.849
REMARK  Name = 
REMARK  9 active torsions:
REMARK  status: ('A' for Active; 'I' for Inactive)
REMARK    1  A    between atoms: C_1  and  N_2
REMARK    2  A    between atoms: N_5  and  C_6
REMARK    3  A    between atoms: C_10  and  C_11
REMARK    4  A    between atoms: C_11  and  C_12
REMARK    5  A    between atoms: C_11  and  C_13
REMARK    6  A    between atoms: C_11  and  C_14
REMARK    7  A    between atoms: C_14  and  N_15
REMARK    8  A    between atoms: N_15  and  C_16
REMARK    9  A    between atoms: C_19  and  C_20
REMARK                            x       y       z     vdW  Elec       q    Type
REMARK                         _______ _______ _______ _____ _____    ______ ____
ROOT
ATOM      1  C   UNL     1      44.019   4.637  12.087  0.00  0.00    +0.000 C 
ATOM      2  C   UNL     1      44.149   3.151  12.497  0.00  0.00    +0.000 C 
ATOM      3  C   UNL     1      42.858   5.275  12.885  0.00  0.00    +0.000 C 
ENDROOT
BRANCH   1   8
ATOM      4  C   UNL     1      47.228   5.708  13.971  0.00  0.00    +0.000 A 
ATOM      5  C   UNL     1      47.900   6.375  12.943  0.00  0.00    +0.000 A 
ATOM      6  C   UNL     1      47.305   6.586  11.697  0.00  0.00    +0.000 A 
ATOM      7  C   UNL     1      46.042   6.064  11.426  0.00  0.00    +0.000 A 
ATOM      8  C   UNL     1      45.336   5.365  12.413  0.00  0.00    +0.000 A 
ATOM      9  C   UNL     1      45.921   5.296  13.690  0.00  0.00    +0.000 A 
BRANCH   4  14
ATOM     10  C   UNL     1      48.281   5.313  19.418  0.00  0.00    +0.000 C 
ATOM     11  N   UNL     1      48.470   5.082  17.990  0.00  0.00    +0.000 NA
ATOM     12  C   UNL     1      47.280   4.435  17.397  0.00  0.00    +0.000 C 
ATOM     13  C   UNL     1      47.465   4.145  15.887  0.00  0.00    +0.000 C 
ATOM     14  N   UNL     1      47.822   5.376  15.170  0.00  0.00    +0.000 N 
ATOM     15  C   UNL     1      48.943   6.130  15.759  0.00  0.00    +0.000 C 
ATOM     16  C   UNL     1      48.723   6.353  17.275  0.00  0.00    +0.000 C 
ENDBRANCH   4  14
ENDBRANCH   1   8
BRANCH   1  17
ATOM     17  C   UNL     1      43.628   4.643  10.574  0.00  0.00    +0.000 C 
BRANCH  17  18
ATOM     18  N   UNL     1      43.728   3.329   9.916  0.00  0.00    +0.000 N 
ATOM     19  H   UNL     1      42.845   2.942   9.581  0.00  0.00    +0.000 HD
BRANCH  18  20
ATOM     20  C   UNL     1      44.801   3.090   9.061  0.00  0.00    +0.000 A 
ATOM     21  C   UNL     1      45.351   1.840   8.817  0.00  0.00    +0.000 A 
ATOM     22  N   UNL     1      46.300   1.570   7.900  0.00  0.00    +0.000 NA
ATOM     23  C   UNL     1      46.708   2.632   7.168  0.00  0.00    +0.000 A 
ATOM     24  N   UNL     1      46.273   3.893   7.297  0.00  0.00    +0.000 NA
ATOM     25  C   UNL     1      45.319   4.082   8.238  0.00  0.00    +0.000 A 
BRANCH  23  26
ATOM     26  C   UNL     1      47.712   2.317   6.080  0.00  0.00    +0.000 C 
ATOM     27  N   UNL     1      47.702   3.179   5.007  0.00  0.00    +0.000 N 
ATOM     28  O   UNL     1      48.495   1.374   6.121  0.00  0.00    +0.000 OA
ATOM     29  H   UNL     1      47.064   3.966   4.996  0.00  0.00    +0.000 HD
ATOM     30  H   UNL     1      48.361   3.035   4.255  0.00  0.00    +0.000 HD
ENDBRANCH  23  26
ENDBRANCH  18  20
ENDBRANCH  17  18
ENDBRANCH   1  17
TORSDOF 6
ENDMDL
MODEL 2
REMARK VINA RESULT:    -7.436      2.259      3.764
REMARK INTER + INTRA:         -10.894
REMARK INTER:                 -10.297
REMARK INTRA:                  -0.597
REMARK UNBOUND:                -0.849
REMARK  Name = 
REMARK  9 active torsions:
REMARK  status: ('A' for Active; 'I' for Inactive)
REMARK    1  A    between atoms: C_1  and  N_2
REMARK    2  A    between atoms: N_5  and  C_6
REMARK    3  A    between atoms: C_10  and  C_11
REMARK    4  A    between atoms: C_11  and  C_12
REMARK    5  A    between atoms: C_11  and  C_13
REMARK    6  A    between atoms: C_11  and  C_14
REMARK    7  A    between atoms: C_14  and  N_15
REMARK    8  A    between atoms: N_15  and  C_16
REMARK    9  A    between atoms: C_19  and  C_20
REMARK                            x       y       z     vdW  Elec       q    Type
REMARK                         _______ _______ _______ _____ _____    ______ ____
ROOT
ATOM      1  C   UNL     1      44.233   4.688  12.296  0.00  0.00    +0.000 C 
ATOM      2  C   UNL     1      44.165   3.143  12.283  0.00  0.00    +0.000 C 
ATOM      3  C   UNL     1      43.095   5.230  13.192  0.00  0.00    +0.000 C 
ENDROOT
BRANCH   1   8
ATOM      4  C   UNL     1      47.444   6.772  12.883  0.00  0.00    +0.000 A 
ATOM      5  C   UNL     1      47.897   6.188  14.069  0.00  0.00    +0.000 A 
ATOM      6  C   UNL     1      47.263   5.073  14.624  0.00  0.00    +0.000 A 
ATOM      7  C   UNL     1      46.107   4.561  14.039  0.00  0.00    +0.000 A 
ATOM      8  C   UNL     1      45.596   5.126  12.865  0.00  0.00    +0.000 A 
ATOM      9  C   UNL     1      46.345   6.159  12.273  0.00  0.00    +0.000 A 
BRANCH   4  14
ATOM     10  C   UNL     1      50.560  11.333  12.240  0.00  0.00    +0.000 C 
ATOM     11  N   UNL     1      49.540  10.342  11.914  0.00  0.00    +0.000 NA
ATOM     12  C   UNL     1      50.133   8.994  11.792  0.00  0.00    +0.000 C 
ATOM     13  C   UNL     1      49.079   7.924  11.411  0.00  0.00    +0.000 C 
ATOM     14  N   UNL     1      47.966   7.940  12.370  0.00  0.00    +0.000 N 
ATOM     15  C   UNL     1      47.382   9.270  12.617  0.00  0.00    +0.000 C 
ATOM     16  C   UNL     1      48.485  10.304  12.951  0.00  0.00    +0.000 C 
ENDBRANCH   4  14
ENDBRANCH   1   8
BRANCH   1  17
ATOM     17  C   UNL     1      43.959   5.153  10.830  0.00  0.00    +0.000 C 
BRANCH  17  18
ATOM     18  N   UNL     1      43.574   4.069   9.911  0.00  0.00    +0.000 N 
ATOM     19  H   UNL     1      42.653   4.167   9.483  0.00  0.00    +0.000 HD
BRANCH  18  20
ATOM     20  C   UNL     1      44.536   3.550   9.047  0.00  0.00    +0.000 A 
ATOM     21  C   UNL     1      45.379   4.316   8.256  0.00  0.00    +0.000 A 
ATOM     22  N   UNL     1      46.399   3.841   7.514  0.00  0.00    +0.000 NA
ATOM     23  C   UNL     1      46.591   2.504   7.592  0.00  0.00    +0.000 A 
ATOM     24  N   UNL     1      45.853   1.643   8.307  0.00  0.00    +0.000 NA
ATOM     25  C   UNL     1      44.850   2.197   9.026  0.00  0.00    +0.000 A 
BRANCH  23  26
ATOM     26  C   UNL     1      47.786   1.979   6.829  0.00  0.00    +0.000 C 
ATOM     27  N   UNL     1      48.685   2.937   6.416  0.00  0.00    +0.000 N 
ATOM     28  O   UNL     1      47.977   0.792   6.583  0.00  0.00    +0.000 OA
ATOM     29  H   UNL     1      48.526   3.911   6.644  0.00  0.00    +0.000 HD
ATOM     30  H   UNL     1      49.515   2.650   5.918  0.00  0.00    +0.000 HD
ENDBRANCH  23  26
ENDBRANCH  18  20
ENDBRANCH  17  18
ENDBRANCH   1  17
TORSDOF 6
ENDMDL
MODEL 3
REMARK VINA RESULT:    -7.331      2.188      2.678
REMARK INTER + INTRA:         -10.752
REMARK INTER:                 -10.194
REMARK INTRA:                  -0.558
REMARK UNBOUND:                -0.849
REMARK  Name = 
REMARK  9 active torsions:
REMARK  status: ('A' for Active; 'I' for Inactive)
REMARK    1  A    between atoms: C_1  and  N_2
REMARK    2  A    between atoms: N_5  and  C_6
REMARK    3  A    between atoms: C_10  and  C_11
REMARK    4  A    between atoms: C_11  and  C_12
REMARK    5  A    between atoms: C_11  and  C_13
REMARK    6  A    between atoms: C_11  and  C_14
REMARK    7  A    between atoms: C_14  and  N_15
REMARK    8  A    between atoms: N_15  and  C_16
REMARK    9  A    between atoms: C_19  and  C_20
REMARK                            x       y       z     vdW  Elec       q    Type
REMARK                         _______ _______ _______ _____ _____    ______ ____
ROOT
ATOM      1  C   UNL     1      44.277   5.358  12.060  0.00  0.00    +0.000 C 
ATOM      2  C   UNL     1      45.327   4.265  12.365  0.00  0.00    +0.000 C 
ATOM      3  C   UNL     1      43.110   5.226  13.068  0.00  0.00    +0.000 C 
ENDROOT
BRANCH   1   8
ATOM      4  C   UNL     1      46.954   8.074  12.732  0.00  0.00    +0.000 A 
ATOM      5  C   UNL     1      46.317   9.184  12.170  0.00  0.00    +0.000 A 
ATOM      6  C   UNL     1      45.010   9.109  11.682  0.00  0.00    +0.000 A 
ATOM      7  C   UNL     1      44.333   7.891  11.679  0.00  0.00    +0.000 A 
ATOM      8  C   UNL     1      44.935   6.742  12.206  0.00  0.00    +0.000 A 
ATOM      9  C   UNL     1      46.198   6.900  12.805  0.00  0.00    +0.000 A 
BRANCH   4  14
ATOM     10  C   UNL     1      51.575   8.589  15.782  0.00  0.00    +0.000 C 
ATOM     11  N   UNL     1      50.764   8.293  14.606  0.00  0.00    +0.000 NA
ATOM     12  C   UNL     1      49.775   7.235  14.899  0.00  0.00    +0.000 C 
ATOM     13  C   UNL     1      48.922   6.874  13.658  0.00  0.00    +0.000 C 
ATOM     14  N   UNL     1      48.279   8.077  13.112  0.00  0.00    +0.000 N 
ATOM     15  C   UNL     1      49.189   9.213  12.882  0.00  0.00    +0.000 C 
ATOM     16  C   UNL     1      50.044   9.499  14.140  0.00  0.00    +0.000 C 
ENDBRANCH   4  14
ENDBRANCH   1   8
BRANCH   1  17
ATOM     17  C   UNL     1      43.721   5.048  10.633  0.00  0.00    +0.000 C 
BRANCH  17  18
ATOM     18  N   UNL     1      43.878   3.646  10.212  0.00  0.00    +0.000 N 
ATOM     19  H   UNL     1      43.007   3.141  10.046  0.00  0.00    +0.000 HD
BRANCH  18  20
ATOM     20  C   UNL     1      44.887   3.328   9.305  0.00  0.00    +0.000 A 
ATOM     21  C   UNL     1      45.356   2.046   9.066  0.00  0.00    +0.000 A 
ATOM     22  N   UNL     1      46.237   1.703   8.105  0.00  0.00    +0.000 NA
ATOM     23  C   UNL     1      46.656   2.723   7.322  0.00  0.00    +0.000 A 
ATOM     24  N   UNL     1      46.295   4.008   7.440  0.00  0.00    +0.000 NA
ATOM     25  C   UNL     1      45.407   4.271   8.427  0.00  0.00    +0.000 A 
BRANCH  23  26
ATOM     26  C   UNL     1      47.578   2.328   6.189  0.00  0.00    +0.000 C 
ATOM     27  N   UNL     1      47.530   3.146   5.083  0.00  0.00    +0.000 N 
ATOM     28  O   UNL     1      48.331   1.360   6.221  0.00  0.00    +0.000 OA
ATOM     29  H   UNL     1      46.919   3.955   5.077  0.00  0.00    +0.000 HD
ATOM     30  H   UNL     1      48.135   2.949   4.299  0.00  0.00    +0.000 HD
ENDBRANCH  23  26
ENDBRANCH  18  20
ENDBRANCH  17  18
ENDBRANCH   1  17
TORSDOF 6
ENDMDL
MODEL 4
REMARK VINA RESULT:    -7.179      2.721      8.142
REMARK INTER + INTRA:         -10.546
REMARK INTER:                 -10.165
REMARK INTRA:                  -0.381
REMARK UNBOUND:                -0.849
REMARK  Name = 
REMARK  9 active torsions:
REMARK  status: ('A' for Active; 'I' for Inactive)
REMARK    1  A    between atoms: C_1  and  N_2
REMARK    2  A    between atoms: N_5  and  C_6
REMARK    3  A    between atoms: C_10  and  C_11
REMARK    4  A    between atoms: C_11  and  C_12
REMARK    5  A    between atoms: C_11  and  C_13
REMARK    6  A    between atoms: C_11  and  C_14
REMARK    7  A    between atoms: C_14  and  N_15
REMARK    8  A    between atoms: N_15  and  C_16
REMARK    9  A    between atoms: C_19  and  C_20
REMARK                            x       y       z     vdW  Elec       q    Type
REMARK                         _______ _______ _______ _____ _____    ______ ____
ROOT
ATOM      1  C   UNL     1      46.482   7.080  12.647  0.00  0.00    +0.000 C 
ATOM      2  C   UNL     1      47.406   7.471  11.471  0.00  0.00    +0.000 C 
ATOM      3  C   UNL     1      45.825   8.361  13.214  0.00  0.00    +0.000 C 
ENDROOT
BRANCH   1   8
ATOM      4  C   UNL     1      44.673   4.449  10.456  0.00  0.00    +0.000 A 
ATOM      5  C   UNL     1      43.623   4.104  11.311  0.00  0.00    +0.000 A 
ATOM      6  C   UNL     1      43.417   4.770  12.521  0.00  0.00    +0.000 A 
ATOM      7  C   UNL     1      44.309   5.755  12.940  0.00  0.00    +0.000 A 
ATOM      8  C   UNL     1      45.393   6.120  12.133  0.00  0.00    +0.000 A 
ATOM      9  C   UNL     1      45.480   5.515  10.866  0.00  0.00    +0.000 A 
BRANCH   4  14
ATOM     10  C   UNL     1      47.410   1.348   6.738  0.00  0.00    +0.000 C 
ATOM     11  N   UNL     1      46.301   2.112   7.298  0.00  0.00    +0.000 NA
ATOM     12  C   UNL     1      45.865   1.541   8.590  0.00  0.00    +0.000 C 
ATOM     13  C   UNL     1      44.664   2.310   9.193  0.00  0.00    +0.000 C 
ATOM     14  N   UNL     1      44.981   3.739   9.315  0.00  0.00    +0.000 N 
ATOM     15  C   UNL     1      45.514   4.360   8.089  0.00  0.00    +0.000 C 
ATOM     16  C   UNL     1      46.682   3.526   7.510  0.00  0.00    +0.000 C 
ENDBRANCH   4  14
ENDBRANCH   1   8
BRANCH   1  17
ATOM     17  C   UNL     1      47.409   6.481  13.754  0.00  0.00    +0.000 C 
BRANCH  17  18
ATOM     18  N   UNL     1      46.760   5.474  14.610  0.00  0.00    +0.000 N 
ATOM     19  H   UNL     1      45.970   4.986  14.186  0.00  0.00    +0.000 HD
BRANCH  18  20
ATOM     20  C   UNL     1      47.559   4.655  15.404  0.00  0.00    +0.000 A 
ATOM     21  C   UNL     1      47.720   3.291  15.218  0.00  0.00    +0.000 A 
ATOM     22  N   UNL     1      48.584   2.507  15.891  0.00  0.00    +0.000 NA
ATOM     23  C   UNL     1      49.350   3.150  16.803  0.00  0.00    +0.000 A 
ATOM     24  N   UNL     1      49.299   4.457  17.094  0.00  0.00    +0.000 NA
ATOM     25  C   UNL     1      48.408   5.176  16.373  0.00  0.00    +0.000 A 
BRANCH  23  26
ATOM     26  C   UNL     1      50.381   2.289  17.500  0.00  0.00    +0.000 C 
ATOM     27  N   UNL     1      51.185   2.951  18.400  0.00  0.00    +0.000 N 
ATOM     28  O   UNL     1      50.515   1.086  17.306  0.00  0.00    +0.000 OA
ATOM     29  H   UNL     1      51.049   3.942  18.567  0.00  0.00    +0.000 HD
ATOM     30  H   UNL     1      51.880   2.430  18.914  0.00  0.00    +0.000 HD
ENDBRANCH  23  26
ENDBRANCH  18  20
ENDBRANCH  17  18
ENDBRANCH   1  17
TORSDOF 6
ENDMDL
MODEL 5
REMARK VINA RESULT:    -7.135      3.154      8.824
REMARK INTER + INTRA:         -10.487
REMARK INTER:                  -9.795
REMARK INTRA:                  -0.692
REMARK UNBOUND:                -0.849
REMARK  Name = 
REMARK  9 active torsions:
REMARK  status: ('A' for Active; 'I' for Inactive)
REMARK    1  A    between atoms: C_1  and  N_2
REMARK    2  A    between atoms: N_5  and  C_6
REMARK    3  A    between atoms: C_10  and  C_11
REMARK    4  A    between atoms: C_11  and  C_12
REMARK    5  A    between atoms: C_11  and  C_13
REMARK    6  A    between atoms: C_11  and  C_14
REMARK    7  A    between atoms: C_14  and  N_15
REMARK    8  A    between atoms: N_15  and  C_16
REMARK    9  A    between atoms: C_19  and  C_20
REMARK                            x       y       z     vdW  Elec       q    Type
REMARK                         _______ _______ _______ _____ _____    ______ ____
ROOT
ATOM      1  C   UNL     1      47.218   7.149  12.551  0.00  0.00    +0.000 C 
ATOM      2  C   UNL     1      48.190   7.578  11.428  0.00  0.00    +0.000 C 
ATOM      3  C   UNL     1      46.832   8.397  13.381  0.00  0.00    +0.000 C 
ENDROOT
BRANCH   1   8
ATOM      4  C   UNL     1      44.967   5.013  10.236  0.00  0.00    +0.000 A 
ATOM      5  C   UNL     1      43.754   5.108  10.925  0.00  0.00    +0.000 A 
ATOM      6  C   UNL     1      43.613   5.927  12.047  0.00  0.00    +0.000 A 
ATOM      7  C   UNL     1      44.712   6.617  12.554  0.00  0.00    +0.000 A 
ATOM      8  C   UNL     1      45.957   6.535  11.918  0.00  0.00    +0.000 A 
ATOM      9  C   UNL     1      46.014   5.806  10.716  0.00  0.00    +0.000 A 
BRANCH   4  14
ATOM     10  C   UNL     1      47.163   0.984   7.093  0.00  0.00    +0.000 C 
ATOM     11  N   UNL     1      46.222   2.031   7.476  0.00  0.00    +0.000 NA
ATOM     12  C   UNL     1      45.584   1.721   8.772  0.00  0.00    +0.000 C 
ATOM     13  C   UNL     1      44.553   2.798   9.189  0.00  0.00    +0.000 C 
ATOM     14  N   UNL     1      45.179   4.128   9.201  0.00  0.00    +0.000 N 
ATOM     15  C   UNL     1      45.918   4.473   7.973  0.00  0.00    +0.000 C 
ATOM     16  C   UNL     1      46.901   3.342   7.584  0.00  0.00    +0.000 C 
ENDBRANCH   4  14
ENDBRANCH   1   8
BRANCH   1  17
ATOM     17  C   UNL     1      48.019   6.180  13.479  0.00  0.00    +0.000 C 
BRANCH  17  18
ATOM     18  N   UNL     1      47.185   5.410  14.418  0.00  0.00    +0.000 N 
ATOM     19  H   UNL     1      46.680   4.624  14.007  0.00  0.00    +0.000 HD
BRANCH  18  20
ATOM     20  C   UNL     1      47.679   5.150  15.694  0.00  0.00    +0.000 A 
ATOM     21  C   UNL     1      48.607   5.940  16.356  0.00  0.00    +0.000 A 
ATOM     22  N   UNL     1      48.999   5.778  17.634  0.00  0.00    +0.000 NA
ATOM     23  C   UNL     1      48.400   4.760  18.294  0.00  0.00    +0.000 A 
ATOM     24  N   UNL     1      47.495   3.914  17.782  0.00  0.00    +0.000 NA
ATOM     25  C   UNL     1      47.152   4.144  16.493  0.00  0.00    +0.000 A 
BRANCH  23  26
ATOM     26  C   UNL     1      48.775   4.629  19.753  0.00  0.00    +0.000 C 
ATOM     27  N   UNL     1      48.486   3.410  20.325  0.00  0.00    +0.000 N 
ATOM     28  O   UNL     1      49.303   5.520  20.410  0.00  0.00    +0.000 OA
ATOM     29  H   UNL     1      48.069   2.675  19.765  0.00  0.00    +0.000 HD
ATOM     30  H   UNL     1      48.729   3.250  21.292  0.00  0.00    +0.000 HD
ENDBRANCH  23  26
ENDBRANCH  18  20
ENDBRANCH  17  18
ENDBRANCH   1  17
TORSDOF 6
ENDMDL
MODEL 6
REMARK VINA RESULT:    -6.767      3.858      7.932
REMARK INTER + INTRA:          -9.990
REMARK INTER:                  -8.851
REMARK INTRA:                  -1.139
REMARK UNBOUND:                -0.849
REMARK  Name = 
REMARK  9 active torsions:
REMARK  status: ('A' for Active; 'I' for Inactive)
REMARK    1  A    between atoms: C_1  and  N_2
REMARK    2  A    between atoms: N_5  and  C_6
REMARK    3  A    between atoms: C_10  and  C_11
REMARK    4  A    between atoms: C_11  and  C_12
REMARK    5  A    between atoms: C_11  and  C_13
REMARK    6  A    between atoms: C_11  and  C_14
REMARK    7  A    between atoms: C_14  and  N_15
REMARK    8  A    between atoms: N_15  and  C_16
REMARK    9  A    between atoms: C_19  and  C_20
REMARK                            x       y       z     vdW  Elec       q    Type
REMARK                         _______ _______ _______ _____ _____    ______ ____
ROOT
ATOM      1  C   UNL     1      49.011   8.847  12.491  0.00  0.00    +0.000 C 
ATOM      2  C   UNL     1      49.618   7.570  11.866  0.00  0.00    +0.000 C 
ATOM      3  C   UNL     1      49.766  10.080  11.939  0.00  0.00    +0.000 C 
ENDROOT
BRANCH   1   8
ATOM      4  C   UNL     1      45.318   7.822  11.939  0.00  0.00    +0.000 A 
ATOM      5  C   UNL     1      44.741   9.083  11.769  0.00  0.00    +0.000 A 
ATOM      6  C   UNL     1      45.518  10.243  11.717  0.00  0.00    +0.000 A 
ATOM      7  C   UNL     1      46.896  10.171  11.909  0.00  0.00    +0.000 A 
ATOM      8  C   UNL     1      47.522   8.935  12.109  0.00  0.00    +0.000 A 
ATOM      9  C   UNL     1      46.714   7.787  12.020  0.00  0.00    +0.000 A 
BRANCH   4  14
ATOM     10  C   UNL     1      43.526   2.574  11.514  0.00  0.00    +0.000 C 
ATOM     11  N   UNL     1      43.556   3.952  11.992  0.00  0.00    +0.000 NA
ATOM     12  C   UNL     1      44.852   4.263  12.630  0.00  0.00    +0.000 C 
ATOM     13  C   UNL     1      44.901   5.710  13.179  0.00  0.00    +0.000 C 
ATOM     14  N   UNL     1      44.579   6.672  12.115  0.00  0.00    +0.000 N 
ATOM     15  C   UNL     1      43.345   6.374  11.368  0.00  0.00    +0.000 C 
ATOM     16  C   UNL     1      43.334   4.905  10.881  0.00  0.00    +0.000 C 
ENDBRANCH   4  14
ENDBRANCH   1   8
BRANCH   1  17
ATOM     17  C   UNL     1      49.286   8.759  14.026  0.00  0.00    +0.000 C 
BRANCH  17  18
ATOM     18  N   UNL     1      49.943   7.513  14.455  0.00  0.00    +0.000 N 
ATOM     19  H   UNL     1      50.926   7.606  14.716  0.00  0.00    +0.000 HD
BRANCH  18  20
ATOM     20  C   UNL     1      49.234   6.626  15.262  0.00  0.00    +0.000 A 
ATOM     21  C   UNL     1      48.212   5.801  14.817  0.00  0.00    +0.000 A 
ATOM     22  N   UNL     1      47.603   4.848  15.550  0.00  0.00    +0.000 NA
ATOM     23  C   UNL     1      48.072   4.707  16.811  0.00  0.00    +0.000 A 
ATOM     24  N   UNL     1      49.046   5.435  17.376  0.00  0.00    +0.000 NA
ATOM     25  C   UNL     1      49.608   6.370  16.575  0.00  0.00    +0.000 A 
BRANCH  23  26
ATOM     26  C   UNL     1      47.450   3.582  17.608  0.00  0.00    +0.000 C 
ATOM     27  N   UNL     1      48.122   3.239  18.760  0.00  0.00    +0.000 N 
ATOM     28  O   UNL     1      46.421   2.999  17.285  0.00  0.00    +0.000 OA
ATOM     29  H   UNL     1      48.960   3.743  19.027  0.00  0.00    +0.000 HD
ATOM     30  H   UNL     1      47.748   2.508  19.348  0.00  0.00    +0.000 HD
ENDBRANCH  23  26
ENDBRANCH  18  20
ENDBRANCH  17  18
ENDBRANCH   1  17
TORSDOF 6
ENDMDL
MODEL 7
REMARK VINA RESULT:    -6.583      3.045      5.208
REMARK INTER + INTRA:          -9.741
REMARK INTER:                  -8.782
REMARK INTRA:                  -0.959
REMARK UNBOUND:                -0.849
REMARK  Name = 
REMARK  9 active torsions:
REMARK  status: ('A' for Active; 'I' for Inactive)
REMARK    1  A    between atoms: C_1  and  N_2
REMARK    2  A    between atoms: N_5  and  C_6
REMARK    3  A    between atoms: C_10  and  C_11
REMARK    4  A    between atoms: C_11  and  C_12
REMARK    5  A    between atoms: C_11  and  C_13
REMARK    6  A    between atoms: C_11  and  C_14
REMARK    7  A    between atoms: C_14  and  N_15
REMARK    8  A    between atoms: N_15  and  C_16
REMARK    9  A    between atoms: C_19  and  C_20
REMARK                            x       y       z     vdW  Elec       q    Type
REMARK                         _______ _______ _______ _____ _____    ______ ____
ROOT
ATOM      1  C   UNL     1      48.418   8.148  13.099  0.00  0.00    +0.000 C 
ATOM      2  C   UNL     1      49.171   9.422  12.651  0.00  0.00    +0.000 C 
ATOM      3  C   UNL     1      49.160   6.908  12.545  0.00  0.00    +0.000 C 
ENDROOT
BRANCH   1   8
ATOM      4  C   UNL     1      48.831   6.817  16.712  0.00  0.00    +0.000 A 
ATOM      5  C   UNL     1      48.708   8.013  17.425  0.00  0.00    +0.000 A 
ATOM      6  C   UNL     1      48.387   9.214  16.788  0.00  0.00    +0.000 A 
ATOM      7  C   UNL     1      48.253   9.259  15.402  0.00  0.00    +0.000 A 
ATOM      8  C   UNL     1      48.393   8.094  14.638  0.00  0.00    +0.000 A 
ATOM      9  C   UNL     1      48.583   6.889  15.337  0.00  0.00    +0.000 A 
BRANCH   4  14
ATOM     10  C   UNL     1      51.082   1.774  17.365  0.00  0.00    +0.000 C 
ATOM     11  N   UNL     1      50.423   3.015  17.757  0.00  0.00    +0.000 NA
ATOM     12  C   UNL     1      51.264   4.186  17.430  0.00  0.00    +0.000 C 
ATOM     13  C   UNL     1      50.606   5.518  17.866  0.00  0.00    +0.000 C 
ATOM     14  N   UNL     1      49.263   5.639  17.283  0.00  0.00    +0.000 N 
ATOM     15  C   UNL     1      48.394   4.467  17.487  0.00  0.00    +0.000 C 
ATOM     16  C   UNL     1      49.119   3.163  17.074  0.00  0.00    +0.000 C 
ENDBRANCH   4  14
ENDBRANCH   1   8
BRANCH   1  17
ATOM     17  C   UNL     1      47.009   8.210  12.426  0.00  0.00    +0.000 C 
BRANCH  17  18
ATOM     18  N   UNL     1      45.927   7.612  13.226  0.00  0.00    +0.000 N 
ATOM     19  H   UNL     1      45.287   8.279  13.660  0.00  0.00    +0.000 HD
BRANCH  18  20
ATOM     20  C   UNL     1      45.298   6.465  12.749  0.00  0.00    +0.000 A 
ATOM     21  C   UNL     1      44.730   6.343  11.490  0.00  0.00    +0.000 A 
ATOM     22  N   UNL     1      44.233   5.207  10.964  0.00  0.00    +0.000 NA
ATOM     23  C   UNL     1      44.333   4.116  11.758  0.00  0.00    +0.000 A 
ATOM     24  N   UNL     1      44.849   4.086  12.995  0.00  0.00    +0.000 NA
ATOM     25  C   UNL     1      45.328   5.266  13.450  0.00  0.00    +0.000 A 
BRANCH  23  26
ATOM     26  C   UNL     1      43.854   2.822  11.138  0.00  0.00    +0.000 C 
ATOM     27  N   UNL     1      44.533   2.427  10.007  0.00  0.00    +0.000 N 
ATOM     28  O   UNL     1      42.935   2.145  11.586  0.00  0.00    +0.000 OA
ATOM     29  H   UNL     1      45.304   2.985   9.659  0.00  0.00    +0.000 HD
ATOM     30  H   UNL     1      44.275   1.561   9.556  0.00  0.00    +0.000 HD
ENDBRANCH  23  26
ENDBRANCH  18  20
ENDBRANCH  17  18
ENDBRANCH   1  17
TORSDOF 6
ENDMDL
MODEL 8
REMARK VINA RESULT:    -6.445      3.865      8.136
REMARK INTER + INTRA:          -9.556
REMARK INTER:                  -8.412
REMARK INTRA:                  -1.144
REMARK UNBOUND:                -0.849
REMARK  Name = 
REMARK  9 active torsions:
REMARK  status: ('A' for Active; 'I' for Inactive)
REMARK    1  A    between atoms: C_1  and  N_2
REMARK    2  A    between atoms: N_5  and  C_6
REMARK    3  A    between atoms: C_10  and  C_11
REMARK    4  A    between atoms: C_11  and  C_12
REMARK    5  A    between atoms: C_11  and  C_13
REMARK    6  A    between atoms: C_11  and  C_14
REMARK    7  A    between atoms: C_14  and  N_15
REMARK    8  A    between atoms: N_15  and  C_16
REMARK    9  A    between atoms: C_19  and  C_20
REMARK                            x       y       z     vdW  Elec       q    Type
REMARK                         _______ _______ _______ _____ _____    ______ ____
ROOT
ATOM      1  C   UNL     1      49.538   9.121  15.418  0.00  0.00    +0.000 C 
ATOM      2  C   UNL     1      50.208  10.462  15.038  0.00  0.00    +0.000 C 
ATOM      3  C   UNL     1      48.280   9.416  16.269  0.00  0.00    +0.000 C 
ENDROOT
BRANCH   1   8
ATOM      4  C   UNL     1      47.526   6.903  12.964  0.00  0.00    +0.000 A 
ATOM      5  C   UNL     1      48.128   7.270  11.758  0.00  0.00    +0.000 A 
ATOM      6  C   UNL     1      49.234   8.124  11.723  0.00  0.00    +0.000 A 
ATOM      7  C   UNL     1      49.717   8.693  12.899  0.00  0.00    +0.000 A 
ATOM      8  C   UNL     1      49.133   8.379  14.131  0.00  0.00    +0.000 A 
ATOM      9  C   UNL     1      48.111   7.412  14.128  0.00  0.00    +0.000 A 
BRANCH   4  14
ATOM     10  C   UNL     1      43.442   3.348  11.693  0.00  0.00    +0.000 C 
ATOM     11  N   UNL     1      44.179   4.323  12.490  0.00  0.00    +0.000 NA
ATOM     12  C   UNL     1      45.542   3.838  12.790  0.00  0.00    +0.000 C 
ATOM     13  C   UNL     1      46.338   4.836  13.665  0.00  0.00    +0.000 C 
ATOM     14  N   UNL     1      46.365   6.162  13.032  0.00  0.00    +0.000 N 
ATOM     15  C   UNL     1      45.047   6.674  12.617  0.00  0.00    +0.000 C 
ATOM     16  C   UNL     1      44.282   5.619  11.782  0.00  0.00    +0.000 C 
ENDBRANCH   4  14
ENDBRANCH   1   8
BRANCH   1  17
ATOM     17  C   UNL     1      50.562   8.357  16.317  0.00  0.00    +0.000 C 
BRANCH  17  18
ATOM     18  N   UNL     1      49.956   7.629  17.444  0.00  0.00    +0.000 N 
ATOM     19  H   UNL     1      49.096   8.036  17.814  0.00  0.00    +0.000 HD
BRANCH  18  20
ATOM     20  C   UNL     1      49.943   6.236  17.412  0.00  0.00    +0.000 A 
ATOM     21  C   UNL     1      48.818   5.464  17.167  0.00  0.00    +0.000 A 
ATOM     22  N   UNL     1      48.810   4.126  17.005  0.00  0.00    +0.000 NA
ATOM     23  C   UNL     1      50.023   3.532  17.078  0.00  0.00    +0.000 A 
ATOM     24  N   UNL     1      51.189   4.149  17.316  0.00  0.00    +0.000 NA
ATOM     25  C   UNL     1      51.115   5.491  17.465  0.00  0.00    +0.000 A 
BRANCH  23  26
ATOM     26  C   UNL     1      50.028   2.043  16.812  0.00  0.00    +0.000 C 
ATOM     27  N   UNL     1      50.912   1.314  17.575  0.00  0.00    +0.000 N 
ATOM     28  O   UNL     1      49.307   1.490  15.988  0.00  0.00    +0.000 OA
ATOM     29  H   UNL     1      51.487   1.781  18.268  0.00  0.00    +0.000 HD
ATOM     30  H   UNL     1      50.951   0.312  17.460  0.00  0.00    +0.000 HD
ENDBRANCH  23  26
ENDBRANCH  18  20
ENDBRANCH  17  18
ENDBRANCH   1  17
TORSDOF 6
ENDMDL
MODEL 9
REMARK VINA RESULT:    -6.077      3.746      8.636
REMARK INTER + INTRA:          -9.058
REMARK INTER:                  -8.351
REMARK INTRA:                  -0.707
REMARK UNBOUND:                -0.849
REMARK  Name = 
REMARK  9 active torsions:
REMARK  status: ('A' for Active; 'I' for Inactive)
REMARK    1  A    between atoms: C_1  and  N_2
REMARK    2  A    between atoms: N_5  and  C_6
REMARK    3  A    between atoms: C_10  and  C_11
REMARK    4  A    between atoms: C_11  and  C_12
REMARK    5  A    between atoms: C_11  and  C_13
REMARK    6  A    between atoms: C_11  and  C_14
REMARK    7  A    between atoms: C_14  and  N_15
REMARK    8  A    between atoms: N_15  and  C_16
REMARK    9  A    between atoms: C_19  and  C_20
REMARK                            x       y       z     vdW  Elec       q    Type
REMARK                         _______ _______ _______ _____ _____    ______ ____
ROOT
ATOM      1  C   UNL     1      49.451   7.142  15.807  0.00  0.00    +0.000 C 
ATOM      2  C   UNL     1      50.987   7.242  15.958  0.00  0.00    +0.000 C 
ATOM      3  C   UNL     1      48.799   8.351  16.518  0.00  0.00    +0.000 C 
ENDROOT
BRANCH   1   8
ATOM      4  C   UNL     1      47.521   6.517  12.509  0.00  0.00    +0.000 A 
ATOM      5  C   UNL     1      48.169   7.430  11.674  0.00  0.00    +0.000 A 
ATOM      6  C   UNL     1      49.279   8.160  12.109  0.00  0.00    +0.000 A 
ATOM      7  C   UNL     1      49.721   8.044  13.424  0.00  0.00    +0.000 A 
ATOM      8  C   UNL     1      49.090   7.162  14.310  0.00  0.00    +0.000 A 
ATOM      9  C   UNL     1      48.065   6.354  13.787  0.00  0.00    +0.000 A 
BRANCH   4  14
ATOM     10  C   UNL     1      43.974   2.813  10.357  0.00  0.00    +0.000 C 
ATOM     11  N   UNL     1      44.402   3.995  11.097  0.00  0.00    +0.000 NA
ATOM     12  C   UNL     1      45.304   3.626  12.208  0.00  0.00    +0.000 C 
ATOM     13  C   UNL     1      45.748   4.858  13.034  0.00  0.00    +0.000 C 
ATOM     14  N   UNL     1      46.355   5.869  12.158  0.00  0.00    +0.000 N 
ATOM     15  C   UNL     1      45.554   6.221  10.973  0.00  0.00    +0.000 C 
ATOM     16  C   UNL     1      45.105   4.950  10.213  0.00  0.00    +0.000 C 
ENDBRANCH   4  14
ENDBRANCH   1   8
BRANCH   1  17
ATOM     17  C   UNL     1      49.019   5.845  16.564  0.00  0.00    +0.000 C 
BRANCH  17  18
ATOM     18  N   UNL     1      49.810   5.554  17.772  0.00  0.00    +0.000 N 
ATOM     19  H   UNL     1      49.375   5.830  18.654  0.00  0.00    +0.000 HD
BRANCH  18  20
ATOM     20  C   UNL     1      50.501   4.347  17.845  0.00  0.00    +0.000 A 
ATOM     21  C   UNL     1      49.995   3.123  17.434  0.00  0.00    +0.000 A 
ATOM     22  N   UNL     1      50.690   1.971  17.377  0.00  0.00    +0.000 NA
ATOM     23  C   UNL     1      51.989   2.066  17.742  0.00  0.00    +0.000 A 
ATOM     24  N   UNL     1      52.609   3.176  18.166  0.00  0.00    +0.000 NA
ATOM     25  C   UNL     1      51.845   4.292  18.194  0.00  0.00    +0.000 A 
BRANCH  23  26
ATOM     26  C   UNL     1      52.794   0.793  17.598  0.00  0.00    +0.000 C 
ATOM     27  N   UNL     1      52.315  -0.287  18.305  0.00  0.00    +0.000 N 
ATOM     28  O   UNL     1      53.802   0.693  16.906  0.00  0.00    +0.000 OA
ATOM     29  H   UNL     1      51.469  -0.196  18.856  0.00  0.00    +0.000 HD
ATOM     30  H   UNL     1      52.796  -1.172  18.236  0.00  0.00    +0.000 HD
ENDBRANCH  23  26
ENDBRANCH  18  20
ENDBRANCH  17  18
ENDBRANCH   1  17
TORSDOF 6
ENDMDL
