MODEL 1
REMARK VINA RESULT:    -6.077      0.000      0.000
REMARK INTER + INTRA:          -9.056
REMARK INTER:                  -8.208
REMARK INTRA:                  -0.848
REMARK UNBOUND:                -0.848
REMARK  Name = 
REMARK  9 active torsions:
REMARK  status: ('A' for Active; 'I' for Inactive)
REMARK    1  A    between atoms: C_1  and  O_2
REMARK    2  A    between atoms: O_2  and  C_3
REMARK    3  A    between atoms: C_5  and  C_6
REMARK    4  A    between atoms: C_6  and  N_7
REMARK    5  A    between atoms: C_13  and  C_14
REMARK    6  A    between atoms: C_21  and  O_22
REMARK    7  A    between atoms: O_22  and  C_23
REMARK    8  A    between atoms: C_24  and  O_25
REMARK    9  A    between atoms: O_25  and  C_26
REMARK                            x       y       z     vdW  Elec       q    Type
REMARK                         _______ _______ _______ _____ _____    ______ ____
ROOT
ATOM      1  N   UNL     1      46.759   6.697  12.953  0.00  0.00    +0.000 N 
ATOM      2  C   UNL     1      46.403   8.030  12.994  0.00  0.00    +0.000 A 
ATOM      3  C   UNL     1      45.186   8.180  12.382  0.00  0.00    +0.000 A 
ATOM      4  C   UNL     1      44.753   6.898  12.000  0.00  0.00    +0.000 A 
ATOM      5  N   UNL     1      43.604   6.580  11.367  0.00  0.00    +0.000 NA
ATOM      6  C   UNL     1      43.422   5.266  11.135  0.00  0.00    +0.000 A 
ATOM      7  C   UNL     1      44.291   4.245  11.504  0.00  0.00    +0.000 A 
ATOM      8  C   UNL     1      45.465   4.587  12.191  0.00  0.00    +0.000 A 
ATOM      9 CL   UNL     1      46.540   3.397  12.830  0.00  0.00    +0.000 Cl
ATOM     10  C   UNL     1      45.711   5.962  12.404  0.00  0.00    +0.000 A 
ENDROOT
BRANCH   7  11
ATOM     11  C   UNL     1      43.868   2.880  11.102  0.00  0.00    +0.000 C 
ATOM     12  N   UNL     1      44.509   2.281  10.059  0.00  0.00    +0.000 N 
ATOM     13  O   UNL     1      42.929   2.323  11.653  0.00  0.00    +0.000 OA
ATOM     14  H   UNL     1      45.326   2.667   9.603  0.00  0.00    +0.000 HD
ATOM     15  H   UNL     1      44.205   1.352   9.795  0.00  0.00    +0.000 HD
ENDBRANCH   7  11
BRANCH   1  16
ATOM     16  C   UNL     1      48.069   6.161  13.355  0.00  0.00    +0.000 C 
BRANCH  16  19
ATOM     17  C   UNL     1      47.575   4.862  16.914  0.00  0.00    +0.000 A 
ATOM     18  C   UNL     1      47.604   4.930  15.515  0.00  0.00    +0.000 A 
ATOM     19  C   UNL     1      48.225   6.001  14.852  0.00  0.00    +0.000 A 
ATOM     20  C   UNL     1      48.864   6.994  15.606  0.00  0.00    +0.000 A 
ATOM     21  C   UNL     1      48.838   6.948  17.002  0.00  0.00    +0.000 A 
ATOM     22  C   UNL     1      48.204   5.875  17.666  0.00  0.00    +0.000 A 
BRANCH  17  24
ATOM     23  C   UNL     1      47.476   2.639  17.790  0.00  0.00    +0.000 C 
ATOM     24  O   UNL     1      46.860   3.905  17.588  0.00  0.00    +0.000 OA
ENDBRANCH  17  24
BRANCH  21  25
ATOM     25  O   UNL     1      49.442   7.899  17.790  0.00  0.00    +0.000 OA
ATOM     26  C   UNL     1      48.911   9.216  17.689  0.00  0.00    +0.000 C 
ENDBRANCH  21  25
BRANCH  22  27
ATOM     27  O   UNL     1      48.184   5.977  19.039  0.00  0.00    +0.000 OA
ATOM     28  C   UNL     1      49.189   5.271  19.754  0.00  0.00    +0.000 C 
ENDBRANCH  22  27
ENDBRANCH  16  19
ENDBRANCH   1  16
TORSDOF 6
ENDMDL
MODEL 2
REMARK VINA RESULT:    -6.036      0.572      2.556
REMARK INTER + INTRA:          -9.001
REMARK INTER:                  -8.096
REMARK INTRA:                  -0.905
REMARK UNBOUND:                -0.848
REMARK  Name = 
REMARK  9 active torsions:
REMARK  status: ('A' for Active; 'I' for Inactive)
REMARK    1  A    between atoms: C_1  and  O_2
REMARK    2  A    between atoms: O_2  and  C_3
REMARK    3  A    between atoms: C_5  and  C_6
REMARK    4  A    between atoms: C_6  and  N_7
REMARK    5  A    between atoms: C_13  and  C_14
REMARK    6  A    between atoms: C_21  and  O_22
REMARK    7  A    between atoms: O_22  and  C_23
REMARK    8  A    between atoms: C_24  and  O_25
REMARK    9  A    between atoms: O_25  and  C_26
REMARK                            x       y       z     vdW  Elec       q    Type
REMARK                         _______ _______ _______ _____ _____    ______ ____
ROOT
ATOM      1  N   UNL     1      46.818   6.769  13.122  0.00  0.00    +0.000 N 
ATOM      2  C   UNL     1      46.497   8.112  13.110  0.00  0.00    +0.000 A 
ATOM      3  C   UNL     1      45.330   8.279  12.412  0.00  0.00    +0.000 A 
ATOM      4  C   UNL     1      44.888   7.000  12.029  0.00  0.00    +0.000 A 
ATOM      5  N   UNL     1      43.777   6.698  11.325  0.00  0.00    +0.000 NA
ATOM      6  C   UNL     1      43.575   5.384  11.110  0.00  0.00    +0.000 A 
ATOM      7  C   UNL     1      44.387   4.349  11.560  0.00  0.00    +0.000 A 
ATOM      8  C   UNL     1      45.521   4.677  12.319  0.00  0.00    +0.000 A 
ATOM      9 CL   UNL     1      46.516   3.474  13.056  0.00  0.00    +0.000 Cl
ATOM     10  C   UNL     1      45.790   6.049  12.519  0.00  0.00    +0.000 A 
ENDROOT
BRANCH   7  11
ATOM     11  C   UNL     1      43.955   2.987  11.159  0.00  0.00    +0.000 C 
ATOM     12  N   UNL     1      44.634   2.357  10.160  0.00  0.00    +0.000 N 
ATOM     13  O   UNL     1      42.977   2.460  11.670  0.00  0.00    +0.000 OA
ATOM     14  H   UNL     1      45.482   2.717   9.740  0.00  0.00    +0.000 HD
ATOM     15  H   UNL     1      44.324   1.429   9.896  0.00  0.00    +0.000 HD
ENDBRANCH   7  11
BRANCH   1  16
ATOM     16  C   UNL     1      48.082   6.208  13.625  0.00  0.00    +0.000 C 
BRANCH  16  19
ATOM     17  C   UNL     1      49.181   7.347  17.103  0.00  0.00    +0.000 A 
ATOM     18  C   UNL     1      48.880   7.353  15.735  0.00  0.00    +0.000 A 
ATOM     19  C   UNL     1      48.216   6.273  15.132  0.00  0.00    +0.000 A 
ATOM     20  C   UNL     1      47.808   5.192  15.925  0.00  0.00    +0.000 A 
ATOM     21  C   UNL     1      48.107   5.164  17.289  0.00  0.00    +0.000 A 
ATOM     22  C   UNL     1      48.785   6.247  17.891  0.00  0.00    +0.000 A 
BRANCH  17  24
ATOM     23  C   UNL     1      49.337   9.578  17.950  0.00  0.00    +0.000 C 
ATOM     24  O   UNL     1      49.948   8.321  17.691  0.00  0.00    +0.000 OA
ENDBRANCH  17  24
BRANCH  21  25
ATOM     25  O   UNL     1      47.737   4.125  18.111  0.00  0.00    +0.000 OA
ATOM     26  C   UNL     1      47.388   2.911  17.457  0.00  0.00    +0.000 C 
ENDBRANCH  21  25
BRANCH  22  27
ATOM     27  O   UNL     1      49.083   6.073  19.224  0.00  0.00    +0.000 OA
ATOM     28  C   UNL     1      48.228   6.706  20.166  0.00  0.00    +0.000 C 
ENDBRANCH  22  27
ENDBRANCH  16  19
ENDBRANCH   1  16
TORSDOF 6
ENDMDL
MODEL 3
REMARK VINA RESULT:    -5.218      3.127      4.775
REMARK INTER + INTRA:          -7.895
REMARK INTER:                  -7.182
REMARK INTRA:                  -0.713
REMARK UNBOUND:                -0.848
REMARK  Name = 
REMARK  9 active torsions:
REMARK  status: ('A' for Active; 'I' for Inactive)
REMARK    1  A    between atoms: C_1  and  O_2
REMARK    2  A    between atoms: O_2  and  C_3
REMARK    3  A    between atoms: C_5  and  C_6
REMARK    4  A    between atoms: C_6  and  N_7
REMARK    5  A    between atoms: C_13  and  C_14
REMARK    6  A    between atoms: C_21  and  O_22
REMARK    7  A    between atoms: O_22  and  C_23
REMARK    8  A    between atoms: C_24  and  O_25
REMARK    9  A    between atoms: O_25  and  C_26
REMARK                            x       y       z     vdW  Elec       q    Type
REMARK                         _______ _______ _______ _____ _____    ______ ____
ROOT
ATOM      1  N   UNL     1      46.879   7.037  13.283  0.00  0.00    +0.000 N 
ATOM      2  C   UNL     1      46.563   8.368  13.103  0.00  0.00    +0.000 A 
ATOM      3  C   UNL     1      45.403   8.451  12.379  0.00  0.00    +0.000 A 
ATOM      4  C   UNL     1      44.959   7.136  12.154  0.00  0.00    +0.000 A 
ATOM      5  N   UNL     1      43.852   6.752  11.484  0.00  0.00    +0.000 NA
ATOM      6  C   UNL     1      43.647   5.422  11.430  0.00  0.00    +0.000 A 
ATOM      7  C   UNL     1      44.451   4.449  12.012  0.00  0.00    +0.000 A 
ATOM      8  C   UNL     1      45.581   4.865  12.734  0.00  0.00    +0.000 A 
ATOM      9 CL   UNL     1      46.565   3.760  13.622  0.00  0.00    +0.000 Cl
ATOM     10  C   UNL     1      45.853   6.251  12.765  0.00  0.00    +0.000 A 
ENDROOT
BRANCH   7  11
ATOM     11  C   UNL     1      44.018   3.049  11.779  0.00  0.00    +0.000 C 
ATOM     12  N   UNL     1      44.224   2.500  10.549  0.00  0.00    +0.000 N 
ATOM     13  O   UNL     1      43.436   2.416  12.648  0.00  0.00    +0.000 OA
ATOM     14  H   UNL     1      44.748   2.952   9.810  0.00  0.00    +0.000 HD
ATOM     15  H   UNL     1      43.918   1.545  10.406  0.00  0.00    +0.000 HD
ENDBRANCH   7  11
BRANCH   1  16
ATOM     16  C   UNL     1      48.137   6.539  13.862  0.00  0.00    +0.000 C 
BRANCH  16  19
ATOM     17  C   UNL     1      50.851   9.219  14.086  0.00  0.00    +0.000 A 
ATOM     18  C   UNL     1      49.861   8.295  14.446  0.00  0.00    +0.000 A 
ATOM     19  C   UNL     1      49.342   7.386  13.511  0.00  0.00    +0.000 A 
ATOM     20  C   UNL     1      49.858   7.374  12.209  0.00  0.00    +0.000 A 
ATOM     21  C   UNL     1      50.840   8.293  11.829  0.00  0.00    +0.000 A 
ATOM     22  C   UNL     1      51.352   9.214  12.768  0.00  0.00    +0.000 A 
BRANCH  17  24
ATOM     23  C   UNL     1      50.703  10.255  16.236  0.00  0.00    +0.000 C 
ATOM     24  O   UNL     1      51.277  10.207  14.936  0.00  0.00    +0.000 OA
ENDBRANCH  17  24
BRANCH  21  25
ATOM     25  O   UNL     1      51.374   8.331  10.563  0.00  0.00    +0.000 OA
ATOM     26  C   UNL     1      52.119   7.184  10.169  0.00  0.00    +0.000 C 
ENDBRANCH  21  25
BRANCH  22  27
ATOM     27  O   UNL     1      52.262  10.113  12.258  0.00  0.00    +0.000 OA
ATOM     28  C   UNL     1      53.635   9.866  12.529  0.00  0.00    +0.000 C 
ENDBRANCH  22  27
ENDBRANCH  16  19
ENDBRANCH   1  16
TORSDOF 6
ENDMDL
MODEL 4
REMARK VINA RESULT:    -5.056      3.581      8.116
REMARK INTER + INTRA:          -7.678
REMARK INTER:                  -6.673
REMARK INTRA:                  -1.005
REMARK UNBOUND:                -0.848
REMARK  Name = 
REMARK  9 active torsions:
REMARK  status: ('A' for Active; 'I' for Inactive)
REMARK    1  A    between atoms: C_1  and  O_2
REMARK    2  A    between atoms: O_2  and  C_3
REMARK    3  A    between atoms: C_5  and  C_6
REMARK    4  A    between atoms: C_6  and  N_7
REMARK    5  A    between atoms: C_13  and  C_14
REMARK    6  A    between atoms: C_21  and  O_22
REMARK    7  A    between atoms: O_22  and  C_23
REMARK    8  A    between atoms: C_24  and  O_25
REMARK    9  A    between atoms: O_25  and  C_26
REMARK                            x       y       z     vdW  Elec       q    Type
REMARK                         _______ _______ _______ _____ _____    ______ ____
ROOT
ATOM      1  N   UNL     1      48.532   3.454  17.007  0.00  0.00    +0.000 N 
ATOM      2  C   UNL     1      49.016   2.213  16.647  0.00  0.00    +0.000 A 
ATOM      3  C   UNL     1      50.334   2.131  17.013  0.00  0.00    +0.000 A 
ATOM      4  C   UNL     1      50.658   3.334  17.666  0.00  0.00    +0.000 A 
ATOM      5  N   UNL     1      51.852   3.679  18.193  0.00  0.00    +0.000 NA
ATOM      6  C   UNL     1      51.888   4.889  18.784  0.00  0.00    +0.000 A 
ATOM      7  C   UNL     1      50.820   5.769  18.907  0.00  0.00    +0.000 A 
ATOM      8  C   UNL     1      49.576   5.382  18.384  0.00  0.00    +0.000 A 
ATOM      9 CL   UNL     1      48.148   6.324  18.609  0.00  0.00    +0.000 Cl
ATOM     10  C   UNL     1      49.517   4.141  17.711  0.00  0.00    +0.000 A 
ENDROOT
BRANCH   7  11
ATOM     11  C   UNL     1      51.134   7.054  19.580  0.00  0.00    +0.000 C 
ATOM     12  N   UNL     1      51.897   7.968  18.914  0.00  0.00    +0.000 N 
ATOM     13  O   UNL     1      50.769   7.272  20.726  0.00  0.00    +0.000 OA
ATOM     14  H   UNL     1      52.179   7.868  17.947  0.00  0.00    +0.000 HD
ATOM     15  H   UNL     1      52.105   8.838  19.389  0.00  0.00    +0.000 HD
ENDBRANCH   7  11
BRANCH   1  16
ATOM     16  C   UNL     1      47.211   3.985  16.633  0.00  0.00    +0.000 C 
BRANCH  16  19
ATOM     17  C   UNL     1      47.615   6.344  13.654  0.00  0.00    +0.000 A 
ATOM     18  C   UNL     1      47.804   5.727  14.898  0.00  0.00    +0.000 A 
ATOM     19  C   UNL     1      47.153   4.526  15.221  0.00  0.00    +0.000 A 
ATOM     20  C   UNL     1      46.336   3.912  14.262  0.00  0.00    +0.000 A 
ATOM     21  C   UNL     1      46.128   4.517  13.020  0.00  0.00    +0.000 A 
ATOM     22  C   UNL     1      46.775   5.731  12.703  0.00  0.00    +0.000 A 
BRANCH  17  24
ATOM     23  C   UNL     1      49.465   7.652  12.891  0.00  0.00    +0.000 C 
ATOM     24  O   UNL     1      48.126   7.583  13.364  0.00  0.00    +0.000 OA
ENDBRANCH  17  24
BRANCH  21  25
ATOM     25  O   UNL     1      45.329   3.963  12.047  0.00  0.00    +0.000 OA
ATOM     26  C   UNL     1      43.992   3.669  12.435  0.00  0.00    +0.000 C 
ENDBRANCH  21  25
BRANCH  22  27
ATOM     27  O   UNL     1      46.437   6.263  11.478  0.00  0.00    +0.000 OA
ATOM     28  C   UNL     1      45.333   7.157  11.444  0.00  0.00    +0.000 C 
ENDBRANCH  22  27
ENDBRANCH  16  19
ENDBRANCH   1  16
TORSDOF 6
ENDMDL
MODEL 5
REMARK VINA RESULT:    -4.963      3.470      7.457
REMARK INTER + INTRA:          -7.552
REMARK INTER:                  -6.674
REMARK INTRA:                  -0.878
REMARK UNBOUND:                -0.848
REMARK  Name = 
REMARK  9 active torsions:
REMARK  status: ('A' for Active; 'I' for Inactive)
REMARK    1  A    between atoms: C_1  and  O_2
REMARK    2  A    between atoms: O_2  and  C_3
REMARK    3  A    between atoms: C_5  and  C_6
REMARK    4  A    between atoms: C_6  and  N_7
REMARK    5  A    between atoms: C_13  and  C_14
REMARK    6  A    between atoms: C_21  and  O_22
REMARK    7  A    between atoms: O_22  and  C_23
REMARK    8  A    between atoms: C_24  and  O_25
REMARK    9  A    between atoms: O_25  and  C_26
REMARK                            x       y       z     vdW  Elec       q    Type
REMARK                         _______ _______ _______ _____ _____    ______ ____
ROOT
ATOM      1  N   UNL     1      49.071   8.341  16.186  0.00  0.00    +0.000 N 
ATOM      2  C   UNL     1      48.181   9.374  16.402  0.00  0.00    +0.000 A 
ATOM      3  C   UNL     1      47.985   9.510  17.752  0.00  0.00    +0.000 A 
ATOM      4  C   UNL     1      48.817   8.573  18.389  0.00  0.00    +0.000 A 
ATOM      5  N   UNL     1      48.943   8.365  19.717  0.00  0.00    +0.000 NA
ATOM      6  C   UNL     1      49.831   7.414  20.066  0.00  0.00    +0.000 A 
ATOM      7  C   UNL     1      50.616   6.670  19.191  0.00  0.00    +0.000 A 
ATOM      8  C   UNL     1      50.498   6.922  17.816  0.00  0.00    +0.000 A 
ATOM      9 CL   UNL     1      51.526   6.170  16.650  0.00  0.00    +0.000 Cl
ATOM     10  C   UNL     1      49.538   7.877  17.414  0.00  0.00    +0.000 A 
ENDROOT
BRANCH   7  11
ATOM     11  C   UNL     1      51.495   5.662  19.833  0.00  0.00    +0.000 C 
ATOM     12  N   UNL     1      51.065   4.370  19.896  0.00  0.00    +0.000 N 
ATOM     13  O   UNL     1      52.556   5.986  20.348  0.00  0.00    +0.000 OA
ATOM     14  H   UNL     1      50.226   4.032  19.441  0.00  0.00    +0.000 HD
ATOM     15  H   UNL     1      51.675   3.695  20.341  0.00  0.00    +0.000 HD
ENDBRANCH   7  11
BRANCH   1  16
ATOM     16  C   UNL     1      49.406   7.777  14.868  0.00  0.00    +0.000 C 
BRANCH  16  19
ATOM     17  C   UNL     1      46.638   6.093  12.843  0.00  0.00    +0.000 A 
ATOM     18  C   UNL     1      47.686   6.948  13.210  0.00  0.00    +0.000 A 
ATOM     19  C   UNL     1      48.419   6.735  14.388  0.00  0.00    +0.000 A 
ATOM     20  C   UNL     1      48.124   5.620  15.185  0.00  0.00    +0.000 A 
ATOM     21  C   UNL     1      47.077   4.762  14.840  0.00  0.00    +0.000 A 
ATOM     22  C   UNL     1      46.334   4.985  13.661  0.00  0.00    +0.000 A 
BRANCH  17  24
ATOM     23  C   UNL     1      45.001   7.515  11.836  0.00  0.00    +0.000 C 
ATOM     24  O   UNL     1      45.817   6.353  11.775  0.00  0.00    +0.000 OA
ENDBRANCH  17  24
BRANCH  21  25
ATOM     25  O   UNL     1      46.740   3.660  15.591  0.00  0.00    +0.000 OA
ATOM     26  C   UNL     1      47.338   3.581  16.880  0.00  0.00    +0.000 C 
ENDBRANCH  21  25
BRANCH  22  27
ATOM     27  O   UNL     1      45.285   4.114  13.465  0.00  0.00    +0.000 OA
ATOM     28  C   UNL     1      45.343   3.281  12.316  0.00  0.00    +0.000 C 
ENDBRANCH  22  27
ENDBRANCH  16  19
ENDBRANCH   1  16
TORSDOF 6
ENDMDL
MODEL 6
REMARK VINA RESULT:    -4.802      3.346      4.912
REMARK INTER + INTRA:          -7.334
REMARK INTER:                  -6.469
REMARK INTRA:                  -0.865
REMARK UNBOUND:                -0.848
REMARK  Name = 
REMARK  9 active torsions:
REMARK  status: ('A' for Active; 'I' for Inactive)
REMARK    1  A    between atoms: C_1  and  O_2
REMARK    2  A    between atoms: O_2  and  C_3
REMARK    3  A    between atoms: C_5  and  C_6
REMARK    4  A    between atoms: C_6  and  N_7
REMARK    5  A    between atoms: C_13  and  C_14
REMARK    6  A    between atoms: C_21  and  O_22
REMARK    7  A    between atoms: O_22  and  C_23
REMARK    8  A    between atoms: C_24  and  O_25
REMARK    9  A    between atoms: O_25  and  C_26
REMARK                            x       y       z     vdW  Elec       q    Type
REMARK                         _______ _______ _______ _____ _____    ______ ____
ROOT
ATOM      1  N   UNL     1      47.226   6.400  13.898  0.00  0.00    +0.000 N 
ATOM      2  C   UNL     1      47.914   5.577  14.767  0.00  0.00    +0.000 A 
ATOM      3  C   UNL     1      47.441   4.298  14.629  0.00  0.00    +0.000 A 
ATOM      4  C   UNL     1      46.474   4.321  13.609  0.00  0.00    +0.000 A 
ATOM      5  N   UNL     1      45.755   3.277  13.144  0.00  0.00    +0.000 NA
ATOM      6  C   UNL     1      44.904   3.569  12.141  0.00  0.00    +0.000 A 
ATOM      7  C   UNL     1      44.732   4.818  11.555  0.00  0.00    +0.000 A 
ATOM      8  C   UNL     1      45.511   5.886  12.027  0.00  0.00    +0.000 A 
ATOM      9 CL   UNL     1      45.493   7.441  11.278  0.00  0.00    +0.000 Cl
ATOM     10  C   UNL     1      46.376   5.625  13.113  0.00  0.00    +0.000 A 
ENDROOT
BRANCH   7  11
ATOM     11  C   UNL     1      43.707   4.878  10.484  0.00  0.00    +0.000 C 
ATOM     12  N   UNL     1      44.036   4.423   9.242  0.00  0.00    +0.000 N 
ATOM     13  O   UNL     1      42.609   5.375  10.690  0.00  0.00    +0.000 OA
ATOM     14  H   UNL     1      44.905   3.952   9.027  0.00  0.00    +0.000 HD
ATOM     15  H   UNL     1      43.325   4.475   8.522  0.00  0.00    +0.000 HD
ENDBRANCH   7  11
BRANCH   1  16
ATOM     16  C   UNL     1      47.325   7.868  13.869  0.00  0.00    +0.000 C 
BRANCH  16  19
ATOM     17  C   UNL     1      50.576   8.670  12.027  0.00  0.00    +0.000 A 
ATOM     18  C   UNL     1      49.228   8.385  12.285  0.00  0.00    +0.000 A 
ATOM     19  C   UNL     1      48.726   8.374  13.595  0.00  0.00    +0.000 A 
ATOM     20  C   UNL     1      49.579   8.699  14.658  0.00  0.00    +0.000 A 
ATOM     21  C   UNL     1      50.928   8.977  14.421  0.00  0.00    +0.000 A 
ATOM     22  C   UNL     1      51.433   8.977  13.103  0.00  0.00    +0.000 A 
BRANCH  17  24
ATOM     23  C   UNL     1      51.657   7.289  10.402  0.00  0.00    +0.000 C 
ATOM     24  O   UNL     1      51.124   8.553  10.775  0.00  0.00    +0.000 OA
ENDBRANCH  17  24
BRANCH  21  25
ATOM     25  O   UNL     1      51.810   9.293  15.428  0.00  0.00    +0.000 OA
ATOM     26  C   UNL     1      51.470  10.427  16.218  0.00  0.00    +0.000 C 
ENDBRANCH  21  25
BRANCH  22  27
ATOM     27  O   UNL     1      52.789   9.196  13.004  0.00  0.00    +0.000 OA
ATOM     28  C   UNL     1      53.207  10.505  12.642  0.00  0.00    +0.000 C 
ENDBRANCH  22  27
ENDBRANCH  16  19
ENDBRANCH   1  16
TORSDOF 6
ENDMDL
MODEL 7
REMARK VINA RESULT:    -4.797      4.500      7.661
REMARK INTER + INTRA:          -7.327
REMARK INTER:                  -6.378
REMARK INTRA:                  -0.949
REMARK UNBOUND:                -0.848
REMARK  Name = 
REMARK  9 active torsions:
REMARK  status: ('A' for Active; 'I' for Inactive)
REMARK    1  A    between atoms: C_1  and  O_2
REMARK    2  A    between atoms: O_2  and  C_3
REMARK    3  A    between atoms: C_5  and  C_6
REMARK    4  A    between atoms: C_6  and  N_7
REMARK    5  A    between atoms: C_13  and  C_14
REMARK    6  A    between atoms: C_21  and  O_22
REMARK    7  A    between atoms: O_22  and  C_23
REMARK    8  A    between atoms: C_24  and  O_25
REMARK    9  A    between atoms: O_25  and  C_26
REMARK                            x       y       z     vdW  Elec       q    Type
REMARK                         _______ _______ _______ _____ _____    ______ ____
ROOT
ATOM      1  N   UNL     1      48.822   4.609  17.177  0.00  0.00    +0.000 N 
ATOM      2  C   UNL     1      47.737   3.837  16.812  0.00  0.00    +0.000 A 
ATOM      3  C   UNL     1      48.145   2.535  16.691  0.00  0.00    +0.000 A 
ATOM      4  C   UNL     1      49.506   2.491  17.044  0.00  0.00    +0.000 A 
ATOM      5  N   UNL     1      50.308   1.406  17.067  0.00  0.00    +0.000 NA
ATOM      6  C   UNL     1      51.574   1.637  17.464  0.00  0.00    +0.000 A 
ATOM      7  C   UNL     1      52.093   2.865  17.858  0.00  0.00    +0.000 A 
ATOM      8  C   UNL     1      51.238   3.978  17.860  0.00  0.00    +0.000 A 
ATOM      9 CL   UNL     1      51.729   5.516  18.471  0.00  0.00    +0.000 Cl
ATOM     10  C   UNL     1      49.918   3.779  17.400  0.00  0.00    +0.000 A 
ENDROOT
BRANCH   7  11
ATOM     11  C   UNL     1      53.532   2.855  18.222  0.00  0.00    +0.000 C 
ATOM     12  N   UNL     1      53.902   2.264  19.393  0.00  0.00    +0.000 N 
ATOM     13  O   UNL     1      54.364   3.413  17.521  0.00  0.00    +0.000 OA
ATOM     14  H   UNL     1      53.270   1.739  19.984  0.00  0.00    +0.000 HD
ATOM     15  H   UNL     1      54.888   2.269  19.628  0.00  0.00    +0.000 HD
ENDBRANCH   7  11
BRANCH   1  16
ATOM     16  C   UNL     1      48.828   6.080  17.241  0.00  0.00    +0.000 C 
BRANCH  16  19
ATOM     17  C   UNL     1      48.672   6.946  13.523  0.00  0.00    +0.000 A 
ATOM     18  C   UNL     1      48.311   6.499  14.801  0.00  0.00    +0.000 A 
ATOM     19  C   UNL     1      49.131   6.742  15.914  0.00  0.00    +0.000 A 
ATOM     20  C   UNL     1      50.308   7.484  15.747  0.00  0.00    +0.000 A 
ATOM     21  C   UNL     1      50.689   7.930  14.479  0.00  0.00    +0.000 A 
ATOM     22  C   UNL     1      49.867   7.675  13.360  0.00  0.00    +0.000 A 
BRANCH  17  24
ATOM     23  C   UNL     1      46.651   7.135  12.258  0.00  0.00    +0.000 C 
ATOM     24  O   UNL     1      47.963   6.606  12.399  0.00  0.00    +0.000 OA
ENDBRANCH  17  24
BRANCH  21  25
ATOM     25  O   UNL     1      51.837   8.655  14.259  0.00  0.00    +0.000 OA
ATOM     26  C   UNL     1      53.051   8.031  14.662  0.00  0.00    +0.000 C 
ENDBRANCH  21  25
BRANCH  22  27
ATOM     27  O   UNL     1      50.382   8.103  12.156  0.00  0.00    +0.000 OA
ATOM     28  C   UNL     1      49.832   9.292  11.604  0.00  0.00    +0.000 C 
ENDBRANCH  22  27
ENDBRANCH  16  19
ENDBRANCH   1  16
TORSDOF 6
ENDMDL
MODEL 8
REMARK VINA RESULT:    -4.793      3.634      7.123
REMARK INTER + INTRA:          -7.322
REMARK INTER:                  -6.629
REMARK INTRA:                  -0.692
REMARK UNBOUND:                -0.848
REMARK  Name = 
REMARK  9 active torsions:
REMARK  status: ('A' for Active; 'I' for Inactive)
REMARK    1  A    between atoms: C_1  and  O_2
REMARK    2  A    between atoms: O_2  and  C_3
REMARK    3  A    between atoms: C_5  and  C_6
REMARK    4  A    between atoms: C_6  and  N_7
REMARK    5  A    between atoms: C_13  and  C_14
REMARK    6  A    between atoms: C_21  and  O_22
REMARK    7  A    between atoms: O_22  and  C_23
REMARK    8  A    between atoms: C_24  and  O_25
REMARK    9  A    between atoms: O_25  and  C_26
REMARK                            x       y       z     vdW  Elec       q    Type
REMARK                         _______ _______ _______ _____ _____    ______ ____
ROOT
ATOM      1  N   UNL     1      48.548   8.682  14.301  0.00  0.00    +0.000 N 
ATOM      2  C   UNL     1      48.338   8.678  15.665  0.00  0.00    +0.000 A 
ATOM      3  C   UNL     1      49.542   8.510  16.296  0.00  0.00    +0.000 A 
ATOM      4  C   UNL     1      50.531   8.465  15.297  0.00  0.00    +0.000 A 
ATOM      5  N   UNL     1      51.861   8.313  15.472  0.00  0.00    +0.000 NA
ATOM      6  C   UNL     1      52.592   8.324  14.341  0.00  0.00    +0.000 A 
ATOM      7  C   UNL     1      52.099   8.494  13.052  0.00  0.00    +0.000 A 
ATOM      8  C   UNL     1      50.718   8.684  12.889  0.00  0.00    +0.000 A 
ATOM      9 CL   UNL     1      50.014   9.055  11.358  0.00  0.00    +0.000 Cl
ATOM     10  C   UNL     1      49.917   8.626  14.051  0.00  0.00    +0.000 A 
ENDROOT
BRANCH   7  11
ATOM     11  C   UNL     1      53.117   8.437  11.974  0.00  0.00    +0.000 C 
ATOM     12  N   UNL     1      53.286   7.263  11.300  0.00  0.00    +0.000 N 
ATOM     13  O   UNL     1      53.831   9.398  11.728  0.00  0.00    +0.000 OA
ATOM     14  H   UNL     1      52.690   6.454  11.420  0.00  0.00    +0.000 HD
ATOM     15  H   UNL     1      53.988   7.240  10.570  0.00  0.00    +0.000 HD
ENDBRANCH   7  11
BRANCH   1  16
ATOM     16  C   UNL     1      47.485   8.670  13.283  0.00  0.00    +0.000 C 
BRANCH  16  19
ATOM     17  C   UNL     1      44.694   6.104  12.807  0.00  0.00    +0.000 A 
ATOM     18  C   UNL     1      45.434   7.292  12.742  0.00  0.00    +0.000 A 
ATOM     19  C   UNL     1      46.769   7.340  13.172  0.00  0.00    +0.000 A 
ATOM     20  C   UNL     1      47.383   6.167  13.630  0.00  0.00    +0.000 A 
ATOM     21  C   UNL     1      46.658   4.975  13.710  0.00  0.00    +0.000 A 
ATOM     22  C   UNL     1      45.312   4.932  13.288  0.00  0.00    +0.000 A 
BRANCH  17  24
ATOM     23  C   UNL     1      42.953   6.245  11.174  0.00  0.00    +0.000 C 
ATOM     24  O   UNL     1      43.352   6.059  12.525  0.00  0.00    +0.000 OA
ENDBRANCH  17  24
BRANCH  21  25
ATOM     25  O   UNL     1      47.209   3.798  14.161  0.00  0.00    +0.000 OA
ATOM     26  C   UNL     1      47.491   3.738  15.554  0.00  0.00    +0.000 C 
ENDBRANCH  21  25
BRANCH  22  27
ATOM     27  O   UNL     1      44.685   3.722  13.481  0.00  0.00    +0.000 OA
ATOM     28  C   UNL     1      44.297   3.002  12.318  0.00  0.00    +0.000 C 
ENDBRANCH  22  27
ENDBRANCH  16  19
ENDBRANCH   1  16
TORSDOF 6
ENDMDL
MODEL 9
REMARK VINA RESULT:    -4.779      3.961      7.735
REMARK INTER + INTRA:          -7.303
REMARK INTER:                  -7.183
REMARK INTRA:                  -0.120
REMARK UNBOUND:                -0.848
REMARK  Name = 
REMARK  9 active torsions:
REMARK  status: ('A' for Active; 'I' for Inactive)
REMARK    1  A    between atoms: C_1  and  O_2
REMARK    2  A    between atoms: O_2  and  C_3
REMARK    3  A    between atoms: C_5  and  C_6
REMARK    4  A    between atoms: C_6  and  N_7
REMARK    5  A    between atoms: C_13  and  C_14
REMARK    6  A    between atoms: C_21  and  O_22
REMARK    7  A    between atoms: O_22  and  C_23
REMARK    8  A    between atoms: C_24  and  O_25
REMARK    9  A    between atoms: O_25  and  C_26
REMARK                            x       y       z     vdW  Elec       q    Type
REMARK                         _______ _______ _______ _____ _____    ______ ____
ROOT
ATOM      1  N   UNL     1      48.710   4.967  17.036  0.00  0.00    +0.000 N 
ATOM      2  C   UNL     1      48.826   6.292  17.402  0.00  0.00    +0.000 A 
ATOM      3  C   UNL     1      50.012   6.462  18.067  0.00  0.00    +0.000 A 
ATOM      4  C   UNL     1      50.672   5.220  18.064  0.00  0.00    +0.000 A 
ATOM      5  N   UNL     1      51.873   4.934  18.607  0.00  0.00    +0.000 NA
ATOM      6  C   UNL     1      52.287   3.662  18.445  0.00  0.00    +0.000 A 
ATOM      7  C   UNL     1      51.602   2.662  17.764  0.00  0.00    +0.000 A 
ATOM      8  C   UNL     1      50.369   2.984  17.175  0.00  0.00    +0.000 A 
ATOM      9 CL   UNL     1      49.504   1.870  16.181  0.00  0.00    +0.000 Cl
ATOM     10  C   UNL     1      49.883   4.295  17.372  0.00  0.00    +0.000 A 
ENDROOT
BRANCH   7  11
ATOM     11  C   UNL     1      52.266   1.335  17.755  0.00  0.00    +0.000 C 
ATOM     12  N   UNL     1      51.553   0.248  18.166  0.00  0.00    +0.000 N 
ATOM     13  O   UNL     1      53.443   1.220  17.444  0.00  0.00    +0.000 OA
ATOM     14  H   UNL     1      50.564   0.271  18.381  0.00  0.00    +0.000 HD
ATOM     15  H   UNL     1      52.023  -0.649  18.157  0.00  0.00    +0.000 HD
ENDBRANCH   7  11
BRANCH   1  16
ATOM     16  C   UNL     1      47.503   4.355  16.455  0.00  0.00    +0.000 C 
BRANCH  16  19
ATOM     17  C   UNL     1      47.497   6.555  13.331  0.00  0.00    +0.000 A 
ATOM     18  C   UNL     1      47.901   5.935  14.521  0.00  0.00    +0.000 A 
ATOM     19  C   UNL     1      47.168   4.873  15.073  0.00  0.00    +0.000 A 
ATOM     20  C   UNL     1      46.038   4.397  14.394  0.00  0.00    +0.000 A 
ATOM     21  C   UNL     1      45.614   5.008  13.211  0.00  0.00    +0.000 A 
ATOM     22  C   UNL     1      46.347   6.083  12.665  0.00  0.00    +0.000 A 
BRANCH  17  24
ATOM     23  C   UNL     1      49.140   7.506  11.878  0.00  0.00    +0.000 C 
ATOM     24  O   UNL     1      48.112   7.680  12.843  0.00  0.00    +0.000 OA
ENDBRANCH  17  24
BRANCH  21  25
ATOM     25  O   UNL     1      44.508   4.587  12.511  0.00  0.00    +0.000 OA
ATOM     26  C   UNL     1      44.264   3.185  12.522  0.00  0.00    +0.000 C 
ENDBRANCH  21  25
BRANCH  22  27
ATOM     27  O   UNL     1      45.793   6.646  11.537  0.00  0.00    +0.000 OA
ATOM     28  C   UNL     1      46.013   5.974  10.304  0.00  0.00    +0.000 C 
ENDBRANCH  22  27
ENDBRANCH  16  19
ENDBRANCH   1  16
TORSDOF 6
ENDMDL
