MODEL 1
REMARK VINA RESULT:    -8.767      0.000      0.000
REMARK INTER + INTRA:         -12.250
REMARK INTER:                 -11.330
REMARK INTRA:                  -0.921
REMARK UNBOUND:                -0.921
REMARK  Name = 
REMARK  5 active torsions:
REMARK  status: ('A' for Active; 'I' for Inactive)
REMARK    1  A    between atoms: C_2  and  C_4
REMARK    2  A    between atoms: C_7  and  N_8
REMARK    3  A    between atoms: N_8  and  C_9
REMARK    4  A    between atoms: C_9  and  C_10
REMARK    5  A    between atoms: C_15  and  N_16
REMARK                            x       y       z     vdW  Elec       q    Type
REMARK                         _______ _______ _______ _____ _____    ______ ____
ROOT
ATOM      1  C   UNL     1      44.096   5.178  11.438  0.00  0.00    +0.000 C 
ATOM      2  C   UNL     1      44.034   4.102  12.513  0.00  0.00    +0.000 C 
ATOM      3  C   UNL     1      43.018   5.189  12.522  0.00  0.00    +0.000 C 
ENDROOT
BRANCH   1   4
ATOM      4  C   UNL     1      45.030   6.378  11.561  0.00  0.00    +0.000 A 
ATOM      5  C   UNL     1      44.531   7.691  11.474  0.00  0.00    +0.000 A 
ATOM      6  C   UNL     1      45.303   8.777  11.878  0.00  0.00    +0.000 A 
ATOM      7  C   UNL     1      46.583   8.560  12.380  0.00  0.00    +0.000 A 
ATOM      8  F   UNL     1      47.264   9.620  12.847  0.00  0.00    +0.000 F 
ATOM      9  C   UNL     1      47.155   7.281  12.412  0.00  0.00    +0.000 A 
ATOM     10  C   UNL     1      46.372   6.217  11.938  0.00  0.00    +0.000 A 
BRANCH   9  11
ATOM     11  N   UNL     1      48.385   6.979  12.973  0.00  0.00    +0.000 N 
ATOM     12  C   UNL     1      48.535   6.791  14.421  0.00  0.00    +0.000 C 
ATOM     13  C   UNL     1      49.364   7.916  15.043  0.00  0.00    +0.000 C 
ATOM     14  O   UNL     1      50.615   8.090  14.353  0.00  0.00    +0.000 OA
ATOM     15  C   UNL     1      50.375   8.429  12.976  0.00  0.00    +0.000 C 
ATOM     16  C   UNL     1      49.611   7.313  12.244  0.00  0.00    +0.000 C 
ENDBRANCH   9  11
ENDBRANCH   1   4
BRANCH   1  17
ATOM     17  N   UNL     1      43.769   4.789  10.059  0.00  0.00    +0.000 N 
ATOM     18  H   UNL     1      42.794   4.784   9.780  0.00  0.00    +0.000 HD
BRANCH  17  22
ATOM     19  C   UNL     1      46.410   2.433   7.727  0.00  0.00    +0.000 A 
ATOM     20  C   UNL     1      45.538   1.809   8.620  0.00  0.00    +0.000 A 
ATOM     21  C   UNL     1      44.658   2.580   9.390  0.00  0.00    +0.000 A 
ATOM     22  C   UNL     1      44.597   3.973   9.260  0.00  0.00    +0.000 A 
ATOM     23  C   UNL     1      45.497   4.585   8.377  0.00  0.00    +0.000 A 
ATOM     24  C   UNL     1      46.398   3.826   7.620  0.00  0.00    +0.000 A 
BRANCH  19  26
ATOM     25  N   UNL     1      48.496   2.325   6.470  0.00  0.00    +0.000 N 
ATOM     26  C   UNL     1      47.388   1.660   6.920  0.00  0.00    +0.000 C 
ATOM     27  O   UNL     1      47.238   0.466   6.692  0.00  0.00    +0.000 OA
ATOM     28  H   UNL     1      49.201   1.761   6.017  0.00  0.00    +0.000 HD
ATOM     29  H   UNL     1      48.777   3.220   6.844  0.00  0.00    +0.000 HD
ENDBRANCH  19  26
ENDBRANCH  17  22
ENDBRANCH   1  17
TORSDOF 5
ENDMDL
MODEL 2
REMARK VINA RESULT:    -7.621      1.538      2.393
REMARK INTER + INTRA:         -10.769
REMARK INTER:                 -10.479
REMARK INTRA:                  -0.291
REMARK UNBOUND:                -0.921
REMARK  Name = 
REMARK  5 active torsions:
REMARK  status: ('A' for Active; 'I' for Inactive)
REMARK    1  A    between atoms: C_2  and  C_4
REMARK    2  A    between atoms: C_7  and  N_8
REMARK    3  A    between atoms: N_8  and  C_9
REMARK    4  A    between atoms: C_9  and  C_10
REMARK    5  A    between atoms: C_15  and  N_16
REMARK                            x       y       z     vdW  Elec       q    Type
REMARK                         _______ _______ _______ _____ _____    ______ ____
ROOT
ATOM      1  C   UNL     1      43.666   4.985  11.526  0.00  0.00    +0.000 C 
ATOM      2  C   UNL     1      42.271   5.517  11.819  0.00  0.00    +0.000 C 
ATOM      3  C   UNL     1      43.117   6.224  10.819  0.00  0.00    +0.000 C 
ENDROOT
BRANCH   1   4
ATOM      4  C   UNL     1      44.856   5.325  12.417  0.00  0.00    +0.000 A 
ATOM      5  C   UNL     1      45.398   4.366  13.293  0.00  0.00    +0.000 A 
ATOM      6  C   UNL     1      46.645   4.558  13.880  0.00  0.00    +0.000 A 
ATOM      7  C   UNL     1      47.370   5.711  13.591  0.00  0.00    +0.000 A 
ATOM      8  F   UNL     1      48.608   5.821  14.101  0.00  0.00    +0.000 F 
ATOM      9  C   UNL     1      46.841   6.732  12.790  0.00  0.00    +0.000 A 
ATOM     10  C   UNL     1      45.554   6.534  12.266  0.00  0.00    +0.000 A 
BRANCH   9  11
ATOM     11  N   UNL     1      47.533   7.865  12.393  0.00  0.00    +0.000 N 
ATOM     12  C   UNL     1      48.712   7.769  11.523  0.00  0.00    +0.000 C 
ATOM     13  C   UNL     1      49.986   8.162  12.273  0.00  0.00    +0.000 C 
ATOM     14  O   UNL     1      49.846   9.443  12.914  0.00  0.00    +0.000 OA
ATOM     15  C   UNL     1      48.769   9.402  13.866  0.00  0.00    +0.000 C 
ATOM     16  C   UNL     1      47.425   9.090  13.186  0.00  0.00    +0.000 C 
ENDBRANCH   9  11
ENDBRANCH   1   4
BRANCH   1  17
ATOM     17  N   UNL     1      43.776   3.703  10.814  0.00  0.00    +0.000 N 
ATOM     18  H   UNL     1      43.443   2.866  11.280  0.00  0.00    +0.000 HD
BRANCH  17  22
ATOM     19  C   UNL     1      46.467   2.839   7.656  0.00  0.00    +0.000 A 
ATOM     20  C   UNL     1      46.138   4.166   7.936  0.00  0.00    +0.000 A 
ATOM     21  C   UNL     1      45.254   4.461   8.982  0.00  0.00    +0.000 A 
ATOM     22  C   UNL     1      44.715   3.454   9.792  0.00  0.00    +0.000 A 
ATOM     23  C   UNL     1      45.036   2.125   9.481  0.00  0.00    +0.000 A 
ATOM     24  C   UNL     1      45.900   1.818   8.422  0.00  0.00    +0.000 A 
BRANCH  19  26
ATOM     25  N   UNL     1      47.225   3.173   5.364  0.00  0.00    +0.000 N 
ATOM     26  C   UNL     1      47.368   2.477   6.533  0.00  0.00    +0.000 C 
ATOM     27  O   UNL     1      48.233   1.618   6.650  0.00  0.00    +0.000 OA
ATOM     28  H   UNL     1      47.916   2.990   4.649  0.00  0.00    +0.000 HD
ATOM     29  H   UNL     1      46.712   4.041   5.312  0.00  0.00    +0.000 HD
ENDBRANCH  19  26
ENDBRANCH  17  22
ENDBRANCH   1  17
TORSDOF 5
ENDMDL
MODEL 3
REMARK VINA RESULT:    -7.463      2.363      3.063
REMARK INTER + INTRA:         -10.565
REMARK INTER:                 -10.339
REMARK INTRA:                  -0.227
REMARK UNBOUND:                -0.921
REMARK  Name = 
REMARK  5 active torsions:
REMARK  status: ('A' for Active; 'I' for Inactive)
REMARK    1  A    between atoms: C_2  and  C_4
REMARK    2  A    between atoms: C_7  and  N_8
REMARK    3  A    between atoms: N_8  and  C_9
REMARK    4  A    between atoms: C_9  and  C_10
REMARK    5  A    between atoms: C_15  and  N_16
REMARK                            x       y       z     vdW  Elec       q    Type
REMARK                         _______ _______ _______ _____ _____    ______ ____
ROOT
ATOM      1  C   UNL     1      44.117   4.829  11.734  0.00  0.00    +0.000 C 
ATOM      2  C   UNL     1      42.864   5.289  12.466  0.00  0.00    +0.000 C 
ATOM      3  C   UNL     1      43.426   6.148  11.389  0.00  0.00    +0.000 C 
ENDROOT
BRANCH   1   4
ATOM      4  C   UNL     1      45.510   5.056  12.312  0.00  0.00    +0.000 A 
ATOM      5  C   UNL     1      46.369   6.026  11.760  0.00  0.00    +0.000 A 
ATOM      6  C   UNL     1      47.502   6.450  12.448  0.00  0.00    +0.000 A 
ATOM      7  C   UNL     1      47.786   5.913  13.701  0.00  0.00    +0.000 A 
ATOM      8  F   UNL     1      48.835   6.412  14.377  0.00  0.00    +0.000 F 
ATOM      9  C   UNL     1      47.008   4.889  14.257  0.00  0.00    +0.000 A 
ATOM     10  C   UNL     1      45.909   4.441  13.508  0.00  0.00    +0.000 A 
BRANCH   9  11
ATOM     11  N   UNL     1      47.180   4.368  15.529  0.00  0.00    +0.000 N 
ATOM     12  C   UNL     1      47.447   5.241  16.679  0.00  0.00    +0.000 C 
ATOM     13  C   UNL     1      48.867   5.034  17.212  0.00  0.00    +0.000 C 
ATOM     14  O   UNL     1      49.135   3.645  17.470  0.00  0.00    +0.000 OA
ATOM     15  C   UNL     1      49.005   2.885  16.256  0.00  0.00    +0.000 C 
ATOM     16  C   UNL     1      47.579   2.968  15.686  0.00  0.00    +0.000 C 
ENDBRANCH   9  11
ENDBRANCH   1   4
BRANCH   1  17
ATOM     17  N   UNL     1      44.001   3.666  10.843  0.00  0.00    +0.000 N 
ATOM     18  H   UNL     1      43.532   2.837  11.194  0.00  0.00    +0.000 HD
BRANCH  17  22
ATOM     19  C   UNL     1      46.504   2.790   7.537  0.00  0.00    +0.000 A 
ATOM     20  C   UNL     1      46.158   4.114   7.806  0.00  0.00    +0.000 A 
ATOM     21  C   UNL     1      45.336   4.413   8.899  0.00  0.00    +0.000 A 
ATOM     22  C   UNL     1      44.878   3.414   9.767  0.00  0.00    +0.000 A 
ATOM     23  C   UNL     1      45.215   2.086   9.469  0.00  0.00    +0.000 A 
ATOM     24  C   UNL     1      46.016   1.774   8.363  0.00  0.00    +0.000 A 
BRANCH  19  26
ATOM     25  N   UNL     1      47.217   3.190   5.241  0.00  0.00    +0.000 N 
ATOM     26  C   UNL     1      47.339   2.422   6.366  0.00  0.00    +0.000 C 
ATOM     27  O   UNL     1      48.138   1.494   6.408  0.00  0.00    +0.000 OA
ATOM     28  H   UNL     1      47.870   2.994   4.494  0.00  0.00    +0.000 HD
ATOM     29  H   UNL     1      46.773   4.097   5.252  0.00  0.00    +0.000 HD
ENDBRANCH  19  26
ENDBRANCH  17  22
ENDBRANCH   1  17
TORSDOF 5
ENDMDL
MODEL 4
REMARK VINA RESULT:    -6.534      4.217      6.349
REMARK INTER + INTRA:          -9.365
REMARK INTER:                  -8.186
REMARK INTRA:                  -1.179
REMARK UNBOUND:                -0.921
REMARK  Name = 
REMARK  5 active torsions:
REMARK  status: ('A' for Active; 'I' for Inactive)
REMARK    1  A    between atoms: C_2  and  C_4
REMARK    2  A    between atoms: C_7  and  N_8
REMARK    3  A    between atoms: N_8  and  C_9
REMARK    4  A    between atoms: C_9  and  C_10
REMARK    5  A    between atoms: C_15  and  N_16
REMARK                            x       y       z     vdW  Elec       q    Type
REMARK                         _______ _______ _______ _____ _____    ______ ____
ROOT
ATOM      1  C   UNL     1      49.263   7.768  13.566  0.00  0.00    +0.000 C 
ATOM      2  C   UNL     1      49.351   9.042  12.738  0.00  0.00    +0.000 C 
ATOM      3  C   UNL     1      50.608   8.349  13.131  0.00  0.00    +0.000 C 
ENDROOT
BRANCH   1   4
ATOM      4  C   UNL     1      49.095   7.808  15.082  0.00  0.00    +0.000 A 
ATOM      5  C   UNL     1      48.707   8.995  15.731  0.00  0.00    +0.000 A 
ATOM      6  C   UNL     1      48.263   8.974  17.051  0.00  0.00    +0.000 A 
ATOM      7  C   UNL     1      48.196   7.762  17.733  0.00  0.00    +0.000 A 
ATOM      8  F   UNL     1      47.675   7.766  18.972  0.00  0.00    +0.000 F 
ATOM      9  C   UNL     1      48.645   6.566  17.158  0.00  0.00    +0.000 A 
ATOM     10  C   UNL     1      49.146   6.634  15.848  0.00  0.00    +0.000 A 
BRANCH   9  11
ATOM     11  N   UNL     1      48.532   5.316  17.743  0.00  0.00    +0.000 N 
ATOM     12  C   UNL     1      49.701   4.634  18.311  0.00  0.00    +0.000 C 
ATOM     13  C   UNL     1      50.069   3.394  17.493  0.00  0.00    +0.000 C 
ATOM     14  O   UNL     1      48.934   2.530  17.306  0.00  0.00    +0.000 OA
ATOM     15  C   UNL     1      47.894   3.230  16.601  0.00  0.00    +0.000 C 
ATOM     16  C   UNL     1      47.401   4.455  17.390  0.00  0.00    +0.000 C 
ENDBRANCH   9  11
ENDBRANCH   1   4
BRANCH   1  17
ATOM     17  N   UNL     1      48.721   6.565  12.917  0.00  0.00    +0.000 N 
ATOM     18  H   UNL     1      49.305   6.078  12.246  0.00  0.00    +0.000 HD
BRANCH  17  22
ATOM     19  C   UNL     1      44.561   5.801  12.652  0.00  0.00    +0.000 A 
ATOM     20  C   UNL     1      45.089   6.946  12.055  0.00  0.00    +0.000 A 
ATOM     21  C   UNL     1      46.464   7.203  12.133  0.00  0.00    +0.000 A 
ATOM     22  C   UNL     1      47.342   6.314  12.764  0.00  0.00    +0.000 A 
ATOM     23  C   UNL     1      46.792   5.180  13.379  0.00  0.00    +0.000 A 
ATOM     24  C   UNL     1      45.415   4.926  13.329  0.00  0.00    +0.000 A 
BRANCH  19  26
ATOM     25  N   UNL     1      42.334   6.223  11.755  0.00  0.00    +0.000 N 
ATOM     26  C   UNL     1      43.106   5.507  12.629  0.00  0.00    +0.000 C 
ATOM     27  O   UNL     1      42.612   4.634  13.332  0.00  0.00    +0.000 OA
ATOM     28  H   UNL     1      41.368   5.936  11.674  0.00  0.00    +0.000 HD
ATOM     29  H   UNL     1      42.732   6.755  10.994  0.00  0.00    +0.000 HD
ENDBRANCH  19  26
ENDBRANCH  17  22
ENDBRANCH   1  17
TORSDOF 5
ENDMDL
MODEL 5
REMARK VINA RESULT:    -6.507      3.364      5.528
REMARK INTER + INTRA:          -9.330
REMARK INTER:                  -8.787
REMARK INTRA:                  -0.543
REMARK UNBOUND:                -0.921
REMARK  Name = 
REMARK  5 active torsions:
REMARK  status: ('A' for Active; 'I' for Inactive)
REMARK    1  A    between atoms: C_2  and  C_4
REMARK    2  A    between atoms: C_7  and  N_8
REMARK    3  A    between atoms: N_8  and  C_9
REMARK    4  A    between atoms: C_9  and  C_10
REMARK    5  A    between atoms: C_15  and  N_16
REMARK                            x       y       z     vdW  Elec       q    Type
REMARK                         _______ _______ _______ _____ _____    ______ ____
ROOT
ATOM      1  C   UNL     1      48.042   7.656  13.523  0.00  0.00    +0.000 C 
ATOM      2  C   UNL     1      48.796   8.480  12.489  0.00  0.00    +0.000 C 
ATOM      3  C   UNL     1      49.052   7.017  12.570  0.00  0.00    +0.000 C 
ENDROOT
BRANCH   1   4
ATOM      4  C   UNL     1      48.506   7.574  14.974  0.00  0.00    +0.000 A 
ATOM      5  C   UNL     1      48.666   8.740  15.745  0.00  0.00    +0.000 A 
ATOM      6  C   UNL     1      48.792   8.668  17.130  0.00  0.00    +0.000 A 
ATOM      7  C   UNL     1      48.752   7.428  17.760  0.00  0.00    +0.000 A 
ATOM      8  F   UNL     1      48.783   7.402  19.103  0.00  0.00    +0.000 F 
ATOM      9  C   UNL     1      48.674   6.234  17.031  0.00  0.00    +0.000 A 
ATOM     10  C   UNL     1      48.612   6.339  15.632  0.00  0.00    +0.000 A 
BRANCH   9  11
ATOM     11  N   UNL     1      48.545   4.973  17.590  0.00  0.00    +0.000 N 
ATOM     12  C   UNL     1      49.677   4.319  18.259  0.00  0.00    +0.000 C 
ATOM     13  C   UNL     1      50.160   3.102  17.467  0.00  0.00    +0.000 C 
ATOM     14  O   UNL     1      49.075   2.206  17.165  0.00  0.00    +0.000 OA
ATOM     15  C   UNL     1      48.084   2.884  16.373  0.00  0.00    +0.000 C 
ATOM     16  C   UNL     1      47.481   4.082  17.124  0.00  0.00    +0.000 C 
ENDBRANCH   9  11
ENDBRANCH   1   4
BRANCH   1  17
ATOM     17  N   UNL     1      46.599   7.462  13.324  0.00  0.00    +0.000 N 
ATOM     18  H   UNL     1      45.960   7.925  13.962  0.00  0.00    +0.000 HD
BRANCH  17  22
ATOM     19  C   UNL     1      44.784   4.100  11.490  0.00  0.00    +0.000 A 
ATOM     20  C   UNL     1      45.030   5.246  10.734  0.00  0.00    +0.000 A 
ATOM     21  C   UNL     1      45.634   6.360  11.331  0.00  0.00    +0.000 A 
ATOM     22  C   UNL     1      46.042   6.343  12.670  0.00  0.00    +0.000 A 
ATOM     23  C   UNL     1      45.766   5.192  13.422  0.00  0.00    +0.000 A 
ATOM     24  C   UNL     1      45.139   4.082  12.841  0.00  0.00    +0.000 A 
BRANCH  19  26
ATOM     25  N   UNL     1      44.731   2.283   9.866  0.00  0.00    +0.000 N 
ATOM     26  C   UNL     1      44.110   2.910  10.911  0.00  0.00    +0.000 C 
ATOM     27  O   UNL     1      43.059   2.477  11.367  0.00  0.00    +0.000 OA
ATOM     28  H   UNL     1      44.316   1.415   9.556  0.00  0.00    +0.000 HD
ATOM     29  H   UNL     1      45.700   2.450   9.635  0.00  0.00    +0.000 HD
ENDBRANCH  19  26
ENDBRANCH  17  22
ENDBRANCH   1  17
TORSDOF 5
ENDMDL
MODEL 6
REMARK VINA RESULT:    -6.350      3.846      7.841
REMARK INTER + INTRA:          -9.127
REMARK INTER:                  -8.698
REMARK INTRA:                  -0.429
REMARK UNBOUND:                -0.921
REMARK  Name = 
REMARK  5 active torsions:
REMARK  status: ('A' for Active; 'I' for Inactive)
REMARK    1  A    between atoms: C_2  and  C_4
REMARK    2  A    between atoms: C_7  and  N_8
REMARK    3  A    between atoms: N_8  and  C_9
REMARK    4  A    between atoms: C_9  and  C_10
REMARK    5  A    between atoms: C_15  and  N_16
REMARK                            x       y       z     vdW  Elec       q    Type
REMARK                         _______ _______ _______ _____ _____    ______ ____
ROOT
ATOM      1  C   UNL     1      48.595   7.252  15.031  0.00  0.00    +0.000 C 
ATOM      2  C   UNL     1      50.040   7.719  14.936  0.00  0.00    +0.000 C 
ATOM      3  C   UNL     1      48.981   8.713  15.259  0.00  0.00    +0.000 C 
ENDROOT
BRANCH   1   4
ATOM      4  C   UNL     1      47.724   7.086  13.789  0.00  0.00    +0.000 A 
ATOM      5  C   UNL     1      48.138   7.600  12.546  0.00  0.00    +0.000 A 
ATOM      6  C   UNL     1      47.515   7.203  11.366  0.00  0.00    +0.000 A 
ATOM      7  C   UNL     1      46.474   6.280  11.416  0.00  0.00    +0.000 A 
ATOM      8  F   UNL     1      45.958   5.849  10.252  0.00  0.00    +0.000 F 
ATOM      9  C   UNL     1      45.974   5.799  12.633  0.00  0.00    +0.000 A 
ATOM     10  C   UNL     1      46.583   6.270  13.807  0.00  0.00    +0.000 A 
BRANCH   9  11
ATOM     11  N   UNL     1      45.001   4.821  12.757  0.00  0.00    +0.000 N 
ATOM     12  C   UNL     1      45.252   3.441  12.322  0.00  0.00    +0.000 C 
ATOM     13  C   UNL     1      44.399   3.082  11.103  0.00  0.00    +0.000 C 
ATOM     14  O   UNL     1      43.008   3.370  11.330  0.00  0.00    +0.000 OA
ATOM     15  C   UNL     1      42.832   4.773  11.593  0.00  0.00    +0.000 C 
ATOM     16  C   UNL     1      43.594   5.212  12.855  0.00  0.00    +0.000 C 
ENDBRANCH   9  11
ENDBRANCH   1   4
BRANCH   1  17
ATOM     17  N   UNL     1      48.227   6.388  16.161  0.00  0.00    +0.000 N 
ATOM     18  H   UNL     1      47.572   6.748  16.847  0.00  0.00    +0.000 HD
BRANCH  17  22
ATOM     19  C   UNL     1      50.655   3.155  17.434  0.00  0.00    +0.000 A 
ATOM     20  C   UNL     1      51.152   4.457  17.501  0.00  0.00    +0.000 A 
ATOM     21  C   UNL     1      50.355   5.532  17.088  0.00  0.00    +0.000 A 
ATOM     22  C   UNL     1      49.041   5.341  16.643  0.00  0.00    +0.000 A 
ATOM     23  C   UNL     1      48.565   4.025  16.559  0.00  0.00    +0.000 A 
ATOM     24  C   UNL     1      49.364   2.941  16.946  0.00  0.00    +0.000 A 
BRANCH  19  26
ATOM     25  N   UNL     1      52.571   2.216  18.612  0.00  0.00    +0.000 N 
ATOM     26  C   UNL     1      51.478   1.982  17.823  0.00  0.00    +0.000 C 
ATOM     27  O   UNL     1      51.177   0.843  17.490  0.00  0.00    +0.000 OA
ATOM     28  H   UNL     1      53.056   1.398  18.956  0.00  0.00    +0.000 HD
ATOM     29  H   UNL     1      52.703   3.085  19.108  0.00  0.00    +0.000 HD
ENDBRANCH  19  26
ENDBRANCH  17  22
ENDBRANCH   1  17
TORSDOF 5
ENDMDL
MODEL 7
REMARK VINA RESULT:    -6.187      2.951      7.853
REMARK INTER + INTRA:          -8.916
REMARK INTER:                  -8.088
REMARK INTRA:                  -0.828
REMARK UNBOUND:                -0.921
REMARK  Name = 
REMARK  5 active torsions:
REMARK  status: ('A' for Active; 'I' for Inactive)
REMARK    1  A    between atoms: C_2  and  C_4
REMARK    2  A    between atoms: C_7  and  N_8
REMARK    3  A    between atoms: N_8  and  C_9
REMARK    4  A    between atoms: C_9  and  C_10
REMARK    5  A    between atoms: C_15  and  N_16
REMARK                            x       y       z     vdW  Elec       q    Type
REMARK                         _______ _______ _______ _____ _____    ______ ____
ROOT
ATOM      1  C   UNL     1      49.011   8.072  12.916  0.00  0.00    +0.000 C 
ATOM      2  C   UNL     1      50.029   7.530  11.922  0.00  0.00    +0.000 C 
ATOM      3  C   UNL     1      49.523   8.919  11.750  0.00  0.00    +0.000 C 
ENDROOT
BRANCH   1   4
ATOM      4  C   UNL     1      47.522   7.768  12.781  0.00  0.00    +0.000 A 
ATOM      5  C   UNL     1      46.574   8.808  12.765  0.00  0.00    +0.000 A 
ATOM      6  C   UNL     1      45.267   8.576  12.347  0.00  0.00    +0.000 A 
ATOM      7  C   UNL     1      44.895   7.300  11.934  0.00  0.00    +0.000 A 
ATOM      8  F   UNL     1      43.652   7.132  11.450  0.00  0.00    +0.000 F 
ATOM      9  C   UNL     1      45.778   6.215  12.007  0.00  0.00    +0.000 A 
ATOM     10  C   UNL     1      47.069   6.472  12.493  0.00  0.00    +0.000 A 
BRANCH   9  11
ATOM     11  N   UNL     1      45.506   4.940  11.537  0.00  0.00    +0.000 N 
ATOM     12  C   UNL     1      45.260   4.693  10.111  0.00  0.00    +0.000 C 
ATOM     13  C   UNL     1      43.805   4.287   9.863  0.00  0.00    +0.000 C 
ATOM     14  O   UNL     1      43.411   3.195  10.713  0.00  0.00    +0.000 OA
ATOM     15  C   UNL     1      43.532   3.578  12.094  0.00  0.00    +0.000 C 
ATOM     16  C   UNL     1      44.985   3.929  12.458  0.00  0.00    +0.000 C 
ENDBRANCH   9  11
ENDBRANCH   1   4
BRANCH   1  17
ATOM     17  N   UNL     1      49.466   8.333  14.289  0.00  0.00    +0.000 N 
ATOM     18  H   UNL     1      49.946   9.207  14.477  0.00  0.00    +0.000 HD
BRANCH  17  22
ATOM     19  C   UNL     1      50.365   5.414  17.227  0.00  0.00    +0.000 A 
ATOM     20  C   UNL     1      49.042   5.598  16.823  0.00  0.00    +0.000 A 
ATOM     21  C   UNL     1      48.737   6.557  15.848  0.00  0.00    +0.000 A 
ATOM     22  C   UNL     1      49.737   7.317  15.229  0.00  0.00    +0.000 A 
ATOM     23  C   UNL     1      51.058   7.137  15.664  0.00  0.00    +0.000 A 
ATOM     24  C   UNL     1      51.370   6.198  16.657  0.00  0.00    +0.000 A 
BRANCH  19  26
ATOM     25  N   UNL     1      49.972   4.433  19.424  0.00  0.00    +0.000 N 
ATOM     26  C   UNL     1      50.731   4.438  18.285  0.00  0.00    +0.000 C 
ATOM     27  O   UNL     1      51.647   3.640  18.139  0.00  0.00    +0.000 OA
ATOM     28  H   UNL     1      50.165   3.693  20.085  0.00  0.00    +0.000 HD
ATOM     29  H   UNL     1      49.071   4.886  19.475  0.00  0.00    +0.000 HD
ENDBRANCH  19  26
ENDBRANCH  17  22
ENDBRANCH   1  17
TORSDOF 5
ENDMDL
MODEL 8
REMARK VINA RESULT:    -6.116      4.232      7.675
REMARK INTER + INTRA:          -8.825
REMARK INTER:                  -7.449
REMARK INTRA:                  -1.376
REMARK UNBOUND:                -0.921
REMARK  Name = 
REMARK  5 active torsions:
REMARK  status: ('A' for Active; 'I' for Inactive)
REMARK    1  A    between atoms: C_2  and  C_4
REMARK    2  A    between atoms: C_7  and  N_8
REMARK    3  A    between atoms: N_8  and  C_9
REMARK    4  A    between atoms: C_9  and  C_10
REMARK    5  A    between atoms: C_15  and  N_16
REMARK                            x       y       z     vdW  Elec       q    Type
REMARK                         _______ _______ _______ _____ _____    ______ ____
ROOT
ATOM      1  C   UNL     1      48.562   8.555  17.120  0.00  0.00    +0.000 C 
ATOM      2  C   UNL     1      49.287   9.551  18.014  0.00  0.00    +0.000 C 
ATOM      3  C   UNL     1      47.972   9.931  17.431  0.00  0.00    +0.000 C 
ENDROOT
BRANCH   1   4
ATOM      4  C   UNL     1      48.905   8.409  15.641  0.00  0.00    +0.000 A 
ATOM      5  C   UNL     1      50.203   8.683  15.173  0.00  0.00    +0.000 A 
ATOM      6  C   UNL     1      50.607   8.272  13.906  0.00  0.00    +0.000 A 
ATOM      7  C   UNL     1      49.716   7.576  13.094  0.00  0.00    +0.000 A 
ATOM      8  F   UNL     1      50.167   7.114  11.915  0.00  0.00    +0.000 F 
ATOM      9  C   UNL     1      48.389   7.349  13.482  0.00  0.00    +0.000 A 
ATOM     10  C   UNL     1      47.997   7.832  14.740  0.00  0.00    +0.000 A 
BRANCH   9  11
ATOM     11  N   UNL     1      47.474   6.594  12.766  0.00  0.00    +0.000 N 
ATOM     12  C   UNL     1      46.415   7.234  11.975  0.00  0.00    +0.000 C 
ATOM     13  C   UNL     1      45.035   6.967  12.580  0.00  0.00    +0.000 C 
ATOM     14  O   UNL     1      44.819   5.562  12.801  0.00  0.00    +0.000 OA
ATOM     15  C   UNL     1      45.807   5.050  13.712  0.00  0.00    +0.000 C 
ATOM     16  C   UNL     1      47.230   5.203  13.149  0.00  0.00    +0.000 C 
ENDBRANCH   9  11
ENDBRANCH   1   4
BRANCH   1  17
ATOM     17  N   UNL     1      48.012   7.345  17.749  0.00  0.00    +0.000 N 
ATOM     18  H   UNL     1      47.410   7.455  18.558  0.00  0.00    +0.000 HD
BRANCH  17  22
ATOM     19  C   UNL     1      49.770   3.519  17.269  0.00  0.00    +0.000 A 
ATOM     20  C   UNL     1      50.537   4.570  17.773  0.00  0.00    +0.000 A 
ATOM     21  C   UNL     1      49.963   5.836  17.941  0.00  0.00    +0.000 A 
ATOM     22  C   UNL     1      48.613   6.073  17.652  0.00  0.00    +0.000 A 
ATOM     23  C   UNL     1      47.863   5.012  17.122  0.00  0.00    +0.000 A 
ATOM     24  C   UNL     1      48.435   3.748  16.928  0.00  0.00    +0.000 A 
BRANCH  19  26
ATOM     25  N   UNL     1      51.190   1.675  17.994  0.00  0.00    +0.000 N 
ATOM     26  C   UNL     1      50.347   2.170  17.037  0.00  0.00    +0.000 C 
ATOM     27  O   UNL     1      50.057   1.503  16.052  0.00  0.00    +0.000 OA
ATOM     28  H   UNL     1      51.487   0.716  17.874  0.00  0.00    +0.000 HD
ATOM     29  H   UNL     1      51.250   2.074  18.920  0.00  0.00    +0.000 HD
ENDBRANCH  19  26
ENDBRANCH  17  22
ENDBRANCH   1  17
TORSDOF 5
ENDMDL
MODEL 9
REMARK VINA RESULT:    -5.845      4.095      9.268
REMARK INTER + INTRA:          -8.475
REMARK INTER:                  -7.713
REMARK INTRA:                  -0.762
REMARK UNBOUND:                -0.921
REMARK  Name = 
REMARK  5 active torsions:
REMARK  status: ('A' for Active; 'I' for Inactive)
REMARK    1  A    between atoms: C_2  and  C_4
REMARK    2  A    between atoms: C_7  and  N_8
REMARK    3  A    between atoms: N_8  and  C_9
REMARK    4  A    between atoms: C_9  and  C_10
REMARK    5  A    between atoms: C_15  and  N_16
REMARK                            x       y       z     vdW  Elec       q    Type
REMARK                         _______ _______ _______ _____ _____    ______ ____
ROOT
ATOM      1  C   UNL     1      47.990   4.652  16.457  0.00  0.00    +0.000 C 
ATOM      2  C   UNL     1      47.208   3.637  17.277  0.00  0.00    +0.000 C 
ATOM      3  C   UNL     1      48.258   3.152  16.342  0.00  0.00    +0.000 C 
ENDROOT
BRANCH   1   4
ATOM      4  C   UNL     1      47.438   5.228  15.157  0.00  0.00    +0.000 A 
ATOM      5  C   UNL     1      48.188   6.147  14.400  0.00  0.00    +0.000 A 
ATOM      6  C   UNL     1      47.837   6.444  13.086  0.00  0.00    +0.000 A 
ATOM      7  C   UNL     1      46.734   5.819  12.511  0.00  0.00    +0.000 A 
ATOM      8  F   UNL     1      46.480   6.059  11.214  0.00  0.00    +0.000 F 
ATOM      9  C   UNL     1      45.910   4.958  13.247  0.00  0.00    +0.000 A 
ATOM     10  C   UNL     1      46.256   4.729  14.588  0.00  0.00    +0.000 A 
BRANCH   9  11
ATOM     11  N   UNL     1      44.849   4.238  12.721  0.00  0.00    +0.000 N 
ATOM     12  C   UNL     1      45.077   3.061  11.872  0.00  0.00    +0.000 C 
ATOM     13  C   UNL     1      44.640   3.328  10.430  0.00  0.00    +0.000 C 
ATOM     14  O   UNL     1      43.292   3.828  10.371  0.00  0.00    +0.000 OA
ATOM     15  C   UNL     1      43.195   5.065  11.098  0.00  0.00    +0.000 C 
ATOM     16  C   UNL     1      43.540   4.878  12.584  0.00  0.00    +0.000 C 
ENDBRANCH   9  11
ENDBRANCH   1   4
BRANCH   1  17
ATOM     17  N   UNL     1      48.931   5.529  17.169  0.00  0.00    +0.000 N 
ATOM     18  H   UNL     1      49.853   5.167  17.387  0.00  0.00    +0.000 HD
BRANCH  17  22
ATOM     19  C   UNL     1      47.602   8.814  19.494  0.00  0.00    +0.000 A 
ATOM     20  C   UNL     1      47.507   7.522  20.012  0.00  0.00    +0.000 A 
ATOM     21  C   UNL     1      47.949   6.431  19.253  0.00  0.00    +0.000 A 
ATOM     22  C   UNL     1      48.529   6.604  17.990  0.00  0.00    +0.000 A 
ATOM     23  C   UNL     1      48.595   7.906  17.475  0.00  0.00    +0.000 A 
ATOM     24  C   UNL     1      48.132   9.001  18.216  0.00  0.00    +0.000 A 
BRANCH  19  26
ATOM     25  N   UNL     1      48.029  10.711  20.965  0.00  0.00    +0.000 N 
ATOM     26  C   UNL     1      47.110   9.996  20.246  0.00  0.00    +0.000 C 
ATOM     27  O   UNL     1      45.938  10.349  20.201  0.00  0.00    +0.000 OA
ATOM     28  H   UNL     1      47.699  11.571  21.380  0.00  0.00    +0.000 HD
ATOM     29  H   UNL     1      49.024  10.607  20.823  0.00  0.00    +0.000 HD
ENDBRANCH  19  26
ENDBRANCH  17  22
ENDBRANCH   1  17
TORSDOF 5
ENDMDL
