MODEL 1
REMARK VINA RESULT:    -8.253      0.000      0.000
REMARK INTER + INTRA:         -12.932
REMARK INTER:                 -11.631
REMARK INTRA:                  -1.301
REMARK UNBOUND:                -1.301
REMARK  Name = 
REMARK  7 active torsions:
REMARK  status: ('A' for Active; 'I' for Inactive)
REMARK    1  A    between atoms: C_2  and  C_27
REMARK    2  A    between atoms: N_3  and  C_4
REMARK    3  A    between atoms: C_4  and  C_5
REMARK    4  A    between atoms: C_8  and  C_9
REMARK    5  A    between atoms: C_9  and  C_10
REMARK    6  A    between atoms: C_10  and  N_11
REMARK    7  A    between atoms: C_12  and  C_14
REMARK                            x       y       z     vdW  Elec       q    Type
REMARK                         _______ _______ _______ _____ _____    ______ ____
ROOT
ATOM      1  C   UNL     1      45.501   6.436  11.638  0.00  0.00    +0.000 A 
ATOM      2  C   UNL     1      44.899   7.356  12.501  0.00  0.00    +0.000 A 
ATOM      3  C   UNL     1      45.603   8.474  12.950  0.00  0.00    +0.000 A 
ATOM      4  C   UNL     1      46.939   8.682  12.579  0.00  0.00    +0.000 A 
ATOM      5  C   UNL     1      47.533   7.747  11.726  0.00  0.00    +0.000 A 
ATOM      6  F   UNL     1      48.801   7.920  11.323  0.00  0.00    +0.000 F 
ATOM      7  C   UNL     1      46.835   6.633  11.264  0.00  0.00    +0.000 A 
ENDROOT
BRANCH   1   8
ATOM      8  C   UNL     1      44.716   5.268  11.117  0.00  0.00    +0.000 C 
BRANCH   8  11
ATOM      9  O   UNL     1      43.886   2.853  10.012  0.00  0.00    +0.000 OA
ATOM     10  C   UNL     1      44.905   3.382   9.581  0.00  0.00    +0.000 C 
ATOM     11  N   UNL     1      45.404   4.571  10.067  0.00  0.00    +0.000 N 
ATOM     12  H   UNL     1      46.257   4.933   9.652  0.00  0.00    +0.000 HD
BRANCH  10  13
ATOM     13  C   UNL     1      45.689   2.763   8.468  0.00  0.00    +0.000 A 
ATOM     14  C   UNL     1      46.032   3.541   7.368  0.00  0.00    +0.000 A 
ATOM     15  C   UNL     1      46.775   2.952   6.352  0.00  0.00    +0.000 A 
ATOM     16  C   UNL     1      47.145   1.616   6.469  0.00  0.00    +0.000 A 
ATOM     17  C   UNL     1      46.754   0.916   7.602  0.00  0.00    +0.000 A 
ATOM     18  N   UNL     1      46.035   1.452   8.612  0.00  0.00    +0.000 NA
ENDBRANCH  10  13
ENDBRANCH   8  11
ENDBRANCH   1   8
BRANCH   4  19
ATOM     19  C   UNL     1      47.712   9.908  13.005  0.00  0.00    +0.000 C 
BRANCH  19  20
ATOM     20  C   UNL     1      48.991   9.599  13.787  0.00  0.00    +0.000 C 
BRANCH  20  21
ATOM     21  N   UNL     1      48.751   8.713  14.901  0.00  0.00    +0.000 N 
ATOM     22  C   UNL     1      49.330   7.470  14.975  0.00  0.00    +0.000 C 
ATOM     23  O   UNL     1      50.070   7.037  14.095  0.00  0.00    +0.000 OA
ATOM     24  H   UNL     1      48.009   8.963  15.546  0.00  0.00    +0.000 HD
BRANCH  22  25
ATOM     25  C   UNL     1      49.081   6.714  16.203  0.00  0.00    +0.000 A 
ATOM     26  C   UNL     1      49.594   7.174  17.408  0.00  0.00    +0.000 A 
ATOM     27  S   UNL     1      49.171   6.201  18.742  0.00  0.00    +0.000 S 
ATOM     28  C   UNL     1      48.329   5.107  17.747  0.00  0.00    +0.000 A 
ATOM     29  N   UNL     1      47.732   4.003  18.270  0.00  0.00    +0.000 NA
ATOM     30  C   UNL     1      47.166   3.240  17.395  0.00  0.00    +0.000 A 
ATOM     31  N   UNL     1      47.132   3.484  16.047  0.00  0.00    +0.000 N 
ATOM     32  C   UNL     1      47.670   4.616  15.482  0.00  0.00    +0.000 A 
ATOM     33  O   UNL     1      47.539   4.853  14.284  0.00  0.00    +0.000 OA
ATOM     34  C   UNL     1      48.351   5.489  16.418  0.00  0.00    +0.000 A 
ATOM     35  H   UNL     1      46.654   2.857  15.419  0.00  0.00    +0.000 HD
ENDBRANCH  22  25
ENDBRANCH  20  21
ENDBRANCH  19  20
ENDBRANCH   4  19
TORSDOF 7
ENDMDL
MODEL 2
REMARK VINA RESULT:    -8.243      1.426      1.738
REMARK INTER + INTRA:         -12.918
REMARK INTER:                 -12.140
REMARK INTRA:                  -0.778
REMARK UNBOUND:                -1.301
REMARK  Name = 
REMARK  7 active torsions:
REMARK  status: ('A' for Active; 'I' for Inactive)
REMARK    1  A    between atoms: C_2  and  C_27
REMARK    2  A    between atoms: N_3  and  C_4
REMARK    3  A    between atoms: C_4  and  C_5
REMARK    4  A    between atoms: C_8  and  C_9
REMARK    5  A    between atoms: C_9  and  C_10
REMARK    6  A    between atoms: C_10  and  N_11
REMARK    7  A    between atoms: C_12  and  C_14
REMARK                            x       y       z     vdW  Elec       q    Type
REMARK                         _______ _______ _______ _____ _____    ______ ____
ROOT
ATOM      1  C   UNL     1      44.409   4.993  11.586  0.00  0.00    +0.000 A 
ATOM      2  C   UNL     1      45.480   4.964  12.484  0.00  0.00    +0.000 A 
ATOM      3  C   UNL     1      46.011   6.150  12.993  0.00  0.00    +0.000 A 
ATOM      4  C   UNL     1      45.511   7.396  12.591  0.00  0.00    +0.000 A 
ATOM      5  C   UNL     1      44.448   7.410  11.682  0.00  0.00    +0.000 A 
ATOM      6  F   UNL     1      43.920   8.580  11.290  0.00  0.00    +0.000 F 
ATOM      7  C   UNL     1      43.904   6.231  11.176  0.00  0.00    +0.000 A 
ENDROOT
BRANCH   1   8
ATOM      8  C   UNL     1      43.810   3.710  11.090  0.00  0.00    +0.000 C 
BRANCH   8  11
ATOM      9  O   UNL     1      44.161   4.358   8.406  0.00  0.00    +0.000 OA
ATOM     10  C   UNL     1      44.794   3.418   8.876  0.00  0.00    +0.000 C 
ATOM     11  N   UNL     1      44.683   3.012  10.188  0.00  0.00    +0.000 N 
ATOM     12  H   UNL     1      45.244   2.220  10.489  0.00  0.00    +0.000 HD
BRANCH  10  13
ATOM     13  C   UNL     1      45.756   2.636   8.040  0.00  0.00    +0.000 A 
ATOM     14  C   UNL     1      46.352   3.249   6.943  0.00  0.00    +0.000 A 
ATOM     15  C   UNL     1      47.256   2.511   6.189  0.00  0.00    +0.000 A 
ATOM     16  C   UNL     1      47.529   1.196   6.552  0.00  0.00    +0.000 A 
ATOM     17  C   UNL     1      46.884   0.666   7.661  0.00  0.00    +0.000 A 
ATOM     18  N   UNL     1      46.002   1.350   8.421  0.00  0.00    +0.000 NA
ENDBRANCH  10  13
ENDBRANCH   8  11
ENDBRANCH   1   8
BRANCH   4  19
ATOM     19  C   UNL     1      46.029   8.695  13.163  0.00  0.00    +0.000 C 
BRANCH  19  20
ATOM     20  C   UNL     1      47.522   8.678  13.497  0.00  0.00    +0.000 C 
BRANCH  20  21
ATOM     21  N   UNL     1      47.790   8.073  14.780  0.00  0.00    +0.000 N 
ATOM     22  C   UNL     1      48.735   7.090  14.934  0.00  0.00    +0.000 C 
ATOM     23  O   UNL     1      49.395   6.660  13.990  0.00  0.00    +0.000 OA
ATOM     24  H   UNL     1      47.141   8.272  15.535  0.00  0.00    +0.000 HD
BRANCH  22  25
ATOM     25  C   UNL     1      48.974   6.632  16.303  0.00  0.00    +0.000 A 
ATOM     26  C   UNL     1      49.598   7.476  17.210  0.00  0.00    +0.000 A 
ATOM     27  S   UNL     1      49.755   6.804  18.769  0.00  0.00    +0.000 S 
ATOM     28  C   UNL     1      49.037   5.344  18.270  0.00  0.00    +0.000 A 
ATOM     29  N   UNL     1      48.887   4.307  19.137  0.00  0.00    +0.000 NA
ATOM     30  C   UNL     1      48.365   3.248  18.613  0.00  0.00    +0.000 A 
ATOM     31  N   UNL     1      47.971   3.132  17.306  0.00  0.00    +0.000 N 
ATOM     32  C   UNL     1      48.050   4.173  16.410  0.00  0.00    +0.000 A 
ATOM     33  O   UNL     1      47.599   4.068  15.273  0.00  0.00    +0.000 OA
ATOM     34  C   UNL     1      48.663   5.375  16.939  0.00  0.00    +0.000 A 
ATOM     35  H   UNL     1      47.551   2.282  16.965  0.00  0.00    +0.000 HD
ENDBRANCH  22  25
ENDBRANCH  20  21
ENDBRANCH  19  20
ENDBRANCH   4  19
TORSDOF 7
ENDMDL
MODEL 3
REMARK VINA RESULT:    -7.569      2.069      3.033
REMARK INTER + INTRA:         -11.968
REMARK INTER:                 -11.025
REMARK INTRA:                  -0.943
REMARK UNBOUND:                -1.301
REMARK  Name = 
REMARK  7 active torsions:
REMARK  status: ('A' for Active; 'I' for Inactive)
REMARK    1  A    between atoms: C_2  and  C_27
REMARK    2  A    between atoms: N_3  and  C_4
REMARK    3  A    between atoms: C_4  and  C_5
REMARK    4  A    between atoms: C_8  and  C_9
REMARK    5  A    between atoms: C_9  and  C_10
REMARK    6  A    between atoms: C_10  and  N_11
REMARK    7  A    between atoms: C_12  and  C_14
REMARK                            x       y       z     vdW  Elec       q    Type
REMARK                         _______ _______ _______ _____ _____    ______ ____
ROOT
ATOM      1  C   UNL     1      44.793   4.949  11.839  0.00  0.00    +0.000 A 
ATOM      2  C   UNL     1      45.878   4.885  12.718  0.00  0.00    +0.000 A 
ATOM      3  C   UNL     1      46.454   6.053  13.220  0.00  0.00    +0.000 A 
ATOM      4  C   UNL     1      45.986   7.315  12.829  0.00  0.00    +0.000 A 
ATOM      5  C   UNL     1      44.908   7.364  11.939  0.00  0.00    +0.000 A 
ATOM      6  F   UNL     1      44.410   8.550  11.558  0.00  0.00    +0.000 F 
ATOM      7  C   UNL     1      44.320   6.204  11.440  0.00  0.00    +0.000 A 
ENDROOT
BRANCH   1   8
ATOM      8  C   UNL     1      44.146   3.686  11.350  0.00  0.00    +0.000 C 
BRANCH   8  11
ATOM      9  O   UNL     1      44.196   4.292   8.635  0.00  0.00    +0.000 OA
ATOM     10  C   UNL     1      44.910   3.386   9.053  0.00  0.00    +0.000 C 
ATOM     11  N   UNL     1      44.949   3.003  10.376  0.00  0.00    +0.000 N 
ATOM     12  H   UNL     1      45.568   2.238  10.631  0.00  0.00    +0.000 HD
BRANCH  10  13
ATOM     13  C   UNL     1      45.811   2.623   8.135  0.00  0.00    +0.000 A 
ATOM     14  C   UNL     1      46.374   3.275   7.044  0.00  0.00    +0.000 A 
ATOM     15  C   UNL     1      47.222   2.554   6.213  0.00  0.00    +0.000 A 
ATOM     16  C   UNL     1      47.474   1.215   6.497  0.00  0.00    +0.000 A 
ATOM     17  C   UNL     1      46.864   0.646   7.607  0.00  0.00    +0.000 A 
ATOM     18  N   UNL     1      46.037   1.313   8.440  0.00  0.00    +0.000 NA
ENDBRANCH  10  13
ENDBRANCH   8  11
ENDBRANCH   1   8
BRANCH   4  19
ATOM     19  C   UNL     1      46.553   8.596  13.394  0.00  0.00    +0.000 C 
BRANCH  19  20
ATOM     20  C   UNL     1      47.983   8.464  13.924  0.00  0.00    +0.000 C 
BRANCH  20  21
ATOM     21  N   UNL     1      48.019   8.078  15.314  0.00  0.00    +0.000 N 
ATOM     22  C   UNL     1      48.812   7.050  15.759  0.00  0.00    +0.000 C 
ATOM     23  O   UNL     1      49.524   6.394  15.002  0.00  0.00    +0.000 OA
ATOM     24  H   UNL     1      47.312   8.473  15.927  0.00  0.00    +0.000 HD
BRANCH  22  25
ATOM     25  C   UNL     1      48.827   6.825  17.205  0.00  0.00    +0.000 A 
ATOM     26  C   UNL     1      48.443   5.590  17.711  0.00  0.00    +0.000 A 
ATOM     27  S   UNL     1      48.565   5.484  19.408  0.00  0.00    +0.000 S 
ATOM     28  C   UNL     1      49.088   7.099  19.526  0.00  0.00    +0.000 A 
ATOM     29  N   UNL     1      49.351   7.662  20.736  0.00  0.00    +0.000 NA
ATOM     30  C   UNL     1      49.698   8.905  20.679  0.00  0.00    +0.000 A 
ATOM     31  N   UNL     1      49.817   9.634  19.526  0.00  0.00    +0.000 N 
ATOM     32  C   UNL     1      49.618   9.091  18.278  0.00  0.00    +0.000 A 
ATOM     33  O   UNL     1      49.826   9.744  17.259  0.00  0.00    +0.000 OA
ATOM     34  C   UNL     1      49.190   7.705  18.288  0.00  0.00    +0.000 A 
ATOM     35  H   UNL     1      50.113  10.597  19.549  0.00  0.00    +0.000 HD
ENDBRANCH  22  25
ENDBRANCH  20  21
ENDBRANCH  19  20
ENDBRANCH   4  19
TORSDOF 7
ENDMDL
MODEL 4
REMARK VINA RESULT:    -7.553      2.069      2.543
REMARK INTER + INTRA:         -11.945
REMARK INTER:                 -10.736
REMARK INTRA:                  -1.209
REMARK UNBOUND:                -1.301
REMARK  Name = 
REMARK  7 active torsions:
REMARK  status: ('A' for Active; 'I' for Inactive)
REMARK    1  A    between atoms: C_2  and  C_27
REMARK    2  A    between atoms: N_3  and  C_4
REMARK    3  A    between atoms: C_4  and  C_5
REMARK    4  A    between atoms: C_8  and  C_9
REMARK    5  A    between atoms: C_9  and  C_10
REMARK    6  A    between atoms: C_10  and  N_11
REMARK    7  A    between atoms: C_12  and  C_14
REMARK                            x       y       z     vdW  Elec       q    Type
REMARK                         _______ _______ _______ _____ _____    ______ ____
ROOT
ATOM      1  C   UNL     1      45.948   7.012  11.813  0.00  0.00    +0.000 A 
ATOM      2  C   UNL     1      45.573   7.949  12.781  0.00  0.00    +0.000 A 
ATOM      3  C   UNL     1      46.539   8.614  13.537  0.00  0.00    +0.000 A 
ATOM      4  C   UNL     1      47.903   8.334  13.372  0.00  0.00    +0.000 A 
ATOM      5  C   UNL     1      48.263   7.386  12.409  0.00  0.00    +0.000 A 
ATOM      6  F   UNL     1      49.558   7.106  12.199  0.00  0.00    +0.000 F 
ATOM      7  C   UNL     1      47.306   6.724  11.643  0.00  0.00    +0.000 A 
ENDROOT
BRANCH   1   8
ATOM      8  C   UNL     1      44.902   6.346  10.968  0.00  0.00    +0.000 C 
BRANCH   8  11
ATOM      9  O   UNL     1      44.097   3.736  10.437  0.00  0.00    +0.000 OA
ATOM     10  C   UNL     1      44.998   4.226   9.764  0.00  0.00    +0.000 C 
ATOM     11  N   UNL     1      45.475   5.505   9.954  0.00  0.00    +0.000 N 
ATOM     12  H   UNL     1      46.227   5.826   9.351  0.00  0.00    +0.000 HD
BRANCH  10  13
ATOM     13  C   UNL     1      45.649   3.454   8.660  0.00  0.00    +0.000 A 
ATOM     14  C   UNL     1      45.797   2.078   8.794  0.00  0.00    +0.000 A 
ATOM     15  C   UNL     1      46.388   1.376   7.750  0.00  0.00    +0.000 A 
ATOM     16  C   UNL     1      46.810   2.069   6.620  0.00  0.00    +0.000 A 
ATOM     17  C   UNL     1      46.625   3.444   6.576  0.00  0.00    +0.000 A 
ATOM     18  N   UNL     1      46.052   4.162   7.567  0.00  0.00    +0.000 NA
ENDBRANCH  10  13
ENDBRANCH   8  11
ENDBRANCH   1   8
BRANCH   4  19
ATOM     19  C   UNL     1      48.976   9.074  14.137  0.00  0.00    +0.000 C 
BRANCH  19  20
ATOM     20  C   UNL     1      48.975   8.792  15.641  0.00  0.00    +0.000 C 
BRANCH  20  21
ATOM     21  N   UNL     1      49.043   7.380  15.935  0.00  0.00    +0.000 N 
ATOM     22  C   UNL     1      48.623   6.871  17.139  0.00  0.00    +0.000 C 
ATOM     23  O   UNL     1      48.182   7.585  18.036  0.00  0.00    +0.000 OA
ATOM     24  H   UNL     1      49.568   6.794  15.294  0.00  0.00    +0.000 HD
BRANCH  22  25
ATOM     25  C   UNL     1      48.656   5.414  17.270  0.00  0.00    +0.000 A 
ATOM     26  C   UNL     1      47.465   4.705  17.344  0.00  0.00    +0.000 A 
ATOM     27  S   UNL     1      47.684   3.017  17.446  0.00  0.00    +0.000 S 
ATOM     28  C   UNL     1      49.378   3.182  17.444  0.00  0.00    +0.000 A 
ATOM     29  N   UNL     1      50.186   2.093  17.538  0.00  0.00    +0.000 NA
ATOM     30  C   UNL     1      51.448   2.369  17.567  0.00  0.00    +0.000 A 
ATOM     31  N   UNL     1      51.976   3.630  17.500  0.00  0.00    +0.000 N 
ATOM     32  C   UNL     1      51.200   4.756  17.346  0.00  0.00    +0.000 A 
ATOM     33  O   UNL     1      51.708   5.862  17.193  0.00  0.00    +0.000 OA
ATOM     34  C   UNL     1      49.772   4.504  17.345  0.00  0.00    +0.000 A 
ATOM     35  H   UNL     1      52.974   3.776  17.507  0.00  0.00    +0.000 HD
ENDBRANCH  22  25
ENDBRANCH  20  21
ENDBRANCH  19  20
ENDBRANCH   4  19
TORSDOF 7
ENDMDL
MODEL 5
REMARK VINA RESULT:    -7.300      1.616      2.049
REMARK INTER + INTRA:         -11.589
REMARK INTER:                 -10.615
REMARK INTRA:                  -0.973
REMARK UNBOUND:                -1.301
REMARK  Name = 
REMARK  7 active torsions:
REMARK  status: ('A' for Active; 'I' for Inactive)
REMARK    1  A    between atoms: C_2  and  C_27
REMARK    2  A    between atoms: N_3  and  C_4
REMARK    3  A    between atoms: C_4  and  C_5
REMARK    4  A    between atoms: C_8  and  C_9
REMARK    5  A    between atoms: C_9  and  C_10
REMARK    6  A    between atoms: C_10  and  N_11
REMARK    7  A    between atoms: C_12  and  C_14
REMARK                            x       y       z     vdW  Elec       q    Type
REMARK                         _______ _______ _______ _____ _____    ______ ____
ROOT
ATOM      1  C   UNL     1      45.322   6.684  11.277  0.00  0.00    +0.000 A 
ATOM      2  C   UNL     1      46.700   6.573  11.485  0.00  0.00    +0.000 A 
ATOM      3  C   UNL     1      47.417   7.623  12.059  0.00  0.00    +0.000 A 
ATOM      4  C   UNL     1      46.784   8.825  12.407  0.00  0.00    +0.000 A 
ATOM      5  C   UNL     1      45.407   8.926  12.182  0.00  0.00    +0.000 A 
ATOM      6  F   UNL     1      44.755  10.047  12.524  0.00  0.00    +0.000 F 
ATOM      7  C   UNL     1      44.681   7.879  11.618  0.00  0.00    +0.000 A 
ENDROOT
BRANCH   1   8
ATOM      8  C   UNL     1      44.552   5.526  10.711  0.00  0.00    +0.000 C 
BRANCH   8  11
ATOM      9  O   UNL     1      44.129   2.882   9.954  0.00  0.00    +0.000 OA
ATOM     10  C   UNL     1      44.979   3.539   9.362  0.00  0.00    +0.000 C 
ATOM     11  N   UNL     1      45.271   4.851   9.667  0.00  0.00    +0.000 N 
ATOM     12  H   UNL     1      45.994   5.315   9.126  0.00  0.00    +0.000 HD
BRANCH  10  13
ATOM     13  C   UNL     1      45.770   2.949   8.238  0.00  0.00    +0.000 A 
ATOM     14  C   UNL     1      46.161   1.617   8.312  0.00  0.00    +0.000 A 
ATOM     15  C   UNL     1      46.880   1.082   7.250  0.00  0.00    +0.000 A 
ATOM     16  C   UNL     1      47.184   1.892   6.160  0.00  0.00    +0.000 A 
ATOM     17  C   UNL     1      46.755   3.213   6.174  0.00  0.00    +0.000 A 
ATOM     18  N   UNL     1      46.052   3.769   7.185  0.00  0.00    +0.000 NA
ENDBRANCH  10  13
ENDBRANCH   8  11
ENDBRANCH   1   8
BRANCH   4  19
ATOM     19  C   UNL     1      47.521   9.960  13.078  0.00  0.00    +0.000 C 
BRANCH  19  20
ATOM     20  C   UNL     1      48.798   9.531  13.805  0.00  0.00    +0.000 C 
BRANCH  20  21
ATOM     21  N   UNL     1      48.519   8.773  15.002  0.00  0.00    +0.000 N 
ATOM     22  C   UNL     1      49.063   9.113  16.216  0.00  0.00    +0.000 C 
ATOM     23  O   UNL     1      49.826  10.067  16.350  0.00  0.00    +0.000 OA
ATOM     24  H   UNL     1      48.047   7.882  14.892  0.00  0.00    +0.000 HD
BRANCH  22  25
ATOM     25  C   UNL     1      48.623   8.321  17.365  0.00  0.00    +0.000 A 
ATOM     26  C   UNL     1      48.151   8.964  18.501  0.00  0.00    +0.000 A 
ATOM     27  S   UNL     1      47.637   7.893  19.724  0.00  0.00    +0.000 S 
ATOM     28  C   UNL     1      48.072   6.536  18.794  0.00  0.00    +0.000 A 
ATOM     29  N   UNL     1      47.912   5.276  19.280  0.00  0.00    +0.000 NA
ATOM     30  C   UNL     1      48.323   4.344  18.485  0.00  0.00    +0.000 A 
ATOM     31  N   UNL     1      48.870   4.555  17.247  0.00  0.00    +0.000 N 
ATOM     32  C   UNL     1      48.997   5.807  16.692  0.00  0.00    +0.000 A 
ATOM     33  O   UNL     1      49.401   5.955  15.543  0.00  0.00    +0.000 OA
ATOM     34  C   UNL     1      48.583   6.892  17.560  0.00  0.00    +0.000 A 
ATOM     35  H   UNL     1      49.153   3.780  16.666  0.00  0.00    +0.000 HD
ENDBRANCH  22  25
ENDBRANCH  20  21
ENDBRANCH  19  20
ENDBRANCH   4  19
TORSDOF 7
ENDMDL
MODEL 6
REMARK VINA RESULT:    -6.766      2.126      2.996
REMARK INTER + INTRA:         -10.836
REMARK INTER:                  -9.413
REMARK INTRA:                  -1.423
REMARK UNBOUND:                -1.301
REMARK  Name = 
REMARK  7 active torsions:
REMARK  status: ('A' for Active; 'I' for Inactive)
REMARK    1  A    between atoms: C_2  and  C_27
REMARK    2  A    between atoms: N_3  and  C_4
REMARK    3  A    between atoms: C_4  and  C_5
REMARK    4  A    between atoms: C_8  and  C_9
REMARK    5  A    between atoms: C_9  and  C_10
REMARK    6  A    between atoms: C_10  and  N_11
REMARK    7  A    between atoms: C_12  and  C_14
REMARK                            x       y       z     vdW  Elec       q    Type
REMARK                         _______ _______ _______ _____ _____    ______ ____
ROOT
ATOM      1  C   UNL     1      47.333   8.141  12.581  0.00  0.00    +0.000 A 
ATOM      2  C   UNL     1      47.709   8.911  13.687  0.00  0.00    +0.000 A 
ATOM      3  C   UNL     1      49.056   9.127  13.975  0.00  0.00    +0.000 A 
ATOM      4  C   UNL     1      50.064   8.551  13.189  0.00  0.00    +0.000 A 
ATOM      5  C   UNL     1      49.674   7.774  12.094  0.00  0.00    +0.000 A 
ATOM      6  F   UNL     1      50.605   7.225  11.298  0.00  0.00    +0.000 F 
ATOM      7  C   UNL     1      48.331   7.560  11.792  0.00  0.00    +0.000 A 
ENDROOT
BRANCH   1   8
ATOM      8  C   UNL     1      45.880   7.963  12.249  0.00  0.00    +0.000 C 
BRANCH   8  11
ATOM      9  O   UNL     1      44.894   5.453  12.935  0.00  0.00    +0.000 OA
ATOM     10  C   UNL     1      45.159   5.684  11.759  0.00  0.00    +0.000 C 
ATOM     11  N   UNL     1      45.661   6.889  11.320  0.00  0.00    +0.000 N 
ATOM     12  H   UNL     1      45.855   6.990  10.328  0.00  0.00    +0.000 HD
BRANCH  10  13
ATOM     13  C   UNL     1      44.943   4.652  10.699  0.00  0.00    +0.000 A 
ATOM     14  C   UNL     1      45.367   4.916   9.402  0.00  0.00    +0.000 A 
ATOM     15  C   UNL     1      45.174   3.938   8.434  0.00  0.00    +0.000 A 
ATOM     16  C   UNL     1      44.565   2.739   8.793  0.00  0.00    +0.000 A 
ATOM     17  C   UNL     1      44.170   2.565  10.113  0.00  0.00    +0.000 A 
ATOM     18  N   UNL     1      44.343   3.489  11.082  0.00  0.00    +0.000 NA
ENDBRANCH  10  13
ENDBRANCH   8  11
ENDBRANCH   1   8
BRANCH   4  19
ATOM     19  C   UNL     1      51.531   8.809  13.444  0.00  0.00    +0.000 C 
BRANCH  19  20
ATOM     20  C   UNL     1      51.963   8.574  14.892  0.00  0.00    +0.000 C 
BRANCH  20  21
ATOM     21  N   UNL     1      51.591   7.264  15.371  0.00  0.00    +0.000 N 
ATOM     22  C   UNL     1      51.694   6.921  16.696  0.00  0.00    +0.000 C 
ATOM     23  O   UNL     1      52.121   7.700  17.545  0.00  0.00    +0.000 OA
ATOM     24  H   UNL     1      51.412   6.546  14.675  0.00  0.00    +0.000 HD
BRANCH  22  25
ATOM     25  C   UNL     1      51.193   5.595  17.060  0.00  0.00    +0.000 A 
ATOM     26  C   UNL     1      52.090   4.588  17.388  0.00  0.00    +0.000 A 
ATOM     27  S   UNL     1      51.338   3.125  17.832  0.00  0.00    +0.000 S 
ATOM     28  C   UNL     1      49.789   3.774  17.556  0.00  0.00    +0.000 A 
ATOM     29  N   UNL     1      48.673   3.018  17.730  0.00  0.00    +0.000 NA
ATOM     30  C   UNL     1      47.569   3.625  17.444  0.00  0.00    +0.000 A 
ATOM     31  N   UNL     1      47.478   4.922  17.011  0.00  0.00    +0.000 N 
ATOM     32  C   UNL     1      48.574   5.741  16.877  0.00  0.00    +0.000 A 
ATOM     33  O   UNL     1      48.450   6.926  16.580  0.00  0.00    +0.000 OA
ATOM     34  C   UNL     1      49.843   5.095  17.151  0.00  0.00    +0.000 A 
ATOM     35  H   UNL     1      46.581   5.344  16.824  0.00  0.00    +0.000 HD
ENDBRANCH  22  25
ENDBRANCH  20  21
ENDBRANCH  19  20
ENDBRANCH   4  19
TORSDOF 7
ENDMDL
MODEL 7
REMARK VINA RESULT:    -6.562      3.230      8.018
REMARK INTER + INTRA:         -10.548
REMARK INTER:                  -9.594
REMARK INTRA:                  -0.954
REMARK UNBOUND:                -1.301
REMARK  Name = 
REMARK  7 active torsions:
REMARK  status: ('A' for Active; 'I' for Inactive)
REMARK    1  A    between atoms: C_2  and  C_27
REMARK    2  A    between atoms: N_3  and  C_4
REMARK    3  A    between atoms: C_4  and  C_5
REMARK    4  A    between atoms: C_8  and  C_9
REMARK    5  A    between atoms: C_9  and  C_10
REMARK    6  A    between atoms: C_10  and  N_11
REMARK    7  A    between atoms: C_12  and  C_14
REMARK                            x       y       z     vdW  Elec       q    Type
REMARK                         _______ _______ _______ _____ _____    ______ ____
ROOT
ATOM      1  C   UNL     1      50.700   7.903  15.222  0.00  0.00    +0.000 A 
ATOM      2  C   UNL     1      49.348   8.197  15.422  0.00  0.00    +0.000 A 
ATOM      3  C   UNL     1      48.497   8.398  14.335  0.00  0.00    +0.000 A 
ATOM      4  C   UNL     1      48.982   8.347  13.020  0.00  0.00    +0.000 A 
ATOM      5  C   UNL     1      50.339   8.064  12.836  0.00  0.00    +0.000 A 
ATOM      6  F   UNL     1      50.841   7.979  11.594  0.00  0.00    +0.000 F 
ATOM      7  C   UNL     1      51.194   7.852  13.915  0.00  0.00    +0.000 A 
ENDROOT
BRANCH   1   8
ATOM      8  C   UNL     1      51.592   7.633  16.399  0.00  0.00    +0.000 C 
BRANCH   8  11
ATOM      9  O   UNL     1      50.116   5.967  18.069  0.00  0.00    +0.000 OA
ATOM     10  C   UNL     1      51.046   5.489  17.428  0.00  0.00    +0.000 C 
ATOM     11  N   UNL     1      51.843   6.231  16.583  0.00  0.00    +0.000 N 
ATOM     12  H   UNL     1      52.594   5.751  16.096  0.00  0.00    +0.000 HD
BRANCH  10  13
ATOM     13  C   UNL     1      51.382   4.035  17.518  0.00  0.00    +0.000 A 
ATOM     14  C   UNL     1      52.609   3.656  18.052  0.00  0.00    +0.000 A 
ATOM     15  C   UNL     1      52.896   2.299  18.143  0.00  0.00    +0.000 A 
ATOM     16  C   UNL     1      51.955   1.375  17.698  0.00  0.00    +0.000 A 
ATOM     17  C   UNL     1      50.758   1.846  17.176  0.00  0.00    +0.000 A 
ATOM     18  N   UNL     1      50.440   3.155  17.073  0.00  0.00    +0.000 NA
ENDBRANCH  10  13
ENDBRANCH   8  11
ENDBRANCH   1   8
BRANCH   4  19
ATOM     19  C   UNL     1      48.077   8.508  11.821  0.00  0.00    +0.000 C 
BRANCH  19  20
ATOM     20  C   UNL     1      46.587   8.380  12.142  0.00  0.00    +0.000 C 
BRANCH  20  21
ATOM     21  N   UNL     1      46.111   7.024  12.005  0.00  0.00    +0.000 N 
ATOM     22  C   UNL     1      44.850   6.743  11.543  0.00  0.00    +0.000 C 
ATOM     23  O   UNL     1      44.052   7.625  11.233  0.00  0.00    +0.000 OA
ATOM     24  H   UNL     1      46.672   6.288  12.422  0.00  0.00    +0.000 HD
BRANCH  22  25
ATOM     25  C   UNL     1      44.529   5.327  11.361  0.00  0.00    +0.000 A 
ATOM     26  C   UNL     1      43.793   4.660  12.332  0.00  0.00    +0.000 A 
ATOM     27  S   UNL     1      43.470   3.032  11.940  0.00  0.00    +0.000 S 
ATOM     28  C   UNL     1      44.342   3.152  10.484  0.00  0.00    +0.000 A 
ATOM     29  N   UNL     1      44.480   2.078   9.662  0.00  0.00    +0.000 NA
ATOM     30  C   UNL     1      45.202   2.300   8.614  0.00  0.00    +0.000 A 
ATOM     31  N   UNL     1      45.789   3.499   8.307  0.00  0.00    +0.000 N 
ATOM     32  C   UNL     1      45.628   4.627   9.078  0.00  0.00    +0.000 A 
ATOM     33  O   UNL     1      46.087   5.709   8.726  0.00  0.00    +0.000 OA
ATOM     34  C   UNL     1      44.856   4.421  10.288  0.00  0.00    +0.000 A 
ATOM     35  H   UNL     1      46.325   3.612   7.460  0.00  0.00    +0.000 HD
ENDBRANCH  22  25
ENDBRANCH  20  21
ENDBRANCH  19  20
ENDBRANCH   4  19
TORSDOF 7
ENDMDL
MODEL 8
REMARK VINA RESULT:    -6.302      2.401      3.497
REMARK INTER + INTRA:         -10.181
REMARK INTER:                  -8.796
REMARK INTRA:                  -1.386
REMARK UNBOUND:                -1.301
REMARK  Name = 
REMARK  7 active torsions:
REMARK  status: ('A' for Active; 'I' for Inactive)
REMARK    1  A    between atoms: C_2  and  C_27
REMARK    2  A    between atoms: N_3  and  C_4
REMARK    3  A    between atoms: C_4  and  C_5
REMARK    4  A    between atoms: C_8  and  C_9
REMARK    5  A    between atoms: C_9  and  C_10
REMARK    6  A    between atoms: C_10  and  N_11
REMARK    7  A    between atoms: C_12  and  C_14
REMARK                            x       y       z     vdW  Elec       q    Type
REMARK                         _______ _______ _______ _____ _____    ______ ____
ROOT
ATOM      1  C   UNL     1      47.125   7.681  12.457  0.00  0.00    +0.000 A 
ATOM      2  C   UNL     1      48.281   6.903  12.352  0.00  0.00    +0.000 A 
ATOM      3  C   UNL     1      49.468   7.309  12.962  0.00  0.00    +0.000 A 
ATOM      4  C   UNL     1      49.541   8.522  13.661  0.00  0.00    +0.000 A 
ATOM      5  C   UNL     1      48.380   9.297  13.748  0.00  0.00    +0.000 A 
ATOM      6  F   UNL     1      48.397  10.452  14.431  0.00  0.00    +0.000 F 
ATOM      7  C   UNL     1      47.188   8.894  13.151  0.00  0.00    +0.000 A 
ENDROOT
BRANCH   1   8
ATOM      8  C   UNL     1      45.840   7.205  11.844  0.00  0.00    +0.000 C 
BRANCH   8  11
ATOM      9  O   UNL     1      43.836   5.504  10.933  0.00  0.00    +0.000 OA
ATOM     10  C   UNL     1      44.981   5.344  10.521  0.00  0.00    +0.000 C 
ATOM     11  N   UNL     1      46.043   6.126  10.919  0.00  0.00    +0.000 N 
ATOM     12  H   UNL     1      46.958   5.918  10.528  0.00  0.00    +0.000 HD
BRANCH  10  13
ATOM     13  C   UNL     1      45.306   4.271   9.532  0.00  0.00    +0.000 A 
ATOM     14  C   UNL     1      44.965   2.955   9.825  0.00  0.00    +0.000 A 
ATOM     15  C   UNL     1      45.260   1.975   8.886  0.00  0.00    +0.000 A 
ATOM     16  C   UNL     1      45.883   2.340   7.696  0.00  0.00    +0.000 A 
ATOM     17  C   UNL     1      46.190   3.678   7.491  0.00  0.00    +0.000 A 
ATOM     18  N   UNL     1      45.917   4.661   8.377  0.00  0.00    +0.000 NA
ENDBRANCH  10  13
ENDBRANCH   8  11
ENDBRANCH   1   8
BRANCH   4  19
ATOM     19  C   UNL     1      50.796   8.965  14.377  0.00  0.00    +0.000 C 
BRANCH  19  20
ATOM     20  C   UNL     1      51.406   7.896  15.286  0.00  0.00    +0.000 C 
BRANCH  20  21
ATOM     21  N   UNL     1      50.738   7.816  16.564  0.00  0.00    +0.000 N 
ATOM     22  C   UNL     1      49.935   6.753  16.895  0.00  0.00    +0.000 C 
ATOM     23  O   UNL     1      49.729   5.820  16.122  0.00  0.00    +0.000 OA
ATOM     24  H   UNL     1      50.740   8.648  17.145  0.00  0.00    +0.000 HD
BRANCH  22  25
ATOM     25  C   UNL     1      49.398   6.750  18.256  0.00  0.00    +0.000 A 
ATOM     26  C   UNL     1      49.682   5.688  19.104  0.00  0.00    +0.000 A 
ATOM     27  S   UNL     1      49.017   5.866  20.663  0.00  0.00    +0.000 S 
ATOM     28  C   UNL     1      48.288   7.345  20.242  0.00  0.00    +0.000 A 
ATOM     29  N   UNL     1      47.530   8.030  21.139  0.00  0.00    +0.000 NA
ATOM     30  C   UNL     1      47.004   9.114  20.671  0.00  0.00    +0.000 A 
ATOM     31  N   UNL     1      47.174   9.581  19.395  0.00  0.00    +0.000 N 
ATOM     32  C   UNL     1      47.979   8.952  18.473  0.00  0.00    +0.000 A 
ATOM     33  O   UNL     1      48.188   9.447  17.370  0.00  0.00    +0.000 OA
ATOM     34  C   UNL     1      48.565   7.709  18.937  0.00  0.00    +0.000 A 
ATOM     35  H   UNL     1      46.751  10.447  19.099  0.00  0.00    +0.000 HD
ENDBRANCH  22  25
ENDBRANCH  20  21
ENDBRANCH  19  20
ENDBRANCH   4  19
TORSDOF 7
ENDMDL
MODEL 9
REMARK VINA RESULT:    -6.188      3.742      7.050
REMARK INTER + INTRA:         -10.021
REMARK INTER:                  -8.332
REMARK INTRA:                  -1.689
REMARK UNBOUND:                -1.301
REMARK  Name = 
REMARK  7 active torsions:
REMARK  status: ('A' for Active; 'I' for Inactive)
REMARK    1  A    between atoms: C_2  and  C_27
REMARK    2  A    between atoms: N_3  and  C_4
REMARK    3  A    between atoms: C_4  and  C_5
REMARK    4  A    between atoms: C_8  and  C_9
REMARK    5  A    between atoms: C_9  and  C_10
REMARK    6  A    between atoms: C_10  and  N_11
REMARK    7  A    between atoms: C_12  and  C_14
REMARK                            x       y       z     vdW  Elec       q    Type
REMARK                         _______ _______ _______ _____ _____    ______ ____
ROOT
ATOM      1  C   UNL     1      50.931   8.724  15.754  0.00  0.00    +0.000 A 
ATOM      2  C   UNL     1      49.723   9.251  16.221  0.00  0.00    +0.000 A 
ATOM      3  C   UNL     1      48.915  10.023  15.385  0.00  0.00    +0.000 A 
ATOM      4  C   UNL     1      49.311  10.319  14.073  0.00  0.00    +0.000 A 
ATOM      5  C   UNL     1      50.527   9.796  13.623  0.00  0.00    +0.000 A 
ATOM      6  F   UNL     1      50.932  10.031  12.366  0.00  0.00    +0.000 F 
ATOM      7  C   UNL     1      51.335   9.015  14.448  0.00  0.00    +0.000 A 
ENDROOT
BRANCH   1   8
ATOM      8  C   UNL     1      51.762   7.848  16.645  0.00  0.00    +0.000 C 
BRANCH   8  11
ATOM      9  O   UNL     1      50.162   6.528  18.500  0.00  0.00    +0.000 OA
ATOM     10  C   UNL     1      50.578   5.906  17.528  0.00  0.00    +0.000 C 
ATOM     11  N   UNL     1      51.384   6.465  16.560  0.00  0.00    +0.000 N 
ATOM     12  H   UNL     1      51.684   5.873  15.792  0.00  0.00    +0.000 HD
BRANCH  10  13
ATOM     13  C   UNL     1      50.224   4.469  17.318  0.00  0.00    +0.000 A 
ATOM     14  C   UNL     1      51.191   3.495  17.542  0.00  0.00    +0.000 A 
ATOM     15  C   UNL     1      50.838   2.163  17.359  0.00  0.00    +0.000 A 
ATOM     16  C   UNL     1      49.541   1.854  16.960  0.00  0.00    +0.000 A 
ATOM     17  C   UNL     1      48.643   2.893  16.757  0.00  0.00    +0.000 A 
ATOM     18  N   UNL     1      48.946   4.198  16.926  0.00  0.00    +0.000 NA
ENDBRANCH  10  13
ENDBRANCH   8  11
ENDBRANCH   1   8
BRANCH   4  19
ATOM     19  C   UNL     1      48.436  11.107  13.126  0.00  0.00    +0.000 C 
BRANCH  19  20
ATOM     20  C   UNL     1      47.925  10.300  11.931  0.00  0.00    +0.000 C 
BRANCH  20  21
ATOM     21  N   UNL     1      47.235   9.098  12.335  0.00  0.00    +0.000 N 
ATOM     22  C   UNL     1      47.703   7.850  12.008  0.00  0.00    +0.000 C 
ATOM     23  O   UNL     1      48.724   7.684  11.344  0.00  0.00    +0.000 OA
ATOM     24  H   UNL     1      46.302   9.203  12.720  0.00  0.00    +0.000 HD
BRANCH  22  25
ATOM     25  C   UNL     1      46.961   6.717  12.561  0.00  0.00    +0.000 A 
ATOM     26  C   UNL     1      47.626   5.768  13.325  0.00  0.00    +0.000 A 
ATOM     27  S   UNL     1      46.606   4.544  13.930  0.00  0.00    +0.000 S 
ATOM     28  C   UNL     1      45.249   5.215  13.152  0.00  0.00    +0.000 A 
ATOM     29  N   UNL     1      44.028   4.625  13.244  0.00  0.00    +0.000 NA
ATOM     30  C   UNL     1      43.099   5.218  12.569  0.00  0.00    +0.000 A 
ATOM     31  N   UNL     1      43.276   6.352  11.821  0.00  0.00    +0.000 N 
ATOM     32  C   UNL     1      44.479   7.015  11.747  0.00  0.00    +0.000 A 
ATOM     33  O   UNL     1      44.582   8.081  11.147  0.00  0.00    +0.000 OA
ATOM     34  C   UNL     1      45.565   6.369  12.458  0.00  0.00    +0.000 A 
ATOM     35  H   UNL     1      42.503   6.777  11.334  0.00  0.00    +0.000 HD
ENDBRANCH  22  25
ENDBRANCH  20  21
ENDBRANCH  19  20
ENDBRANCH   4  19
TORSDOF 7
ENDMDL
