MODEL 1
REMARK VINA RESULT:    -5.952      0.000      0.000
REMARK INTER + INTRA:          -9.225
REMARK INTER:                  -8.040
REMARK INTRA:                  -1.185
REMARK UNBOUND:                -1.185
REMARK  Name = 
REMARK  7 active torsions:
REMARK  status: ('A' for Active; 'I' for Inactive)
REMARK    1  A    between atoms: C_1  and  O_2
REMARK    2  A    between atoms: O_2  and  C_3
REMARK    3  A    between atoms: C_10  and  C_11
REMARK    4  A    between atoms: N_13  and  C_14
REMARK    5  A    between atoms: C_14  and  C_15
REMARK    6  A    between atoms: C_18  and  C_19
REMARK    7  A    between atoms: C_20  and  C_21
REMARK                            x       y       z     vdW  Elec       q    Type
REMARK                         _______ _______ _______ _____ _____    ______ ____
ROOT
ATOM      1  C   UNL     1      51.949   4.951  19.993  0.00  0.00    +0.000 C 
ATOM      2  O   UNL     1      52.107   6.168  20.024  0.00  0.00    +0.000 OA
ATOM      3  N   UNL     1      50.710   4.384  19.849  0.00  0.00    +0.000 N 
ATOM      4  H   UNL     1      50.637   3.380  19.823  0.00  0.00    +0.000 HD
ENDROOT
BRANCH   1  12
ATOM      5  C   UNL     1      52.934   2.248  18.122  0.00  0.00    +0.000 A 
ATOM      6  N   UNL     1      53.551   1.215  17.526  0.00  0.00    +0.000 NA
ATOM      7  C   UNL     1      54.702   0.794  18.047  0.00  0.00    +0.000 A 
ATOM      8  N   UNL     1      55.314   1.273  19.125  0.00  0.00    +0.000 NA
ATOM      9  C   UNL     1      54.663   2.305  19.691  0.00  0.00    +0.000 A 
ATOM     10  S   UNL     1      55.288   3.041  21.087  0.00  0.00    +0.000 S 
ATOM     11  C   UNL     1      54.003   4.158  21.139  0.00  0.00    +0.000 A 
ATOM     12  C   UNL     1      53.093   4.015  20.097  0.00  0.00    +0.000 A 
ATOM     13  C   UNL     1      53.474   2.880  19.255  0.00  0.00    +0.000 A 
BRANCH   5  15
ATOM     14  C   UNL     1      50.876   1.683  17.195  0.00  0.00    +0.000 C 
ATOM     15  O   UNL     1      51.790   2.723  17.522  0.00  0.00    +0.000 OA
ENDBRANCH   5  15
ENDBRANCH   1  12
BRANCH   3  16
ATOM     16  C   UNL     1      49.473   5.123  19.722  0.00  0.00    +0.000 C 
BRANCH  16  17
ATOM     17  C   UNL     1      48.805   4.922  18.373  0.00  0.00    +0.000 A 
ATOM     18  C   UNL     1      49.016   5.842  17.334  0.00  0.00    +0.000 A 
ATOM     19  C   UNL     1      48.379   5.692  16.094  0.00  0.00    +0.000 A 
ATOM     20  C   UNL     1      47.498   4.631  15.878  0.00  0.00    +0.000 A 
ATOM     21  C   UNL     1      47.298   3.695  16.892  0.00  0.00    +0.000 A 
ATOM     22  C   UNL     1      47.957   3.830  18.122  0.00  0.00    +0.000 A 
BRANCH  20  23
ATOM     23  C   UNL     1      46.785   4.509  14.648  0.00  0.00    +0.000 C 
ATOM     24  C   UNL     1      46.141   4.455  13.626  0.00  0.00    +0.000 C 
BRANCH  24  25
ATOM     25  C   UNL     1      45.336   4.435  12.450  0.00  0.00    +0.000 A 
ATOM     26  C   UNL     1      45.570   5.316  11.397  0.00  0.00    +0.000 A 
ATOM     27  C   UNL     1      44.774   5.241  10.255  0.00  0.00    +0.000 A 
ATOM     28  C   UNL     1      43.770   4.285  10.211  0.00  0.00    +0.000 A 
ATOM     29  N   UNL     1      43.513   3.420  11.216  0.00  0.00    +0.000 NA
ATOM     30  C   UNL     1      44.303   3.515  12.313  0.00  0.00    +0.000 A 
ENDBRANCH  24  25
ENDBRANCH  20  23
ENDBRANCH  16  17
ENDBRANCH   3  16
TORSDOF 6
ENDMDL
MODEL 2
REMARK VINA RESULT:    -5.518      5.853      7.432
REMARK INTER + INTRA:          -8.639
REMARK INTER:                  -7.521
REMARK INTRA:                  -1.118
REMARK UNBOUND:                -1.185
REMARK  Name = 
REMARK  7 active torsions:
REMARK  status: ('A' for Active; 'I' for Inactive)
REMARK    1  A    between atoms: C_1  and  O_2
REMARK    2  A    between atoms: O_2  and  C_3
REMARK    3  A    between atoms: C_10  and  C_11
REMARK    4  A    between atoms: N_13  and  C_14
REMARK    5  A    between atoms: C_14  and  C_15
REMARK    6  A    between atoms: C_18  and  C_19
REMARK    7  A    between atoms: C_20  and  C_21
REMARK                            x       y       z     vdW  Elec       q    Type
REMARK                         _______ _______ _______ _____ _____    ______ ____
ROOT
ATOM      1  C   UNL     1      49.059   7.927  16.807  0.00  0.00    +0.000 C 
ATOM      2  O   UNL     1      50.009   8.676  17.016  0.00  0.00    +0.000 OA
ATOM      3  N   UNL     1      48.212   8.110  15.746  0.00  0.00    +0.000 N 
ATOM      4  H   UNL     1      47.452   7.462  15.616  0.00  0.00    +0.000 HD
ENDROOT
BRANCH   1  12
ATOM      5  C   UNL     1      47.866   4.769  16.191  0.00  0.00    +0.000 A 
ATOM      6  N   UNL     1      47.483   3.482  16.201  0.00  0.00    +0.000 NA
ATOM      7  C   UNL     1      47.496   2.839  17.367  0.00  0.00    +0.000 A 
ATOM      8  N   UNL     1      47.829   3.339  18.552  0.00  0.00    +0.000 NA
ATOM      9  C   UNL     1      48.206   4.629  18.497  0.00  0.00    +0.000 A 
ATOM     10  S   UNL     1      48.658   5.444  19.916  0.00  0.00    +0.000 S 
ATOM     11  C   UNL     1      48.978   6.879  19.055  0.00  0.00    +0.000 A 
ATOM     12  C   UNL     1      48.774   6.768  17.684  0.00  0.00    +0.000 A 
ATOM     13  C   UNL     1      48.276   5.429  17.361  0.00  0.00    +0.000 A 
BRANCH   5  15
ATOM     14  C   UNL     1      46.941   4.910  14.061  0.00  0.00    +0.000 C 
ATOM     15  O   UNL     1      47.927   5.394  14.965  0.00  0.00    +0.000 OA
ENDBRANCH   5  15
ENDBRANCH   1  12
BRANCH   3  16
ATOM     16  C   UNL     1      48.324   9.174  14.772  0.00  0.00    +0.000 C 
BRANCH  16  17
ATOM     17  C   UNL     1      49.191   8.793  13.584  0.00  0.00    +0.000 A 
ATOM     18  C   UNL     1      48.637   8.096  12.498  0.00  0.00    +0.000 A 
ATOM     19  C   UNL     1      49.430   7.705  11.409  0.00  0.00    +0.000 A 
ATOM     20  C   UNL     1      50.798   7.981  11.398  0.00  0.00    +0.000 A 
ATOM     21  C   UNL     1      51.357   8.694  12.459  0.00  0.00    +0.000 A 
ATOM     22  C   UNL     1      50.558   9.110  13.534  0.00  0.00    +0.000 A 
BRANCH  20  23
ATOM     23  C   UNL     1      51.630   7.522  10.335  0.00  0.00    +0.000 C 
ATOM     24  C   UNL     1      52.290   7.086   9.419  0.00  0.00    +0.000 C 
BRANCH  24  25
ATOM     25  C   UNL     1      53.024   6.521   8.337  0.00  0.00    +0.000 A 
ATOM     26  C   UNL     1      53.892   5.449   8.532  0.00  0.00    +0.000 A 
ATOM     27  C   UNL     1      54.569   4.911   7.439  0.00  0.00    +0.000 A 
ATOM     28  C   UNL     1      54.351   5.468   6.188  0.00  0.00    +0.000 A 
ATOM     29  N   UNL     1      53.522   6.510   5.964  0.00  0.00    +0.000 NA
ATOM     30  C   UNL     1      52.877   7.012   7.045  0.00  0.00    +0.000 A 
ENDBRANCH  24  25
ENDBRANCH  20  23
ENDBRANCH  16  17
ENDBRANCH   3  16
TORSDOF 6
ENDMDL
MODEL 3
REMARK VINA RESULT:    -5.311      4.431     10.411
REMARK INTER + INTRA:          -8.359
REMARK INTER:                  -7.618
REMARK INTRA:                  -0.742
REMARK UNBOUND:                -1.185
REMARK  Name = 
REMARK  7 active torsions:
REMARK  status: ('A' for Active; 'I' for Inactive)
REMARK    1  A    between atoms: C_1  and  O_2
REMARK    2  A    between atoms: O_2  and  C_3
REMARK    3  A    between atoms: C_10  and  C_11
REMARK    4  A    between atoms: N_13  and  C_14
REMARK    5  A    between atoms: C_14  and  C_15
REMARK    6  A    between atoms: C_18  and  C_19
REMARK    7  A    between atoms: C_20  and  C_21
REMARK                            x       y       z     vdW  Elec       q    Type
REMARK                         _______ _______ _______ _____ _____    ______ ____
ROOT
ATOM      1  C   UNL     1      46.183   6.925  11.360  0.00  0.00    +0.000 C 
ATOM      2  O   UNL     1      45.464   7.781  11.866  0.00  0.00    +0.000 OA
ATOM      3  N   UNL     1      47.549   7.035  11.359  0.00  0.00    +0.000 N 
ATOM      4  H   UNL     1      48.093   6.300  10.936  0.00  0.00    +0.000 HD
ENDROOT
BRANCH   1  12
ATOM      5  C   UNL     1      44.466   4.225  12.600  0.00  0.00    +0.000 A 
ATOM      6  N   UNL     1      43.739   3.119  12.826  0.00  0.00    +0.000 NA
ATOM      7  C   UNL     1      43.419   2.361  11.779  0.00  0.00    +0.000 A 
ATOM      8  N   UNL     1      43.761   2.564  10.511  0.00  0.00    +0.000 NA
ATOM      9  C   UNL     1      44.487   3.681  10.329  0.00  0.00    +0.000 A 
ATOM     10  S   UNL     1      45.027   4.101   8.775  0.00  0.00    +0.000 S 
ATOM     11  C   UNL     1      45.778   5.514   9.358  0.00  0.00    +0.000 A 
ATOM     12  C   UNL     1      45.620   5.711  10.726  0.00  0.00    +0.000 A 
ATOM     13  C   UNL     1      44.877   4.590  11.308  0.00  0.00    +0.000 A 
BRANCH   5  15
ATOM     14  C   UNL     1      45.967   4.757  14.297  0.00  0.00    +0.000 C 
ATOM     15  O   UNL     1      44.716   5.041  13.681  0.00  0.00    +0.000 OA
ENDBRANCH   5  15
ENDBRANCH   1  12
BRANCH   3  16
ATOM     16  C   UNL     1      48.290   8.136  11.933  0.00  0.00    +0.000 C 
BRANCH  16  17
ATOM     17  C   UNL     1      48.993   7.759  13.226  0.00  0.00    +0.000 A 
ATOM     18  C   UNL     1      50.335   8.118  13.433  0.00  0.00    +0.000 A 
ATOM     19  C   UNL     1      51.010   7.747  14.605  0.00  0.00    +0.000 A 
ATOM     20  C   UNL     1      50.364   6.989  15.581  0.00  0.00    +0.000 A 
ATOM     21  C   UNL     1      49.023   6.646  15.400  0.00  0.00    +0.000 A 
ATOM     22  C   UNL     1      48.340   7.041  14.241  0.00  0.00    +0.000 A 
BRANCH  20  23
ATOM     23  C   UNL     1      51.061   6.539  16.742  0.00  0.00    +0.000 C 
ATOM     24  C   UNL     1      51.640   6.096  17.706  0.00  0.00    +0.000 C 
BRANCH  24  25
ATOM     25  C   UNL     1      52.300   5.511  18.826  0.00  0.00    +0.000 A 
ATOM     26  C   UNL     1      52.636   6.268  19.945  0.00  0.00    +0.000 A 
ATOM     27  C   UNL     1      53.256   5.648  21.028  0.00  0.00    +0.000 A 
ATOM     28  C   UNL     1      53.519   4.288  20.949  0.00  0.00    +0.000 A 
ATOM     29  N   UNL     1      53.213   3.526  19.877  0.00  0.00    +0.000 NA
ATOM     30  C   UNL     1      52.610   4.156  18.839  0.00  0.00    +0.000 A 
ENDBRANCH  24  25
ENDBRANCH  20  23
ENDBRANCH  16  17
ENDBRANCH   3  16
TORSDOF 6
ENDMDL
MODEL 4
REMARK VINA RESULT:    -4.984      5.131     10.894
REMARK INTER + INTRA:          -7.917
REMARK INTER:                  -7.150
REMARK INTRA:                  -0.767
REMARK UNBOUND:                -1.185
REMARK  Name = 
REMARK  7 active torsions:
REMARK  status: ('A' for Active; 'I' for Inactive)
REMARK    1  A    between atoms: C_1  and  O_2
REMARK    2  A    between atoms: O_2  and  C_3
REMARK    3  A    between atoms: C_10  and  C_11
REMARK    4  A    between atoms: N_13  and  C_14
REMARK    5  A    between atoms: C_14  and  C_15
REMARK    6  A    between atoms: C_18  and  C_19
REMARK    7  A    between atoms: C_20  and  C_21
REMARK                            x       y       z     vdW  Elec       q    Type
REMARK                         _______ _______ _______ _____ _____    ______ ____
ROOT
ATOM      1  C   UNL     1      45.785   6.768  11.586  0.00  0.00    +0.000 C 
ATOM      2  O   UNL     1      45.233   7.846  11.389  0.00  0.00    +0.000 OA
ATOM      3  N   UNL     1      47.142   6.668  11.750  0.00  0.00    +0.000 N 
ATOM      4  H   UNL     1      47.543   5.759  11.917  0.00  0.00    +0.000 HD
ENDROOT
BRANCH   1  12
ATOM      5  C   UNL     1      45.218   4.225   9.352  0.00  0.00    +0.000 A 
ATOM      6  N   UNL     1      44.907   3.096   8.695  0.00  0.00    +0.000 NA
ATOM      7  C   UNL     1      44.196   2.175   9.343  0.00  0.00    +0.000 A 
ATOM      8  N   UNL     1      43.728   2.254  10.584  0.00  0.00    +0.000 NA
ATOM      9  C   UNL     1      44.062   3.399  11.206  0.00  0.00    +0.000 A 
ATOM     10  S   UNL     1      43.544   3.685  12.797  0.00  0.00    +0.000 S 
ATOM     11  C   UNL     1      44.331   5.195  12.840  0.00  0.00    +0.000 A 
ATOM     12  C   UNL     1      45.017   5.504  11.671  0.00  0.00    +0.000 A 
ATOM     13  C   UNL     1      44.821   4.441  10.682  0.00  0.00    +0.000 A 
BRANCH   5  15
ATOM     14  C   UNL     1      46.715   4.543   7.599  0.00  0.00    +0.000 C 
ATOM     15  O   UNL     1      46.024   5.129   8.697  0.00  0.00    +0.000 OA
ENDBRANCH   5  15
ENDBRANCH   1  12
BRANCH   3  16
ATOM     16  C   UNL     1      48.063   7.782  11.712  0.00  0.00    +0.000 C 
BRANCH  16  17
ATOM     17  C   UNL     1      49.038   7.777  12.876  0.00  0.00    +0.000 A 
ATOM     18  C   UNL     1      50.271   8.440  12.770  0.00  0.00    +0.000 A 
ATOM     19  C   UNL     1      51.199   8.417  13.822  0.00  0.00    +0.000 A 
ATOM     20  C   UNL     1      50.921   7.707  14.990  0.00  0.00    +0.000 A 
ATOM     21  C   UNL     1      49.689   7.063  15.120  0.00  0.00    +0.000 A 
ATOM     22  C   UNL     1      48.751   7.112  14.080  0.00  0.00    +0.000 A 
BRANCH  20  23
ATOM     23  C   UNL     1      51.885   7.610  16.037  0.00  0.00    +0.000 C 
ATOM     24  C   UNL     1      52.702   7.461  16.916  0.00  0.00    +0.000 C 
BRANCH  24  25
ATOM     25  C   UNL     1      53.652   7.219  17.951  0.00  0.00    +0.000 A 
ATOM     26  C   UNL     1      54.889   7.859  17.963  0.00  0.00    +0.000 A 
ATOM     27  C   UNL     1      55.775   7.612  19.009  0.00  0.00    +0.000 A 
ATOM     28  C   UNL     1      55.390   6.729  20.007  0.00  0.00    +0.000 A 
ATOM     29  N   UNL     1      54.202   6.087  20.023  0.00  0.00    +0.000 NA
ATOM     30  C   UNL     1      53.360   6.348  18.993  0.00  0.00    +0.000 A 
ENDBRANCH  24  25
ENDBRANCH  20  23
ENDBRANCH  16  17
ENDBRANCH   3  16
TORSDOF 6
ENDMDL
MODEL 5
REMARK VINA RESULT:    -4.885     10.727     13.852
REMARK INTER + INTRA:          -7.784
REMARK INTER:                  -6.805
REMARK INTRA:                  -0.979
REMARK UNBOUND:                -1.185
REMARK  Name = 
REMARK  7 active torsions:
REMARK  status: ('A' for Active; 'I' for Inactive)
REMARK    1  A    between atoms: C_1  and  O_2
REMARK    2  A    between atoms: O_2  and  C_3
REMARK    3  A    between atoms: C_10  and  C_11
REMARK    4  A    between atoms: N_13  and  C_14
REMARK    5  A    between atoms: C_14  and  C_15
REMARK    6  A    between atoms: C_18  and  C_19
REMARK    7  A    between atoms: C_20  and  C_21
REMARK                            x       y       z     vdW  Elec       q    Type
REMARK                         _______ _______ _______ _____ _____    ______ ____
ROOT
ATOM      1  C   UNL     1      38.672  -0.802  19.448  0.00  0.00    +0.000 C 
ATOM      2  O   UNL     1      38.147  -1.416  20.372  0.00  0.00    +0.000 OA
ATOM      3  N   UNL     1      39.122  -1.436  18.320  0.00  0.00    +0.000 N 
ATOM      4  H   UNL     1      39.538  -0.884  17.588  0.00  0.00    +0.000 HD
ENDROOT
BRANCH   1  12
ATOM      5  C   UNL     1      38.034   1.687  17.174  0.00  0.00    +0.000 A 
ATOM      6  N   UNL     1      37.817   2.826  16.495  0.00  0.00    +0.000 NA
ATOM      7  C   UNL     1      38.101   3.976  17.103  0.00  0.00    +0.000 A 
ATOM      8  N   UNL     1      38.606   4.131  18.323  0.00  0.00    +0.000 NA
ATOM      9  C   UNL     1      38.808   2.968  18.967  0.00  0.00    +0.000 A 
ATOM     10  S   UNL     1      39.459   2.965  20.535  0.00  0.00    +0.000 S 
ATOM     11  C   UNL     1      39.380   1.266  20.624  0.00  0.00    +0.000 A 
ATOM     12  C   UNL     1      38.842   0.669  19.489  0.00  0.00    +0.000 A 
ATOM     13  C   UNL     1      38.536   1.691  18.485  0.00  0.00    +0.000 A 
BRANCH   5  15
ATOM     14  C   UNL     1      37.219   0.715  15.223  0.00  0.00    +0.000 C 
ATOM     15  O   UNL     1      37.656   0.513  16.562  0.00  0.00    +0.000 OA
ENDBRANCH   5  15
ENDBRANCH   1  12
BRANCH   3  16
ATOM     16  C   UNL     1      39.040  -2.861  18.084  0.00  0.00    +0.000 C 
BRANCH  16  17
ATOM     17  C   UNL     1      40.402  -3.534  18.081  0.00  0.00    +0.000 A 
ATOM     18  C   UNL     1      40.979  -3.969  19.285  0.00  0.00    +0.000 A 
ATOM     19  C   UNL     1      42.251  -4.560  19.305  0.00  0.00    +0.000 A 
ATOM     20  C   UNL     1      42.980  -4.704  18.124  0.00  0.00    +0.000 A 
ATOM     21  C   UNL     1      42.409  -4.300  16.917  0.00  0.00    +0.000 A 
ATOM     22  C   UNL     1      41.125  -3.736  16.894  0.00  0.00    +0.000 A 
BRANCH  20  23
ATOM     23  C   UNL     1      44.305  -5.233  18.140  0.00  0.00    +0.000 C 
ATOM     24  C   UNL     1      45.405  -5.736  18.123  0.00  0.00    +0.000 C 
BRANCH  24  25
ATOM     25  C   UNL     1      46.672  -6.387  18.083  0.00  0.00    +0.000 A 
ATOM     26  C   UNL     1      47.734  -5.861  17.352  0.00  0.00    +0.000 A 
ATOM     27  C   UNL     1      48.963  -6.518  17.364  0.00  0.00    +0.000 A 
ATOM     28  C   UNL     1      49.083  -7.681  18.109  0.00  0.00    +0.000 A 
ATOM     29  N   UNL     1      48.073  -8.221  18.824  0.00  0.00    +0.000 NA
ATOM     30  C   UNL     1      46.890  -7.561  18.795  0.00  0.00    +0.000 A 
ENDBRANCH  24  25
ENDBRANCH  20  23
ENDBRANCH  16  17
ENDBRANCH   3  16
TORSDOF 6
ENDMDL
MODEL 6
REMARK VINA RESULT:    -4.670     10.636     14.024
REMARK INTER + INTRA:          -7.493
REMARK INTER:                  -6.494
REMARK INTRA:                  -0.999
REMARK UNBOUND:                -1.185
REMARK  Name = 
REMARK  7 active torsions:
REMARK  status: ('A' for Active; 'I' for Inactive)
REMARK    1  A    between atoms: C_1  and  O_2
REMARK    2  A    between atoms: O_2  and  C_3
REMARK    3  A    between atoms: C_10  and  C_11
REMARK    4  A    between atoms: N_13  and  C_14
REMARK    5  A    between atoms: C_14  and  C_15
REMARK    6  A    between atoms: C_18  and  C_19
REMARK    7  A    between atoms: C_20  and  C_21
REMARK                            x       y       z     vdW  Elec       q    Type
REMARK                         _______ _______ _______ _____ _____    ______ ____
ROOT
ATOM      1  C   UNL     1      38.161  -1.145  19.058  0.00  0.00    +0.000 C 
ATOM      2  O   UNL     1      37.249  -1.890  19.404  0.00  0.00    +0.000 OA
ATOM      3  N   UNL     1      39.417  -1.239  19.595  0.00  0.00    +0.000 N 
ATOM      4  H   UNL     1      40.131  -0.607  19.270  0.00  0.00    +0.000 HD
ENDROOT
BRANCH   1  12
ATOM      5  C   UNL     1      38.664   2.250  19.044  0.00  0.00    +0.000 A 
ATOM      6  N   UNL     1      38.832   3.554  18.771  0.00  0.00    +0.000 NA
ATOM      7  C   UNL     1      38.548   3.974  17.540  0.00  0.00    +0.000 A 
ATOM      8  N   UNL     1      38.085   3.240  16.533  0.00  0.00    +0.000 NA
ATOM      9  C   UNL     1      37.931   1.942  16.848  0.00  0.00    +0.000 A 
ATOM     10  S   UNL     1      37.338   0.850  15.690  0.00  0.00    +0.000 S 
ATOM     11  C   UNL     1      37.455  -0.453  16.781  0.00  0.00    +0.000 A 
ATOM     12  C   UNL     1      37.962  -0.100  18.026  0.00  0.00    +0.000 A 
ATOM     13  C   UNL     1      38.210   1.343  18.072  0.00  0.00    +0.000 A 
BRANCH   5  15
ATOM     14  C   UNL     1      39.887   2.753  20.958  0.00  0.00    +0.000 C 
ATOM     15  O   UNL     1      39.043   1.819  20.296  0.00  0.00    +0.000 OA
ENDBRANCH   5  15
ENDBRANCH   1  12
BRANCH   3  16
ATOM     16  C   UNL     1      39.815  -2.195  20.605  0.00  0.00    +0.000 C 
BRANCH  16  17
ATOM     17  C   UNL     1      40.986  -3.058  20.167  0.00  0.00    +0.000 A 
ATOM     18  C   UNL     1      42.003  -3.385  21.077  0.00  0.00    +0.000 A 
ATOM     19  C   UNL     1      43.110  -4.150  20.682  0.00  0.00    +0.000 A 
ATOM     20  C   UNL     1      43.232  -4.582  19.360  0.00  0.00    +0.000 A 
ATOM     21  C   UNL     1      42.216  -4.285  18.450  0.00  0.00    +0.000 A 
ATOM     22  C   UNL     1      41.097  -3.544  18.854  0.00  0.00    +0.000 A 
BRANCH  20  23
ATOM     23  C   UNL     1      44.388  -5.295  18.925  0.00  0.00    +0.000 C 
ATOM     24  C   UNL     1      45.404  -5.866  18.601  0.00  0.00    +0.000 C 
BRANCH  24  25
ATOM     25  C   UNL     1      46.636  -6.495  18.259  0.00  0.00    +0.000 A 
ATOM     26  C   UNL     1      47.559  -5.872  17.422  0.00  0.00    +0.000 A 
ATOM     27  C   UNL     1      48.763  -6.514  17.137  0.00  0.00    +0.000 A 
ATOM     28  C   UNL     1      48.998  -7.759  17.700  0.00  0.00    +0.000 A 
ATOM     29  N   UNL     1      48.122  -8.394  18.509  0.00  0.00    +0.000 NA
ATOM     30  C   UNL     1      46.961  -7.746  18.770  0.00  0.00    +0.000 A 
ENDBRANCH  24  25
ENDBRANCH  20  23
ENDBRANCH  16  17
ENDBRANCH   3  16
TORSDOF 6
ENDMDL
MODEL 7
REMARK VINA RESULT:    -4.509      9.041     10.239
REMARK INTER + INTRA:          -7.276
REMARK INTER:                  -6.471
REMARK INTRA:                  -0.805
REMARK UNBOUND:                -1.185
REMARK  Name = 
REMARK  7 active torsions:
REMARK  status: ('A' for Active; 'I' for Inactive)
REMARK    1  A    between atoms: C_1  and  O_2
REMARK    2  A    between atoms: O_2  and  C_3
REMARK    3  A    between atoms: C_10  and  C_11
REMARK    4  A    between atoms: N_13  and  C_14
REMARK    5  A    between atoms: C_14  and  C_15
REMARK    6  A    between atoms: C_18  and  C_19
REMARK    7  A    between atoms: C_20  and  C_21
REMARK                            x       y       z     vdW  Elec       q    Type
REMARK                         _______ _______ _______ _____ _____    ______ ____
ROOT
ATOM      1  C   UNL     1      50.223  -7.518  18.459  0.00  0.00    +0.000 C 
ATOM      2  O   UNL     1      50.518  -8.621  18.008  0.00  0.00    +0.000 OA
ATOM      3  N   UNL     1      48.924  -7.090  18.534  0.00  0.00    +0.000 N 
ATOM      4  H   UNL     1      48.737  -6.179  18.920  0.00  0.00    +0.000 HD
ENDROOT
BRANCH   1  12
ATOM      5  C   UNL     1      52.776  -5.812  16.927  0.00  0.00    +0.000 A 
ATOM      6  N   UNL     1      53.784  -5.005  16.558  0.00  0.00    +0.000 NA
ATOM      7  C   UNL     1      54.353  -4.252  17.497  0.00  0.00    +0.000 A 
ATOM      8  N   UNL     1      54.048  -4.221  18.790  0.00  0.00    +0.000 NA
ATOM      9  C   UNL     1      53.034  -5.043  19.116  0.00  0.00    +0.000 A 
ATOM     10  S   UNL     1      52.510  -5.148  20.728  0.00  0.00    +0.000 S 
ATOM     11  C   UNL     1      51.304  -6.279  20.319  0.00  0.00    +0.000 A 
ATOM     12  C   UNL     1      51.256  -6.582  18.963  0.00  0.00    +0.000 A 
ATOM     13  C   UNL     1      52.319  -5.867  18.254  0.00  0.00    +0.000 A 
BRANCH   5  15
ATOM     14  C   UNL     1      52.890  -7.660  15.517  0.00  0.00    +0.000 C 
ATOM     15  O   UNL     1      52.144  -6.520  15.928  0.00  0.00    +0.000 OA
ENDBRANCH   5  15
ENDBRANCH   1  12
BRANCH   3  16
ATOM     16  C   UNL     1      47.775  -7.856  18.105  0.00  0.00    +0.000 C 
BRANCH  16  17
ATOM     17  C   UNL     1      46.520  -7.009  17.977  0.00  0.00    +0.000 A 
ATOM     18  C   UNL     1      45.400  -7.503  17.289  0.00  0.00    +0.000 A 
ATOM     19  C   UNL     1      44.246  -6.721  17.130  0.00  0.00    +0.000 A 
ATOM     20  C   UNL     1      44.201  -5.421  17.634  0.00  0.00    +0.000 A 
ATOM     21  C   UNL     1      45.297  -4.926  18.342  0.00  0.00    +0.000 A 
ATOM     22  C   UNL     1      46.439  -5.718  18.525  0.00  0.00    +0.000 A 
BRANCH  20  23
ATOM     23  C   UNL     1      43.064  -4.588  17.413  0.00  0.00    +0.000 C 
ATOM     24  C   UNL     1      42.141  -3.837  17.199  0.00  0.00    +0.000 C 
BRANCH  24  25
ATOM     25  C   UNL     1      41.099  -2.903  16.930  0.00  0.00    +0.000 A 
ATOM     26  C   UNL     1      40.388  -2.294  17.961  0.00  0.00    +0.000 A 
ATOM     27  C   UNL     1      39.396  -1.366  17.651  0.00  0.00    +0.000 A 
ATOM     28  C   UNL     1      39.149  -1.084  16.316  0.00  0.00    +0.000 A 
ATOM     29  N   UNL     1      39.813  -1.661  15.292  0.00  0.00    +0.000 NA
ATOM     30  C   UNL     1      40.774  -2.558  15.623  0.00  0.00    +0.000 A 
ENDBRANCH  24  25
ENDBRANCH  20  23
ENDBRANCH  16  17
ENDBRANCH   3  16
TORSDOF 6
ENDMDL
MODEL 8
REMARK VINA RESULT:    -4.463     12.326     14.036
REMARK INTER + INTRA:          -7.214
REMARK INTER:                  -6.097
REMARK INTRA:                  -1.117
REMARK UNBOUND:                -1.185
REMARK  Name = 
REMARK  7 active torsions:
REMARK  status: ('A' for Active; 'I' for Inactive)
REMARK    1  A    between atoms: C_1  and  O_2
REMARK    2  A    between atoms: O_2  and  C_3
REMARK    3  A    between atoms: C_10  and  C_11
REMARK    4  A    between atoms: N_13  and  C_14
REMARK    5  A    between atoms: C_14  and  C_15
REMARK    6  A    between atoms: C_18  and  C_19
REMARK    7  A    between atoms: C_20  and  C_21
REMARK                            x       y       z     vdW  Elec       q    Type
REMARK                         _______ _______ _______ _____ _____    ______ ____
ROOT
ATOM      1  C   UNL     1      38.937  -1.225  17.426  0.00  0.00    +0.000 C 
ATOM      2  O   UNL     1      38.464  -2.243  17.924  0.00  0.00    +0.000 OA
ATOM      3  N   UNL     1      39.929  -1.273  16.484  0.00  0.00    +0.000 N 
ATOM      4  H   UNL     1      40.276  -0.408  16.102  0.00  0.00    +0.000 HD
ENDROOT
BRANCH   1  12
ATOM      5  C   UNL     1      37.466   1.316  15.650  0.00  0.00    +0.000 A 
ATOM      6  N   UNL     1      36.834   2.411  15.198  0.00  0.00    +0.000 NA
ATOM      7  C   UNL     1      36.548   3.371  16.076  0.00  0.00    +0.000 A 
ATOM      8  N   UNL     1      36.842   3.381  17.372  0.00  0.00    +0.000 NA
ATOM      9  C   UNL     1      37.474   2.267  17.782  0.00  0.00    +0.000 A 
ATOM     10  S   UNL     1      37.940   2.104  19.407  0.00  0.00    +0.000 S 
ATOM     11  C   UNL     1      38.593   0.557  19.120  0.00  0.00    +0.000 A 
ATOM     12  C   UNL     1      38.454   0.123  17.806  0.00  0.00    +0.000 A 
ATOM     13  C   UNL     1      37.816   1.168  17.002  0.00  0.00    +0.000 A 
BRANCH   5  15
ATOM     14  C   UNL     1      36.985   0.508  13.521  0.00  0.00    +0.000 C 
ATOM     15  O   UNL     1      37.679   0.299  14.746  0.00  0.00    +0.000 OA
ENDBRANCH   5  15
ENDBRANCH   1  12
BRANCH   3  16
ATOM     16  C   UNL     1      40.528  -2.487  15.974  0.00  0.00    +0.000 C 
BRANCH  16  17
ATOM     17  C   UNL     1      40.253  -2.701  14.495  0.00  0.00    +0.000 A 
ATOM     18  C   UNL     1      38.933  -2.771  14.023  0.00  0.00    +0.000 A 
ATOM     19  C   UNL     1      38.661  -3.004  12.667  0.00  0.00    +0.000 A 
ATOM     20  C   UNL     1      39.706  -3.196  11.762  0.00  0.00    +0.000 A 
ATOM     21  C   UNL     1      41.023  -3.105  12.212  0.00  0.00    +0.000 A 
ATOM     22  C   UNL     1      41.294  -2.844  13.563  0.00  0.00    +0.000 A 
BRANCH  20  23
ATOM     23  C   UNL     1      39.443  -3.510  10.395  0.00  0.00    +0.000 C 
ATOM     24  C   UNL     1      39.287  -3.782   9.227  0.00  0.00    +0.000 C 
BRANCH  24  25
ATOM     25  C   UNL     1      39.170  -4.096   7.842  0.00  0.00    +0.000 A 
ATOM     26  C   UNL     1      40.101  -4.911   7.202  0.00  0.00    +0.000 A 
ATOM     27  C   UNL     1      39.931  -5.212   5.853  0.00  0.00    +0.000 A 
ATOM     28  C   UNL     1      38.833  -4.683   5.190  0.00  0.00    +0.000 A 
ATOM     29  N   UNL     1      37.915  -3.885   5.778  0.00  0.00    +0.000 NA
ATOM     30  C   UNL     1      38.105  -3.610   7.091  0.00  0.00    +0.000 A 
ENDBRANCH  24  25
ENDBRANCH  20  23
ENDBRANCH  16  17
ENDBRANCH   3  16
TORSDOF 6
ENDMDL
MODEL 9
REMARK VINA RESULT:    -4.379      9.753     14.206
REMARK INTER + INTRA:          -7.101
REMARK INTER:                  -6.117
REMARK INTRA:                  -0.983
REMARK UNBOUND:                -1.185
REMARK  Name = 
REMARK  7 active torsions:
REMARK  status: ('A' for Active; 'I' for Inactive)
REMARK    1  A    between atoms: C_1  and  O_2
REMARK    2  A    between atoms: O_2  and  C_3
REMARK    3  A    between atoms: C_10  and  C_11
REMARK    4  A    between atoms: N_13  and  C_14
REMARK    5  A    between atoms: C_14  and  C_15
REMARK    6  A    between atoms: C_18  and  C_19
REMARK    7  A    between atoms: C_20  and  C_21
REMARK                            x       y       z     vdW  Elec       q    Type
REMARK                         _______ _______ _______ _____ _____    ______ ____
ROOT
ATOM      1  C   UNL     1      42.257  -6.566  15.520  0.00  0.00    +0.000 C 
ATOM      2  O   UNL     1      41.924  -7.693  15.166  0.00  0.00    +0.000 OA
ATOM      3  N   UNL     1      43.178  -6.361  16.513  0.00  0.00    +0.000 N 
ATOM      4  H   UNL     1      43.420  -5.415  16.759  0.00  0.00    +0.000 HD
ENDROOT
BRANCH   1  12
ATOM      5  C   UNL     1      41.233  -3.539  16.772  0.00  0.00    +0.000 A 
ATOM      6  N   UNL     1      40.834  -2.278  17.003  0.00  0.00    +0.000 NA
ATOM      7  C   UNL     1      40.474  -1.538  15.956  0.00  0.00    +0.000 A 
ATOM      8  N   UNL     1      40.441  -1.917  14.683  0.00  0.00    +0.000 NA
ATOM      9  C   UNL     1      40.847  -3.186  14.496  0.00  0.00    +0.000 A 
ATOM     10  S   UNL     1      40.862  -3.852  12.934  0.00  0.00    +0.000 S 
ATOM     11  C   UNL     1      41.465  -5.336  13.514  0.00  0.00    +0.000 A 
ATOM     12  C   UNL     1      41.689  -5.353  14.887  0.00  0.00    +0.000 A 
ATOM     13  C   UNL     1      41.281  -4.074  15.474  0.00  0.00    +0.000 A 
BRANCH   5  15
ATOM     14  C   UNL     1      40.616  -4.827  18.608  0.00  0.00    +0.000 C 
ATOM     15  O   UNL     1      41.682  -4.262  17.855  0.00  0.00    +0.000 OA
ENDBRANCH   5  15
ENDBRANCH   1  12
BRANCH   3  16
ATOM     16  C   UNL     1      43.852  -7.410  17.245  0.00  0.00    +0.000 C 
BRANCH  16  17
ATOM     17  C   UNL     1      45.355  -7.204  17.316  0.00  0.00    +0.000 A 
ATOM     18  C   UNL     1      45.890  -6.140  18.059  0.00  0.00    +0.000 A 
ATOM     19  C   UNL     1      47.274  -5.914  18.106  0.00  0.00    +0.000 A 
ATOM     20  C   UNL     1      48.146  -6.733  17.389  0.00  0.00    +0.000 A 
ATOM     21  C   UNL     1      47.631  -7.809  16.665  0.00  0.00    +0.000 A 
ATOM     22  C   UNL     1      46.250  -8.052  16.642  0.00  0.00    +0.000 A 
BRANCH  20  23
ATOM     23  C   UNL     1      49.548  -6.468  17.365  0.00  0.00    +0.000 C 
ATOM     24  C   UNL     1      50.726  -6.194  17.389  0.00  0.00    +0.000 C 
BRANCH  24  25
ATOM     25  C   UNL     1      52.098  -5.816  17.452  0.00  0.00    +0.000 A 
ATOM     26  C   UNL     1      52.580  -5.008  18.479  0.00  0.00    +0.000 A 
ATOM     27  C   UNL     1      53.935  -4.685  18.514  0.00  0.00    +0.000 A 
ATOM     28  C   UNL     1      54.760  -5.183  17.517  0.00  0.00    +0.000 A 
ATOM     29  N   UNL     1      54.325  -5.963  16.504  0.00  0.00    +0.000 NA
ATOM     30  C   UNL     1      53.003  -6.262  16.495  0.00  0.00    +0.000 A 
ENDBRANCH  24  25
ENDBRANCH  20  23
ENDBRANCH  16  17
ENDBRANCH   3  16
TORSDOF 6
ENDMDL
