MODEL 1
REMARK VINA RESULT:    -8.216      0.000      0.000
REMARK INTER + INTRA:         -12.773
REMARK INTER:                 -11.578
REMARK INTRA:                  -1.195
REMARK UNBOUND:                -1.195
REMARK  Name = 
REMARK  7 active torsions:
REMARK  status: ('A' for Active; 'I' for Inactive)
REMARK    1  A    between atoms: C_2  and  C_20
REMARK    2  A    between atoms: N_3  and  C_4
REMARK    3  A    between atoms: C_4  and  C_5
REMARK    4  A    between atoms: C_8  and  C_9
REMARK    5  A    between atoms: C_9  and  N_10
REMARK    6  A    between atoms: N_10  and  C_11
REMARK    7  A    between atoms: C_11  and  C_12
REMARK                            x       y       z     vdW  Elec       q    Type
REMARK                         _______ _______ _______ _____ _____    ______ ____
ROOT
ATOM      1  C   UNL     1      46.773   8.258  12.739  0.00  0.00    +0.000 C 
ENDROOT
BRANCH   1   2
ATOM      2  C   UNL     1      45.972   7.082  12.241  0.00  0.00    +0.000 A 
ATOM      3  C   UNL     1      44.775   6.732  12.873  0.00  0.00    +0.000 A 
ATOM      4  C   UNL     1      44.016   5.655  12.410  0.00  0.00    +0.000 A 
ATOM      5  C   UNL     1      44.442   4.896  11.309  0.00  0.00    +0.000 A 
ATOM      6  C   UNL     1      45.674   5.204  10.718  0.00  0.00    +0.000 A 
ATOM      7  C   UNL     1      46.435   6.284  11.183  0.00  0.00    +0.000 A 
BRANCH   5   8
ATOM      8  C   UNL     1      43.562   3.793  10.764  0.00  0.00    +0.000 C 
BRANCH   8   9
ATOM      9  N   UNL     1      43.964   3.461   9.396  0.00  0.00    +0.000 NA
ATOM     10  H   UNL     1      44.591   4.192   9.056  0.00  0.00    +0.000 HD
BRANCH   9  11
ATOM     11  C   UNL     1      44.624   2.163   9.309  0.00  0.00    +0.000 C 
BRANCH  11  12
ATOM     12  C   UNL     1      45.722   2.188   8.290  0.00  0.00    +0.000 A 
ATOM     13  C   UNL     1      46.456   1.068   7.955  0.00  0.00    +0.000 A 
ATOM     14  N   UNL     1      47.451   1.060   7.046  0.00  0.00    +0.000 NA
ATOM     15  C   UNL     1      47.706   2.238   6.456  0.00  0.00    +0.000 A 
ATOM     16  N   UNL     1      47.061   3.391   6.686  0.00  0.00    +0.000 NA
ATOM     17  C   UNL     1      46.078   3.335   7.607  0.00  0.00    +0.000 A 
ENDBRANCH  11  12
ENDBRANCH   9  11
ENDBRANCH   8   9
ENDBRANCH   5   8
ENDBRANCH   1   2
BRANCH   1  20
ATOM     18  O   UNL     1      49.064   6.626  13.297  0.00  0.00    +0.000 OA
ATOM     19  C   UNL     1      48.379   7.081  14.203  0.00  0.00    +0.000 C 
ATOM     20  N   UNL     1      47.325   7.948  14.028  0.00  0.00    +0.000 N 
ATOM     21  H   UNL     1      46.702   8.097  14.807  0.00  0.00    +0.000 HD
BRANCH  19  22
ATOM     22  C   UNL     1      48.431   6.598  15.578  0.00  0.00    +0.000 A 
ATOM     23  C   UNL     1      48.974   7.336  16.613  0.00  0.00    +0.000 A 
ATOM     24  S   UNL     1      49.459   6.325  17.914  0.00  0.00    +0.000 S 
ATOM     25  C   UNL     1      48.809   4.941  17.157  0.00  0.00    +0.000 A 
ATOM     26  N   UNL     1      49.002   3.680  17.631  0.00  0.00    +0.000 NA
ATOM     27  C   UNL     1      48.392   2.761  16.956  0.00  0.00    +0.000 A 
ATOM     28  N   UNL     1      47.563   2.983  15.886  0.00  0.00    +0.000 N 
ATOM     29  C   UNL     1      47.321   4.245  15.377  0.00  0.00    +0.000 A 
ATOM     30  O   UNL     1      46.520   4.441  14.476  0.00  0.00    +0.000 OA
ATOM     31  C   UNL     1      48.099   5.280  16.026  0.00  0.00    +0.000 A 
ATOM     32  H   UNL     1      47.043   2.236  15.457  0.00  0.00    +0.000 HD
ENDBRANCH  19  22
ENDBRANCH   1  20
TORSDOF 7
ENDMDL
MODEL 2
REMARK VINA RESULT:    -7.832      1.952      2.610
REMARK INTER + INTRA:         -12.232
REMARK INTER:                 -11.151
REMARK INTRA:                  -1.082
REMARK UNBOUND:                -1.195
REMARK  Name = 
REMARK  7 active torsions:
REMARK  status: ('A' for Active; 'I' for Inactive)
REMARK    1  A    between atoms: C_2  and  C_20
REMARK    2  A    between atoms: N_3  and  C_4
REMARK    3  A    between atoms: C_4  and  C_5
REMARK    4  A    between atoms: C_8  and  C_9
REMARK    5  A    between atoms: C_9  and  N_10
REMARK    6  A    between atoms: N_10  and  C_11
REMARK    7  A    between atoms: C_11  and  C_12
REMARK                            x       y       z     vdW  Elec       q    Type
REMARK                         _______ _______ _______ _____ _____    ______ ____
ROOT
ATOM      1  C   UNL     1      47.490   7.091  12.982  0.00  0.00    +0.000 C 
ENDROOT
BRANCH   1   2
ATOM      2  C   UNL     1      46.565   6.086  12.345  0.00  0.00    +0.000 A 
ATOM      3  C   UNL     1      46.224   4.916  13.030  0.00  0.00    +0.000 A 
ATOM      4  C   UNL     1      45.355   3.986  12.457  0.00  0.00    +0.000 A 
ATOM      5  C   UNL     1      44.815   4.197  11.179  0.00  0.00    +0.000 A 
ATOM      6  C   UNL     1      45.210   5.336  10.464  0.00  0.00    +0.000 A 
ATOM      7  C   UNL     1      46.082   6.269  11.039  0.00  0.00    +0.000 A 
BRANCH   5   8
ATOM      8  C   UNL     1      43.803   3.226  10.613  0.00  0.00    +0.000 C 
BRANCH   8   9
ATOM      9  N   UNL     1      44.139   2.903   9.226  0.00  0.00    +0.000 NA
ATOM     10  H   UNL     1      44.497   3.746   8.775  0.00  0.00    +0.000 HD
BRANCH   9  11
ATOM     11  C   UNL     1      45.125   1.832   9.127  0.00  0.00    +0.000 C 
BRANCH  11  12
ATOM     12  C   UNL     1      46.040   2.052   7.961  0.00  0.00    +0.000 A 
ATOM     13  C   UNL     1      46.990   1.129   7.572  0.00  0.00    +0.000 A 
ATOM     14  N   UNL     1      47.829   1.300   6.531  0.00  0.00    +0.000 NA
ATOM     15  C   UNL     1      47.693   2.455   5.861  0.00  0.00    +0.000 A 
ATOM     16  N   UNL     1      46.806   3.423   6.133  0.00  0.00    +0.000 NA
ATOM     17  C   UNL     1      45.997   3.195   7.186  0.00  0.00    +0.000 A 
ENDBRANCH  11  12
ENDBRANCH   9  11
ENDBRANCH   8   9
ENDBRANCH   5   8
ENDBRANCH   1   2
BRANCH   1  20
ATOM     18  O   UNL     1      49.863   6.926  14.584  0.00  0.00    +0.000 OA
ATOM     19  C   UNL     1      48.762   6.692  15.063  0.00  0.00    +0.000 C 
ATOM     20  N   UNL     1      47.569   6.840  14.393  0.00  0.00    +0.000 N 
ATOM     21  H   UNL     1      46.744   6.427  14.800  0.00  0.00    +0.000 HD
BRANCH  19  22
ATOM     22  C   UNL     1      48.561   6.005  16.333  0.00  0.00    +0.000 A 
ATOM     23  C   UNL     1      48.111   4.701  16.419  0.00  0.00    +0.000 A 
ATOM     24  S   UNL     1      47.392   4.386  17.947  0.00  0.00    +0.000 S 
ATOM     25  C   UNL     1      47.819   5.933  18.530  0.00  0.00    +0.000 A 
ATOM     26  N   UNL     1      47.381   6.418  19.724  0.00  0.00    +0.000 NA
ATOM     27  C   UNL     1      47.848   7.587  20.023  0.00  0.00    +0.000 A 
ATOM     28  N   UNL     1      48.752   8.294  19.273  0.00  0.00    +0.000 N 
ATOM     29  C   UNL     1      49.239   7.837  18.063  0.00  0.00    +0.000 A 
ATOM     30  O   UNL     1      50.103   8.437  17.441  0.00  0.00    +0.000 OA
ATOM     31  C   UNL     1      48.630   6.595  17.635  0.00  0.00    +0.000 A 
ATOM     32  H   UNL     1      49.149   9.158  19.601  0.00  0.00    +0.000 HD
ENDBRANCH  19  22
ENDBRANCH   1  20
TORSDOF 7
ENDMDL
MODEL 3
REMARK VINA RESULT:    -7.673      1.846      2.370
REMARK INTER + INTRA:         -12.008
REMARK INTER:                 -10.854
REMARK INTRA:                  -1.154
REMARK UNBOUND:                -1.195
REMARK  Name = 
REMARK  7 active torsions:
REMARK  status: ('A' for Active; 'I' for Inactive)
REMARK    1  A    between atoms: C_2  and  C_20
REMARK    2  A    between atoms: N_3  and  C_4
REMARK    3  A    between atoms: C_4  and  C_5
REMARK    4  A    between atoms: C_8  and  C_9
REMARK    5  A    between atoms: C_9  and  N_10
REMARK    6  A    between atoms: N_10  and  C_11
REMARK    7  A    between atoms: C_11  and  C_12
REMARK                            x       y       z     vdW  Elec       q    Type
REMARK                         _______ _______ _______ _____ _____    ______ ____
ROOT
ATOM      1  C   UNL     1      48.526   6.425  13.725  0.00  0.00    +0.000 C 
ENDROOT
BRANCH   1   2
ATOM      2  C   UNL     1      47.235   5.912  13.140  0.00  0.00    +0.000 A 
ATOM      3  C   UNL     1      46.575   4.833  13.737  0.00  0.00    +0.000 A 
ATOM      4  C   UNL     1      45.371   4.360  13.213  0.00  0.00    +0.000 A 
ATOM      5  C   UNL     1      44.802   4.947  12.072  0.00  0.00    +0.000 A 
ATOM      6  C   UNL     1      45.497   5.982  11.434  0.00  0.00    +0.000 A 
ATOM      7  C   UNL     1      46.705   6.457  11.959  0.00  0.00    +0.000 A 
BRANCH   5   8
ATOM      8  C   UNL     1      43.451   4.483  11.574  0.00  0.00    +0.000 C 
BRANCH   8   9
ATOM      9  N   UNL     1      43.558   4.023  10.189  0.00  0.00    +0.000 NA
ATOM     10  H   UNL     1      44.045   4.739   9.647  0.00  0.00    +0.000 HD
BRANCH   9  11
ATOM     11  C   UNL     1      44.264   2.752  10.077  0.00  0.00    +0.000 C 
BRANCH  11  12
ATOM     12  C   UNL     1      45.261   2.790   8.959  0.00  0.00    +0.000 A 
ATOM     13  C   UNL     1      45.605   3.955   8.303  0.00  0.00    +0.000 A 
ATOM     14  N   UNL     1      46.494   4.020   7.293  0.00  0.00    +0.000 NA
ATOM     15  C   UNL     1      47.055   2.853   6.938  0.00  0.00    +0.000 A 
ATOM     16  N   UNL     1      46.813   1.660   7.501  0.00  0.00    +0.000 NA
ATOM     17  C   UNL     1      45.913   1.660   8.504  0.00  0.00    +0.000 A 
ENDBRANCH  11  12
ENDBRANCH   9  11
ENDBRANCH   8   9
ENDBRANCH   5   8
ENDBRANCH   1   2
BRANCH   1  20
ATOM     18  O   UNL     1      50.348   6.344  15.938  0.00  0.00    +0.000 OA
ATOM     19  C   UNL     1      49.197   6.734  16.084  0.00  0.00    +0.000 C 
ATOM     20  N   UNL     1      48.290   6.895  15.062  0.00  0.00    +0.000 N 
ATOM     21  H   UNL     1      47.320   7.017  15.306  0.00  0.00    +0.000 HD
BRANCH  19  22
ATOM     22  C   UNL     1      48.546   6.867  17.381  0.00  0.00    +0.000 A 
ATOM     23  C   UNL     1      48.184   8.088  17.918  0.00  0.00    +0.000 A 
ATOM     24  S   UNL     1      48.037   8.002  19.627  0.00  0.00    +0.000 S 
ATOM     25  C   UNL     1      48.306   6.316  19.622  0.00  0.00    +0.000 A 
ATOM     26  N   UNL     1      48.477   5.593  20.762  0.00  0.00    +0.000 NA
ATOM     27  C   UNL     1      48.619   4.323  20.566  0.00  0.00    +0.000 A 
ATOM     28  N   UNL     1      48.552   3.697  19.347  0.00  0.00    +0.000 N 
ATOM     29  C   UNL     1      48.363   4.385  18.163  0.00  0.00    +0.000 A 
ATOM     30  O   UNL     1      48.225   3.812  17.093  0.00  0.00    +0.000 OA
ATOM     31  C   UNL     1      48.339   5.822  18.337  0.00  0.00    +0.000 A 
ATOM     32  H   UNL     1      48.579   2.695  19.266  0.00  0.00    +0.000 HD
ENDBRANCH  19  22
ENDBRANCH   1  20
TORSDOF 7
ENDMDL
MODEL 4
REMARK VINA RESULT:    -6.924      1.887      3.493
REMARK INTER + INTRA:         -10.952
REMARK INTER:                  -9.966
REMARK INTRA:                  -0.986
REMARK UNBOUND:                -1.195
REMARK  Name = 
REMARK  7 active torsions:
REMARK  status: ('A' for Active; 'I' for Inactive)
REMARK    1  A    between atoms: C_2  and  C_20
REMARK    2  A    between atoms: N_3  and  C_4
REMARK    3  A    between atoms: C_4  and  C_5
REMARK    4  A    between atoms: C_8  and  C_9
REMARK    5  A    between atoms: C_9  and  N_10
REMARK    6  A    between atoms: N_10  and  C_11
REMARK    7  A    between atoms: C_11  and  C_12
REMARK                            x       y       z     vdW  Elec       q    Type
REMARK                         _______ _______ _______ _____ _____    ______ ____
ROOT
ATOM      1  C   UNL     1      47.133   3.938  14.892  0.00  0.00    +0.000 C 
ENDROOT
BRANCH   1   2
ATOM      2  C   UNL     1      46.221   4.255  13.735  0.00  0.00    +0.000 A 
ATOM      3  C   UNL     1      45.908   5.584  13.433  0.00  0.00    +0.000 A 
ATOM      4  C   UNL     1      45.078   5.890  12.353  0.00  0.00    +0.000 A 
ATOM      5  C   UNL     1      44.531   4.874  11.555  0.00  0.00    +0.000 A 
ATOM      6  C   UNL     1      44.789   3.540  11.898  0.00  0.00    +0.000 A 
ATOM      7  C   UNL     1      45.622   3.232  12.981  0.00  0.00    +0.000 A 
BRANCH   5   8
ATOM      8  C   UNL     1      43.711   5.227  10.334  0.00  0.00    +0.000 C 
BRANCH   8   9
ATOM      9  N   UNL     1      44.039   4.324   9.230  0.00  0.00    +0.000 NA
ATOM     10  H   UNL     1      43.330   4.428   8.504  0.00  0.00    +0.000 HD
BRANCH   9  11
ATOM     11  C   UNL     1      45.361   4.585   8.672  0.00  0.00    +0.000 C 
BRANCH  11  12
ATOM     12  C   UNL     1      45.978   3.325   8.145  0.00  0.00    +0.000 A 
ATOM     13  C   UNL     1      46.886   3.315   7.105  0.00  0.00    +0.000 A 
ATOM     14  N   UNL     1      47.454   2.199   6.607  0.00  0.00    +0.000 NA
ATOM     15  C   UNL     1      47.084   1.050   7.192  0.00  0.00    +0.000 A 
ATOM     16  N   UNL     1      46.222   0.927   8.213  0.00  0.00    +0.000 NA
ATOM     17  C   UNL     1      45.685   2.079   8.665  0.00  0.00    +0.000 A 
ENDBRANCH  11  12
ENDBRANCH   9  11
ENDBRANCH   8   9
ENDBRANCH   5   8
ENDBRANCH   1   2
BRANCH   1  20
ATOM     18  O   UNL     1      49.290   4.231  16.759  0.00  0.00    +0.000 OA
ATOM     19  C   UNL     1      48.621   5.196  16.412  0.00  0.00    +0.000 C 
ATOM     20  N   UNL     1      47.635   5.160  15.453  0.00  0.00    +0.000 N 
ATOM     21  H   UNL     1      47.009   5.948  15.391  0.00  0.00    +0.000 HD
BRANCH  19  22
ATOM     22  C   UNL     1      48.610   6.470  17.120  0.00  0.00    +0.000 A 
ATOM     23  C   UNL     1      48.022   6.635  18.360  0.00  0.00    +0.000 A 
ATOM     24  S   UNL     1      47.615   8.280  18.645  0.00  0.00    +0.000 S 
ATOM     25  C   UNL     1      48.356   8.775  17.189  0.00  0.00    +0.000 A 
ATOM     26  N   UNL     1      48.253  10.042  16.703  0.00  0.00    +0.000 NA
ATOM     27  C   UNL     1      48.922  10.246  15.615  0.00  0.00    +0.000 A 
ATOM     28  N   UNL     1      49.729   9.326  14.997  0.00  0.00    +0.000 N 
ATOM     29  C   UNL     1      49.880   8.033  15.460  0.00  0.00    +0.000 A 
ATOM     30  O   UNL     1      50.661   7.245  14.949  0.00  0.00    +0.000 OA
ATOM     31  C   UNL     1      49.035   7.733  16.598  0.00  0.00    +0.000 A 
ATOM     32  H   UNL     1      50.297   9.570  14.203  0.00  0.00    +0.000 HD
ENDBRANCH  19  22
ENDBRANCH   1  20
TORSDOF 7
ENDMDL
MODEL 5
REMARK VINA RESULT:    -6.694      3.271      7.956
REMARK INTER + INTRA:         -10.627
REMARK INTER:                  -9.540
REMARK INTRA:                  -1.087
REMARK UNBOUND:                -1.195
REMARK  Name = 
REMARK  7 active torsions:
REMARK  status: ('A' for Active; 'I' for Inactive)
REMARK    1  A    between atoms: C_2  and  C_20
REMARK    2  A    between atoms: N_3  and  C_4
REMARK    3  A    between atoms: C_4  and  C_5
REMARK    4  A    between atoms: C_8  and  C_9
REMARK    5  A    between atoms: C_9  and  N_10
REMARK    6  A    between atoms: N_10  and  C_11
REMARK    7  A    between atoms: C_11  and  C_12
REMARK                            x       y       z     vdW  Elec       q    Type
REMARK                         _______ _______ _______ _____ _____    ______ ____
ROOT
ATOM      1  C   UNL     1      46.648   8.550  12.709  0.00  0.00    +0.000 C 
ENDROOT
BRANCH   1   2
ATOM      2  C   UNL     1      47.573   8.136  13.824  0.00  0.00    +0.000 A 
ATOM      3  C   UNL     1      48.071   6.830  13.873  0.00  0.00    +0.000 A 
ATOM      4  C   UNL     1      48.942   6.440  14.892  0.00  0.00    +0.000 A 
ATOM      5  C   UNL     1      49.329   7.344  15.893  0.00  0.00    +0.000 A 
ATOM      6  C   UNL     1      48.777   8.632  15.883  0.00  0.00    +0.000 A 
ATOM      7  C   UNL     1      47.903   9.023  14.861  0.00  0.00    +0.000 A 
BRANCH   5   8
ATOM      8  C   UNL     1      50.345   6.932  16.935  0.00  0.00    +0.000 C 
BRANCH   8   9
ATOM      9  N   UNL     1      50.719   5.531  16.744  0.00  0.00    +0.000 NA
ATOM     10  H   UNL     1      51.722   5.486  16.554  0.00  0.00    +0.000 HD
BRANCH   9  11
ATOM     11  C   UNL     1      50.398   4.706  17.903  0.00  0.00    +0.000 C 
BRANCH  11  12
ATOM     12  C   UNL     1      51.120   3.394  17.844  0.00  0.00    +0.000 A 
ATOM     13  C   UNL     1      52.399   3.222  18.334  0.00  0.00    +0.000 A 
ATOM     14  N   UNL     1      53.075   2.057  18.292  0.00  0.00    +0.000 NA
ATOM     15  C   UNL     1      52.422   1.028  17.730  0.00  0.00    +0.000 A 
ATOM     16  N   UNL     1      51.178   1.064  17.229  0.00  0.00    +0.000 NA
ATOM     17  C   UNL     1      50.556   2.258  17.298  0.00  0.00    +0.000 A 
ENDBRANCH  11  12
ENDBRANCH   9  11
ENDBRANCH   8   9
ENDBRANCH   5   8
ENDBRANCH   1   2
BRANCH   1  20
ATOM     18  O   UNL     1      44.283   7.787  11.276  0.00  0.00    +0.000 OA
ATOM     19  C   UNL     1      45.307   7.122  11.201  0.00  0.00    +0.000 C 
ATOM     20  N   UNL     1      46.509   7.467  11.776  0.00  0.00    +0.000 N 
ATOM     21  H   UNL     1      47.225   6.759  11.834  0.00  0.00    +0.000 HD
BRANCH  19  22
ATOM     22  C   UNL     1      45.351   5.758  10.688  0.00  0.00    +0.000 A 
ATOM     23  C   UNL     1      45.715   5.455   9.390  0.00  0.00    +0.000 A 
ATOM     24  S   UNL     1      45.091   3.931   8.904  0.00  0.00    +0.000 S 
ATOM     25  C   UNL     1      44.473   3.622  10.465  0.00  0.00    +0.000 A 
ATOM     26  N   UNL     1      43.669   2.560  10.743  0.00  0.00    +0.000 NA
ATOM     27  C   UNL     1      43.339   2.459  11.990  0.00  0.00    +0.000 A 
ATOM     28  N   UNL     1      43.778   3.283  12.994  0.00  0.00    +0.000 N 
ATOM     29  C   UNL     1      44.608   4.364  12.765  0.00  0.00    +0.000 A 
ATOM     30  O   UNL     1      45.057   5.044  13.675  0.00  0.00    +0.000 OA
ATOM     31  C   UNL     1      44.883   4.585  11.360  0.00  0.00    +0.000 A 
ATOM     32  H   UNL     1      43.561   3.101  13.960  0.00  0.00    +0.000 HD
ENDBRANCH  19  22
ENDBRANCH   1  20
TORSDOF 7
ENDMDL
MODEL 6
REMARK VINA RESULT:    -6.641      2.169      2.635
REMARK INTER + INTRA:         -10.553
REMARK INTER:                  -9.578
REMARK INTRA:                  -0.975
REMARK UNBOUND:                -1.195
REMARK  Name = 
REMARK  7 active torsions:
REMARK  status: ('A' for Active; 'I' for Inactive)
REMARK    1  A    between atoms: C_2  and  C_20
REMARK    2  A    between atoms: N_3  and  C_4
REMARK    3  A    between atoms: C_4  and  C_5
REMARK    4  A    between atoms: C_8  and  C_9
REMARK    5  A    between atoms: C_9  and  N_10
REMARK    6  A    between atoms: N_10  and  C_11
REMARK    7  A    between atoms: C_11  and  C_12
REMARK                            x       y       z     vdW  Elec       q    Type
REMARK                         _______ _______ _______ _____ _____    ______ ____
ROOT
ATOM      1  C   UNL     1      48.436   7.104  13.684  0.00  0.00    +0.000 C 
ENDROOT
BRANCH   1   2
ATOM      2  C   UNL     1      47.154   6.458  13.224  0.00  0.00    +0.000 A 
ATOM      3  C   UNL     1      46.094   7.250  12.772  0.00  0.00    +0.000 A 
ATOM      4  C   UNL     1      44.908   6.661  12.328  0.00  0.00    +0.000 A 
ATOM      5  C   UNL     1      44.750   5.267  12.335  0.00  0.00    +0.000 A 
ATOM      6  C   UNL     1      45.786   4.477  12.851  0.00  0.00    +0.000 A 
ATOM      7  C   UNL     1      46.975   5.067  13.296  0.00  0.00    +0.000 A 
BRANCH   5   8
ATOM      8  C   UNL     1      43.496   4.643  11.764  0.00  0.00    +0.000 C 
BRANCH   8   9
ATOM      9  N   UNL     1      43.848   3.610  10.789  0.00  0.00    +0.000 NA
ATOM     10  H   UNL     1      43.062   2.966  10.701  0.00  0.00    +0.000 HD
BRANCH   9  11
ATOM     11  C   UNL     1      44.181   4.167   9.483  0.00  0.00    +0.000 C 
BRANCH  11  12
ATOM     12  C   UNL     1      45.150   3.286   8.756  0.00  0.00    +0.000 A 
ATOM     13  C   UNL     1      45.233   1.925   8.975  0.00  0.00    +0.000 A 
ATOM     14  N   UNL     1      46.096   1.108   8.340  0.00  0.00    +0.000 NA
ATOM     15  C   UNL     1      46.903   1.699   7.447  0.00  0.00    +0.000 A 
ATOM     16  N   UNL     1      46.914   3.004   7.137  0.00  0.00    +0.000 NA
ATOM     17  C   UNL     1      46.030   3.770   7.808  0.00  0.00    +0.000 A 
ENDBRANCH  11  12
ENDBRANCH   9  11
ENDBRANCH   8   9
ENDBRANCH   5   8
ENDBRANCH   1   2
BRANCH   1  20
ATOM     18  O   UNL     1      49.260   8.728  15.900  0.00  0.00    +0.000 OA
ATOM     19  C   UNL     1      49.214   7.509  15.995  0.00  0.00    +0.000 C 
ATOM     20  N   UNL     1      48.741   6.665  15.017  0.00  0.00    +0.000 N 
ATOM     21  H   UNL     1      48.938   5.680  15.107  0.00  0.00    +0.000 HD
BRANCH  19  22
ATOM     22  C   UNL     1      49.863   6.755  17.061  0.00  0.00    +0.000 A 
ATOM     23  C   UNL     1      51.047   6.066  16.880  0.00  0.00    +0.000 A 
ATOM     24  S   UNL     1      51.230   4.818  18.045  0.00  0.00    +0.000 S 
ATOM     25  C   UNL     1      49.813   5.299  18.866  0.00  0.00    +0.000 A 
ATOM     26  N   UNL     1      49.265   4.574  19.879  0.00  0.00    +0.000 NA
ATOM     27  C   UNL     1      48.222   5.119  20.415  0.00  0.00    +0.000 A 
ATOM     28  N   UNL     1      47.705   6.343  20.075  0.00  0.00    +0.000 N 
ATOM     29  C   UNL     1      48.235   7.124  19.066  0.00  0.00    +0.000 A 
ATOM     30  O   UNL     1      47.817   8.247  18.824  0.00  0.00    +0.000 OA
ATOM     31  C   UNL     1      49.319   6.479  18.355  0.00  0.00    +0.000 A 
ATOM     32  H   UNL     1      46.945   6.757  20.590  0.00  0.00    +0.000 HD
ENDBRANCH  19  22
ENDBRANCH   1  20
TORSDOF 7
ENDMDL
MODEL 7
REMARK VINA RESULT:    -6.567      3.921      8.827
REMARK INTER + INTRA:         -10.449
REMARK INTER:                  -9.360
REMARK INTRA:                  -1.089
REMARK UNBOUND:                -1.195
REMARK  Name = 
REMARK  7 active torsions:
REMARK  status: ('A' for Active; 'I' for Inactive)
REMARK    1  A    between atoms: C_2  and  C_20
REMARK    2  A    between atoms: N_3  and  C_4
REMARK    3  A    between atoms: C_4  and  C_5
REMARK    4  A    between atoms: C_8  and  C_9
REMARK    5  A    between atoms: C_9  and  N_10
REMARK    6  A    between atoms: N_10  and  C_11
REMARK    7  A    between atoms: C_11  and  C_12
REMARK                            x       y       z     vdW  Elec       q    Type
REMARK                         _______ _______ _______ _____ _____    ______ ____
ROOT
ATOM      1  C   UNL     1      47.281   4.024  17.006  0.00  0.00    +0.000 C 
ENDROOT
BRANCH   1   2
ATOM      2  C   UNL     1      48.736   4.400  17.115  0.00  0.00    +0.000 A 
ATOM      3  C   UNL     1      49.670   3.463  17.567  0.00  0.00    +0.000 A 
ATOM      4  C   UNL     1      51.023   3.795  17.656  0.00  0.00    +0.000 A 
ATOM      5  C   UNL     1      51.474   5.076  17.305  0.00  0.00    +0.000 A 
ATOM      6  C   UNL     1      50.531   6.036  16.917  0.00  0.00    +0.000 A 
ATOM      7  C   UNL     1      49.173   5.703  16.827  0.00  0.00    +0.000 A 
BRANCH   5   8
ATOM      8  C   UNL     1      52.954   5.389  17.318  0.00  0.00    +0.000 C 
BRANCH   8   9
ATOM      9  N   UNL     1      53.655   4.461  18.205  0.00  0.00    +0.000 NA
ATOM     10  H   UNL     1      52.987   3.765  18.540  0.00  0.00    +0.000 HD
BRANCH   9  11
ATOM     11  C   UNL     1      54.773   3.796  17.545  0.00  0.00    +0.000 C 
BRANCH  11  12
ATOM     12  C   UNL     1      54.603   2.308  17.572  0.00  0.00    +0.000 A 
ATOM     13  C   UNL     1      53.853   1.658  18.532  0.00  0.00    +0.000 A 
ATOM     14  N   UNL     1      53.685   0.322  18.585  0.00  0.00    +0.000 NA
ATOM     15  C   UNL     1      54.304  -0.378  17.621  0.00  0.00    +0.000 A 
ATOM     16  N   UNL     1      55.050   0.134  16.631  0.00  0.00    +0.000 NA
ATOM     17  C   UNL     1      55.183   1.475  16.634  0.00  0.00    +0.000 A 
ENDBRANCH  11  12
ENDBRANCH   9  11
ENDBRANCH   8   9
ENDBRANCH   5   8
ENDBRANCH   1   2
BRANCH   1  20
ATOM     18  O   UNL     1      47.482   2.905  14.373  0.00  0.00    +0.000 OA
ATOM     19  C   UNL     1      46.961   3.997  14.555  0.00  0.00    +0.000 C 
ATOM     20  N   UNL     1      46.738   4.562  15.790  0.00  0.00    +0.000 N 
ATOM     21  H   UNL     1      46.499   5.541  15.825  0.00  0.00    +0.000 HD
BRANCH  19  22
ATOM     22  C   UNL     1      46.707   4.961  13.491  0.00  0.00    +0.000 A 
ATOM     23  C   UNL     1      47.524   6.051  13.255  0.00  0.00    +0.000 A 
ATOM     24  S   UNL     1      46.683   7.292  12.417  0.00  0.00    +0.000 S 
ATOM     25  C   UNL     1      45.295   6.314  12.244  0.00  0.00    +0.000 A 
ATOM     26  N   UNL     1      44.114   6.788  11.760  0.00  0.00    +0.000 NA
ATOM     27  C   UNL     1      43.189   5.891  11.654  0.00  0.00    +0.000 A 
ATOM     28  N   UNL     1      43.343   4.557  11.931  0.00  0.00    +0.000 N 
ATOM     29  C   UNL     1      44.526   4.024  12.409  0.00  0.00    +0.000 A 
ATOM     30  O   UNL     1      44.678   2.824  12.577  0.00  0.00    +0.000 OA
ATOM     31  C   UNL     1      45.538   5.027  12.669  0.00  0.00    +0.000 A 
ATOM     32  H   UNL     1      42.613   3.890  11.743  0.00  0.00    +0.000 HD
ENDBRANCH  19  22
ENDBRANCH   1  20
TORSDOF 7
ENDMDL
MODEL 8
REMARK VINA RESULT:    -6.551      4.764      6.326
REMARK INTER + INTRA:         -10.426
REMARK INTER:                  -9.346
REMARK INTRA:                  -1.080
REMARK UNBOUND:                -1.195
REMARK  Name = 
REMARK  7 active torsions:
REMARK  status: ('A' for Active; 'I' for Inactive)
REMARK    1  A    between atoms: C_2  and  C_20
REMARK    2  A    between atoms: N_3  and  C_4
REMARK    3  A    between atoms: C_4  and  C_5
REMARK    4  A    between atoms: C_8  and  C_9
REMARK    5  A    between atoms: C_9  and  N_10
REMARK    6  A    between atoms: N_10  and  C_11
REMARK    7  A    between atoms: C_11  and  C_12
REMARK                            x       y       z     vdW  Elec       q    Type
REMARK                         _______ _______ _______ _____ _____    ______ ____
ROOT
ATOM      1  C   UNL     1      50.336   8.125  12.530  0.00  0.00    +0.000 C 
ENDROOT
BRANCH   1   2
ATOM      2  C   UNL     1      49.030   7.373  12.509  0.00  0.00    +0.000 A 
ATOM      3  C   UNL     1      48.142   7.541  11.442  0.00  0.00    +0.000 A 
ATOM      4  C   UNL     1      46.937   6.837  11.404  0.00  0.00    +0.000 A 
ATOM      5  C   UNL     1      46.586   5.955  12.437  0.00  0.00    +0.000 A 
ATOM      6  C   UNL     1      47.443   5.837  13.539  0.00  0.00    +0.000 A 
ATOM      7  C   UNL     1      48.652   6.543  13.578  0.00  0.00    +0.000 A 
BRANCH   5   8
ATOM      8  C   UNL     1      45.321   5.131  12.334  0.00  0.00    +0.000 C 
BRANCH   8   9
ATOM      9  N   UNL     1      44.528   5.573  11.187  0.00  0.00    +0.000 NA
ATOM     10  H   UNL     1      45.146   6.048  10.528  0.00  0.00    +0.000 HD
BRANCH   9  11
ATOM     11  C   UNL     1      43.850   4.467  10.520  0.00  0.00    +0.000 C 
BRANCH  11  12
ATOM     12  C   UNL     1      44.749   3.818   9.512  0.00  0.00    +0.000 A 
ATOM     13  C   UNL     1      44.948   2.452   9.457  0.00  0.00    +0.000 A 
ATOM     14  N   UNL     1      45.752   1.841   8.565  0.00  0.00    +0.000 NA
ATOM     15  C   UNL     1      46.375   2.651   7.696  0.00  0.00    +0.000 A 
ATOM     16  N   UNL     1      46.258   3.986   7.640  0.00  0.00    +0.000 NA
ATOM     17  C   UNL     1      45.442   4.539   8.559  0.00  0.00    +0.000 A 
ENDBRANCH  11  12
ENDBRANCH   9  11
ENDBRANCH   8   9
ENDBRANCH   5   8
ENDBRANCH   1   2
BRANCH   1  20
ATOM     18  O   UNL     1      53.187   8.110  12.215  0.00  0.00    +0.000 OA
ATOM     19  C   UNL     1      52.446   7.934  11.257  0.00  0.00    +0.000 C 
ATOM     20  N   UNL     1      51.076   7.831  11.335  0.00  0.00    +0.000 N 
ATOM     21  H   UNL     1      50.548   7.896  10.479  0.00  0.00    +0.000 HD
BRANCH  19  22
ATOM     22  C   UNL     1      52.879   8.036   9.869  0.00  0.00    +0.000 A 
ATOM     23  C   UNL     1      52.765   9.199   9.130  0.00  0.00    +0.000 A 
ATOM     24  S   UNL     1      52.753   8.869   7.444  0.00  0.00    +0.000 S 
ATOM     25  C   UNL     1      53.050   7.209   7.708  0.00  0.00    +0.000 A 
ATOM     26  N   UNL     1      53.006   6.285   6.710  0.00  0.00    +0.000 NA
ATOM     27  C   UNL     1      53.308   5.085   7.088  0.00  0.00    +0.000 A 
ATOM     28  N   UNL     1      53.702   4.729   8.352  0.00  0.00    +0.000 N 
ATOM     29  C   UNL     1      53.779   5.633   9.395  0.00  0.00    +0.000 A 
ATOM     30  O   UNL     1      54.207   5.323  10.496  0.00  0.00    +0.000 OA
ATOM     31  C   UNL     1      53.314   6.957   9.035  0.00  0.00    +0.000 A 
ATOM     32  H   UNL     1      54.012   3.795   8.566  0.00  0.00    +0.000 HD
ENDBRANCH  19  22
ENDBRANCH   1  20
TORSDOF 7
ENDMDL
MODEL 9
REMARK VINA RESULT:    -6.345      3.609      5.071
REMARK INTER + INTRA:         -10.137
REMARK INTER:                  -9.289
REMARK INTRA:                  -0.848
REMARK UNBOUND:                -1.195
REMARK  Name = 
REMARK  7 active torsions:
REMARK  status: ('A' for Active; 'I' for Inactive)
REMARK    1  A    between atoms: C_2  and  C_20
REMARK    2  A    between atoms: N_3  and  C_4
REMARK    3  A    between atoms: C_4  and  C_5
REMARK    4  A    between atoms: C_8  and  C_9
REMARK    5  A    between atoms: C_9  and  N_10
REMARK    6  A    between atoms: N_10  and  C_11
REMARK    7  A    between atoms: C_11  and  C_12
REMARK                            x       y       z     vdW  Elec       q    Type
REMARK                         _______ _______ _______ _____ _____    ______ ____
ROOT
ATOM      1  C   UNL     1      48.530   6.563  14.259  0.00  0.00    +0.000 C 
ENDROOT
BRANCH   1   2
ATOM      2  C   UNL     1      47.420   5.901  13.483  0.00  0.00    +0.000 A 
ATOM      3  C   UNL     1      47.018   6.425  12.250  0.00  0.00    +0.000 A 
ATOM      4  C   UNL     1      46.003   5.810  11.515  0.00  0.00    +0.000 A 
ATOM      5  C   UNL     1      45.357   4.662  11.999  0.00  0.00    +0.000 A 
ATOM      6  C   UNL     1      45.713   4.176  13.264  0.00  0.00    +0.000 A 
ATOM      7  C   UNL     1      46.732   4.792  14.002  0.00  0.00    +0.000 A 
BRANCH   5   8
ATOM      8  C   UNL     1      44.326   3.956  11.147  0.00  0.00    +0.000 C 
BRANCH   8   9
ATOM      9  N   UNL     1      44.924   2.786  10.503  0.00  0.00    +0.000 NA
ATOM     10  H   UNL     1      44.644   1.952  11.021  0.00  0.00    +0.000 HD
BRANCH   9  11
ATOM     11  C   UNL     1      44.527   2.657   9.105  0.00  0.00    +0.000 C 
BRANCH  11  12
ATOM     12  C   UNL     1      45.719   2.408   8.231  0.00  0.00    +0.000 A 
ATOM     13  C   UNL     1      46.265   1.152   8.052  0.00  0.00    +0.000 A 
ATOM     14  N   UNL     1      47.337   0.898   7.276  0.00  0.00    +0.000 NA
ATOM     15  C   UNL     1      47.871   1.963   6.659  0.00  0.00    +0.000 A 
ATOM     16  N   UNL     1      47.429   3.226   6.743  0.00  0.00    +0.000 NA
ATOM     17  C   UNL     1      46.356   3.417   7.536  0.00  0.00    +0.000 A 
ENDBRANCH  11  12
ENDBRANCH   9  11
ENDBRANCH   8   9
ENDBRANCH   5   8
ENDBRANCH   1   2
BRANCH   1  20
ATOM     18  O   UNL     1      50.828   8.141  14.929  0.00  0.00    +0.000 OA
ATOM     19  C   UNL     1      50.352   8.169  13.803  0.00  0.00    +0.000 C 
ATOM     20  N   UNL     1      49.315   7.375  13.371  0.00  0.00    +0.000 N 
ATOM     21  H   UNL     1      48.863   7.618  12.503  0.00  0.00    +0.000 HD
BRANCH  19  22
ATOM     22  C   UNL     1      50.658   9.201  12.820  0.00  0.00    +0.000 A 
ATOM     23  C   UNL     1      49.783  10.225  12.510  0.00  0.00    +0.000 A 
ATOM     24  S   UNL     1      50.108  10.877  10.954  0.00  0.00    +0.000 S 
ATOM     25  C   UNL     1      51.495   9.900  10.772  0.00  0.00    +0.000 A 
ATOM     26  N   UNL     1      52.189   9.814   9.604  0.00  0.00    +0.000 NA
ATOM     27  C   UNL     1      53.241   9.063   9.668  0.00  0.00    +0.000 A 
ATOM     28  N   UNL     1      53.698   8.435  10.798  0.00  0.00    +0.000 N 
ATOM     29  C   UNL     1      53.039   8.505  12.011  0.00  0.00    +0.000 A 
ATOM     30  O   UNL     1      53.495   8.008  13.029  0.00  0.00    +0.000 OA
ATOM     31  C   UNL     1      51.784   9.224  11.937  0.00  0.00    +0.000 A 
ATOM     32  H   UNL     1      54.572   7.938  10.809  0.00  0.00    +0.000 HD
ENDBRANCH  19  22
ENDBRANCH   1  20
TORSDOF 7
ENDMDL
