MODEL 1
REMARK VINA RESULT:    -8.570      0.000      0.000
REMARK INTER + INTRA:         -12.916
REMARK INTER:                 -11.576
REMARK INTRA:                  -1.340
REMARK UNBOUND:                -1.340
REMARK  Name = 
REMARK  7 active torsions:
REMARK  status: ('A' for Active; 'I' for Inactive)
REMARK    1  A    between atoms: C_1  and  O_2
REMARK    2  A    between atoms: O_2  and  C_3
REMARK    3  A    between atoms: C_5  and  C_6
REMARK    4  A    between atoms: C_11  and  O_12
REMARK    5  A    between atoms: O_12  and  C_13
REMARK    6  A    between atoms: C_13  and  C_14
REMARK    7  A    between atoms: C_18  and  C_19
REMARK                            x       y       z     vdW  Elec       q    Type
REMARK                         _______ _______ _______ _____ _____    ______ ____
ROOT
ATOM      1  O   UNL     1      43.966   6.434  12.663  0.00  0.00    +0.000 OA
ENDROOT
BRANCH   1   7
ATOM      2  C   UNL     1      46.274   5.661  13.254  0.00  0.00    +0.000 A 
ATOM      3  C   UNL     1      47.637   5.990  13.224  0.00  0.00    +0.000 A 
ATOM      4  C   UNL     1      48.095   7.193  12.661  0.00  0.00    +0.000 A 
ATOM      5  C   UNL     1      47.162   8.079  12.117  0.00  0.00    +0.000 A 
ATOM      6  C   UNL     1      45.797   7.764  12.151  0.00  0.00    +0.000 A 
ATOM      7  C   UNL     1      45.337   6.566  12.716  0.00  0.00    +0.000 A 
BRANCH   4   8
ATOM      8  C   UNL     1      49.569   7.431  12.671  0.00  0.00    +0.000 C 
ATOM      9  N   UNL     1      50.236   7.387  13.864  0.00  0.00    +0.000 N 
ATOM     10  O   UNL     1      50.186   7.654  11.636  0.00  0.00    +0.000 OA
ATOM     11  H   UNL     1      49.812   7.234  14.763  0.00  0.00    +0.000 HD
ATOM     12  H   UNL     1      51.229   7.562  13.830  0.00  0.00    +0.000 HD
ENDBRANCH   4   8
BRANCH   2  14
ATOM     13  C   UNL     1      46.492   3.277  13.305  0.00  0.00    +0.000 C 
ATOM     14  O   UNL     1      45.827   4.460  13.730  0.00  0.00    +0.000 OA
ENDBRANCH   2  14
ENDBRANCH   1   7
BRANCH   1  15
ATOM     15  C   UNL     1      43.382   6.208  11.381  0.00  0.00    +0.000 C 
BRANCH  15  16
ATOM     16  C   UNL     1      43.575   4.783  10.937  0.00  0.00    +0.000 A 
ATOM     17  C   UNL     1      43.051   3.727  11.671  0.00  0.00    +0.000 A 
ATOM     18  N   UNL     1      43.284   2.428  11.390  0.00  0.00    +0.000 NA
ATOM     19  C   UNL     1      44.085   2.171  10.326  0.00  0.00    +0.000 A 
ATOM     20  C   UNL     1      44.678   3.137   9.509  0.00  0.00    +0.000 A 
ATOM     21  C   UNL     1      44.389   4.469   9.843  0.00  0.00    +0.000 A 
BRANCH  20  22
ATOM     22  C   UNL     1      45.581   2.790   8.390  0.00  0.00    +0.000 A 
ATOM     23  C   UNL     1      45.899   3.730   7.389  0.00  0.00    +0.000 A 
ATOM     24  C   UNL     1      46.784   3.421   6.353  0.00  0.00    +0.000 A 
ATOM     25  C   UNL     1      47.356   2.159   6.296  0.00  0.00    +0.000 A 
ATOM     26  F   UNL     1      48.208   1.863   5.305  0.00  0.00    +0.000 F 
ATOM     27  C   UNL     1      47.059   1.202   7.254  0.00  0.00    +0.000 A 
ATOM     28  C   UNL     1      46.181   1.517   8.296  0.00  0.00    +0.000 A 
ENDBRANCH  20  22
ENDBRANCH  15  16
ENDBRANCH   1  15
TORSDOF 6
ENDMDL
MODEL 2
REMARK VINA RESULT:    -8.063      1.050      2.047
REMARK INTER + INTRA:         -12.231
REMARK INTER:                 -11.220
REMARK INTRA:                  -1.011
REMARK UNBOUND:                -1.340
REMARK  Name = 
REMARK  7 active torsions:
REMARK  status: ('A' for Active; 'I' for Inactive)
REMARK    1  A    between atoms: C_1  and  O_2
REMARK    2  A    between atoms: O_2  and  C_3
REMARK    3  A    between atoms: C_5  and  C_6
REMARK    4  A    between atoms: C_11  and  O_12
REMARK    5  A    between atoms: O_12  and  C_13
REMARK    6  A    between atoms: C_13  and  C_14
REMARK    7  A    between atoms: C_18  and  C_19
REMARK                            x       y       z     vdW  Elec       q    Type
REMARK                         _______ _______ _______ _____ _____    ______ ____
ROOT
ATOM      1  O   UNL     1      44.396   6.444  12.720  0.00  0.00    +0.000 OA
ENDROOT
BRANCH   1   7
ATOM      2  C   UNL     1      46.076   8.301  12.695  0.00  0.00    +0.000 A 
ATOM      3  C   UNL     1      47.444   8.611  12.681  0.00  0.00    +0.000 A 
ATOM      4  C   UNL     1      48.429   7.610  12.698  0.00  0.00    +0.000 A 
ATOM      5  C   UNL     1      48.027   6.272  12.733  0.00  0.00    +0.000 A 
ATOM      6  C   UNL     1      46.664   5.952  12.738  0.00  0.00    +0.000 A 
ATOM      7  C   UNL     1      45.678   6.950  12.716  0.00  0.00    +0.000 A 
BRANCH   4   8
ATOM      8  C   UNL     1      49.854   8.057  12.696  0.00  0.00    +0.000 C 
ATOM      9  N   UNL     1      50.734   7.449  11.844  0.00  0.00    +0.000 N 
ATOM     10  O   UNL     1      50.240   8.958  13.431  0.00  0.00    +0.000 OA
ATOM     11  H   UNL     1      50.514   6.689  11.224  0.00  0.00    +0.000 HD
ATOM     12  H   UNL     1      51.689   7.773  11.880  0.00  0.00    +0.000 HD
ENDBRANCH   4   8
BRANCH   2  14
ATOM     13  C   UNL     1      44.717   9.905  11.547  0.00  0.00    +0.000 C 
ATOM     14  O   UNL     1      45.112   9.269  12.756  0.00  0.00    +0.000 OA
ENDBRANCH   2  14
ENDBRANCH   1   7
BRANCH   1  15
ATOM     15  C   UNL     1      43.739   6.322  11.459  0.00  0.00    +0.000 C 
BRANCH  15  16
ATOM     16  C   UNL     1      43.796   4.907  10.948  0.00  0.00    +0.000 A 
ATOM     17  C   UNL     1      43.154   3.876  11.622  0.00  0.00    +0.000 A 
ATOM     18  N   UNL     1      43.260   2.576  11.280  0.00  0.00    +0.000 NA
ATOM     19  C   UNL     1      44.052   2.289  10.217  0.00  0.00    +0.000 A 
ATOM     20  C   UNL     1      44.757   3.228   9.457  0.00  0.00    +0.000 A 
ATOM     21  C   UNL     1      44.597   4.565   9.852  0.00  0.00    +0.000 A 
BRANCH  20  22
ATOM     22  C   UNL     1      45.641   2.845   8.336  0.00  0.00    +0.000 A 
ATOM     23  C   UNL     1      45.977   3.764   7.322  0.00  0.00    +0.000 A 
ATOM     24  C   UNL     1      46.846   3.421   6.283  0.00  0.00    +0.000 A 
ATOM     25  C   UNL     1      47.384   2.144   6.237  0.00  0.00    +0.000 A 
ATOM     26  F   UNL     1      48.221   1.814   5.244  0.00  0.00    +0.000 F 
ATOM     27  C   UNL     1      47.068   1.205   7.208  0.00  0.00    +0.000 A 
ATOM     28  C   UNL     1      46.207   1.555   8.252  0.00  0.00    +0.000 A 
ENDBRANCH  20  22
ENDBRANCH  15  16
ENDBRANCH   1  15
TORSDOF 6
ENDMDL
MODEL 3
REMARK VINA RESULT:    -7.462      1.374      1.825
REMARK INTER + INTRA:         -11.419
REMARK INTER:                 -10.629
REMARK INTRA:                  -0.790
REMARK UNBOUND:                -1.340
REMARK  Name = 
REMARK  7 active torsions:
REMARK  status: ('A' for Active; 'I' for Inactive)
REMARK    1  A    between atoms: C_1  and  O_2
REMARK    2  A    between atoms: O_2  and  C_3
REMARK    3  A    between atoms: C_5  and  C_6
REMARK    4  A    between atoms: C_11  and  O_12
REMARK    5  A    between atoms: O_12  and  C_13
REMARK    6  A    between atoms: C_13  and  C_14
REMARK    7  A    between atoms: C_18  and  C_19
REMARK                            x       y       z     vdW  Elec       q    Type
REMARK                         _______ _______ _______ _____ _____    ______ ____
ROOT
ATOM      1  O   UNL     1      46.127   5.297  13.528  0.00  0.00    +0.000 OA
ENDROOT
BRANCH   1   7
ATOM      2  C   UNL     1      48.285   6.266  14.348  0.00  0.00    +0.000 A 
ATOM      3  C   UNL     1      49.350   7.124  14.035  0.00  0.00    +0.000 A 
ATOM      4  C   UNL     1      49.420   7.796  12.804  0.00  0.00    +0.000 A 
ATOM      5  C   UNL     1      48.401   7.597  11.870  0.00  0.00    +0.000 A 
ATOM      6  C   UNL     1      47.329   6.749  12.175  0.00  0.00    +0.000 A 
ATOM      7  C   UNL     1      47.253   6.080  13.407  0.00  0.00    +0.000 A 
BRANCH   4   8
ATOM      8  C   UNL     1      50.607   8.674  12.575  0.00  0.00    +0.000 C 
ATOM      9  N   UNL     1      51.849   8.104  12.528  0.00  0.00    +0.000 N 
ATOM     10  O   UNL     1      50.485   9.883  12.420  0.00  0.00    +0.000 OA
ATOM     11  H   UNL     1      52.048   7.128  12.666  0.00  0.00    +0.000 HD
ATOM     12  H   UNL     1      52.626   8.731  12.381  0.00  0.00    +0.000 HD
ENDBRANCH   4   8
BRANCH   2  14
ATOM     13  C   UNL     1      48.882   6.095  16.661  0.00  0.00    +0.000 C 
ATOM     14  O   UNL     1      48.248   5.549  15.512  0.00  0.00    +0.000 OA
ENDBRANCH   2  14
ENDBRANCH   1   7
BRANCH   1  15
ATOM     15  C   UNL     1      44.982   5.678  12.768  0.00  0.00    +0.000 C 
BRANCH  15  16
ATOM     16  C   UNL     1      44.544   4.572  11.846  0.00  0.00    +0.000 A 
ATOM     17  C   UNL     1      43.515   3.710  12.201  0.00  0.00    +0.000 A 
ATOM     18  N   UNL     1      43.152   2.633  11.473  0.00  0.00    +0.000 NA
ATOM     19  C   UNL     1      43.857   2.403  10.337  0.00  0.00    +0.000 A 
ATOM     20  C   UNL     1      44.915   3.187   9.868  0.00  0.00    +0.000 A 
ATOM     21  C   UNL     1      45.237   4.299  10.661  0.00  0.00    +0.000 A 
BRANCH  20  22
ATOM     22  C   UNL     1      45.674   2.854   8.644  0.00  0.00    +0.000 A 
ATOM     23  C   UNL     1      46.003   3.843   7.696  0.00  0.00    +0.000 A 
ATOM     24  C   UNL     1      46.756   3.542   6.558  0.00  0.00    +0.000 A 
ATOM     25  C   UNL     1      47.181   2.240   6.344  0.00  0.00    +0.000 A 
ATOM     26  F   UNL     1      47.905   1.950   5.256  0.00  0.00    +0.000 F 
ATOM     27  C   UNL     1      46.866   1.235   7.246  0.00  0.00    +0.000 A 
ATOM     28  C   UNL     1      46.122   1.541   8.390  0.00  0.00    +0.000 A 
ENDBRANCH  20  22
ENDBRANCH  15  16
ENDBRANCH   1  15
TORSDOF 6
ENDMDL
MODEL 4
REMARK VINA RESULT:    -7.381      2.432      3.240
REMARK INTER + INTRA:         -11.310
REMARK INTER:                 -10.507
REMARK INTRA:                  -0.803
REMARK UNBOUND:                -1.340
REMARK  Name = 
REMARK  7 active torsions:
REMARK  status: ('A' for Active; 'I' for Inactive)
REMARK    1  A    between atoms: C_1  and  O_2
REMARK    2  A    between atoms: O_2  and  C_3
REMARK    3  A    between atoms: C_5  and  C_6
REMARK    4  A    between atoms: C_11  and  O_12
REMARK    5  A    between atoms: O_12  and  C_13
REMARK    6  A    between atoms: C_13  and  C_14
REMARK    7  A    between atoms: C_18  and  C_19
REMARK                            x       y       z     vdW  Elec       q    Type
REMARK                         _______ _______ _______ _____ _____    ______ ____
ROOT
ATOM      1  O   UNL     1      46.517   5.990  12.704  0.00  0.00    +0.000 OA
ENDROOT
BRANCH   1   7
ATOM      2  C   UNL     1      48.138   6.535  14.534  0.00  0.00    +0.000 A 
ATOM      3  C   UNL     1      48.659   6.118  15.768  0.00  0.00    +0.000 A 
ATOM      4  C   UNL     1      48.205   4.951  16.405  0.00  0.00    +0.000 A 
ATOM      5  C   UNL     1      47.206   4.194  15.789  0.00  0.00    +0.000 A 
ATOM      6  C   UNL     1      46.686   4.597  14.552  0.00  0.00    +0.000 A 
ATOM      7  C   UNL     1      47.141   5.759  13.911  0.00  0.00    +0.000 A 
BRANCH   4   8
ATOM      8  C   UNL     1      48.821   4.612  17.723  0.00  0.00    +0.000 C 
ATOM      9  N   UNL     1      48.023   4.112  18.715  0.00  0.00    +0.000 N 
ATOM     10  O   UNL     1      50.020   4.764  17.924  0.00  0.00    +0.000 OA
ATOM     11  H   UNL     1      47.029   3.975  18.649  0.00  0.00    +0.000 HD
ATOM     12  H   UNL     1      48.475   3.905  19.593  0.00  0.00    +0.000 HD
ENDBRANCH   4   8
BRANCH   2  14
ATOM     13  C   UNL     1      47.841   8.902  14.317  0.00  0.00    +0.000 C 
ATOM     14  O   UNL     1      48.519   7.708  13.945  0.00  0.00    +0.000 OA
ENDBRANCH   2  14
ENDBRANCH   1   7
BRANCH   1  15
ATOM     15  C   UNL     1      45.093   5.919  12.682  0.00  0.00    +0.000 C 
BRANCH  15  16
ATOM     16  C   UNL     1      44.616   4.811  11.782  0.00  0.00    +0.000 A 
ATOM     17  C   UNL     1      43.544   4.006  12.144  0.00  0.00    +0.000 A 
ATOM     18  N   UNL     1      43.140   2.929  11.438  0.00  0.00    +0.000 NA
ATOM     19  C   UNL     1      43.847   2.638  10.318  0.00  0.00    +0.000 A 
ATOM     20  C   UNL     1      44.946   3.360   9.844  0.00  0.00    +0.000 A 
ATOM     21  C   UNL     1      45.310   4.476  10.613  0.00  0.00    +0.000 A 
BRANCH  20  22
ATOM     22  C   UNL     1      45.703   2.962   8.638  0.00  0.00    +0.000 A 
ATOM     23  C   UNL     1      46.072   3.908   7.661  0.00  0.00    +0.000 A 
ATOM     24  C   UNL     1      46.824   3.544   6.540  0.00  0.00    +0.000 A 
ATOM     25  C   UNL     1      47.208   2.222   6.374  0.00  0.00    +0.000 A 
ATOM     26  F   UNL     1      47.931   1.873   5.302  0.00  0.00    +0.000 F 
ATOM     27  C   UNL     1      46.853   1.259   7.306  0.00  0.00    +0.000 A 
ATOM     28  C   UNL     1      46.110   1.627   8.432  0.00  0.00    +0.000 A 
ENDBRANCH  20  22
ENDBRANCH  15  16
ENDBRANCH   1  15
TORSDOF 6
ENDMDL
MODEL 5
REMARK VINA RESULT:    -7.202      3.862      7.143
REMARK INTER + INTRA:         -11.068
REMARK INTER:                 -10.799
REMARK INTRA:                  -0.269
REMARK UNBOUND:                -1.340
REMARK  Name = 
REMARK  7 active torsions:
REMARK  status: ('A' for Active; 'I' for Inactive)
REMARK    1  A    between atoms: C_1  and  O_2
REMARK    2  A    between atoms: O_2  and  C_3
REMARK    3  A    between atoms: C_5  and  C_6
REMARK    4  A    between atoms: C_11  and  O_12
REMARK    5  A    between atoms: O_12  and  C_13
REMARK    6  A    between atoms: C_13  and  C_14
REMARK    7  A    between atoms: C_18  and  C_19
REMARK                            x       y       z     vdW  Elec       q    Type
REMARK                         _______ _______ _______ _____ _____    ______ ____
ROOT
ATOM      1  O   UNL     1      43.824   5.439  10.229  0.00  0.00    +0.000 OA
ENDROOT
BRANCH   1   7
ATOM      2  C   UNL     1      44.255   2.983   9.990  0.00  0.00    +0.000 A 
ATOM      3  C   UNL     1      45.027   2.012   9.337  0.00  0.00    +0.000 A 
ATOM      4  C   UNL     1      45.999   2.359   8.384  0.00  0.00    +0.000 A 
ATOM      5  C   UNL     1      46.193   3.709   8.082  0.00  0.00    +0.000 A 
ATOM      6  C   UNL     1      45.433   4.687   8.735  0.00  0.00    +0.000 A 
ATOM      7  C   UNL     1      44.465   4.344   9.691  0.00  0.00    +0.000 A 
BRANCH   4   8
ATOM      8  C   UNL     1      46.752   1.240   7.742  0.00  0.00    +0.000 C 
ATOM      9  N   UNL     1      47.814   1.538   6.934  0.00  0.00    +0.000 N 
ATOM     10  O   UNL     1      46.441   0.070   7.933  0.00  0.00    +0.000 OA
ATOM     11  H   UNL     1      48.127   2.465   6.702  0.00  0.00    +0.000 HD
ATOM     12  H   UNL     1      48.291   0.755   6.511  0.00  0.00    +0.000 HD
ENDBRANCH   4   8
BRANCH   2  14
ATOM     13  C   UNL     1      43.599   2.396  12.218  0.00  0.00    +0.000 C 
ATOM     14  O   UNL     1      43.255   2.651  10.862  0.00  0.00    +0.000 OA
ENDBRANCH   2  14
ENDBRANCH   1   7
BRANCH   1  15
ATOM     15  C   UNL     1      43.827   5.565  11.649  0.00  0.00    +0.000 C 
BRANCH  15  16
ATOM     16  C   UNL     1      45.186   5.961  12.160  0.00  0.00    +0.000 A 
ATOM     17  C   UNL     1      46.035   6.752  11.397  0.00  0.00    +0.000 A 
ATOM     18  N   UNL     1      47.304   7.046  11.748  0.00  0.00    +0.000 NA
ATOM     19  C   UNL     1      47.750   6.519  12.916  0.00  0.00    +0.000 A 
ATOM     20  C   UNL     1      47.003   5.706  13.773  0.00  0.00    +0.000 A 
ATOM     21  C   UNL     1      45.687   5.445  13.361  0.00  0.00    +0.000 A 
BRANCH  20  22
ATOM     22  C   UNL     1      47.565   5.124  15.011  0.00  0.00    +0.000 A 
ATOM     23  C   UNL     1      47.266   3.802  15.398  0.00  0.00    +0.000 A 
ATOM     24  C   UNL     1      47.827   3.233  16.544  0.00  0.00    +0.000 A 
ATOM     25  C   UNL     1      48.687   3.985  17.330  0.00  0.00    +0.000 A 
ATOM     26  F   UNL     1      49.228   3.440  18.427  0.00  0.00    +0.000 F 
ATOM     27  C   UNL     1      48.996   5.294  16.991  0.00  0.00    +0.000 A 
ATOM     28  C   UNL     1      48.441   5.857  15.837  0.00  0.00    +0.000 A 
ENDBRANCH  20  22
ENDBRANCH  15  16
ENDBRANCH   1  15
TORSDOF 6
ENDMDL
MODEL 6
REMARK VINA RESULT:    -6.526      3.875      5.433
REMARK INTER + INTRA:         -10.154
REMARK INTER:                  -9.248
REMARK INTRA:                  -0.906
REMARK UNBOUND:                -1.340
REMARK  Name = 
REMARK  7 active torsions:
REMARK  status: ('A' for Active; 'I' for Inactive)
REMARK    1  A    between atoms: C_1  and  O_2
REMARK    2  A    between atoms: O_2  and  C_3
REMARK    3  A    between atoms: C_5  and  C_6
REMARK    4  A    between atoms: C_11  and  O_12
REMARK    5  A    between atoms: O_12  and  C_13
REMARK    6  A    between atoms: C_13  and  C_14
REMARK    7  A    between atoms: C_18  and  C_19
REMARK                            x       y       z     vdW  Elec       q    Type
REMARK                         _______ _______ _______ _____ _____    ______ ____
ROOT
ATOM      1  O   UNL     1      49.124   6.328  14.565  0.00  0.00    +0.000 OA
ENDROOT
BRANCH   1   7
ATOM      2  C   UNL     1      48.210   5.177  16.593  0.00  0.00    +0.000 A 
ATOM      3  C   UNL     1      47.861   5.336  17.942  0.00  0.00    +0.000 A 
ATOM      4  C   UNL     1      48.030   6.560  18.611  0.00  0.00    +0.000 A 
ATOM      5  C   UNL     1      48.564   7.642  17.908  0.00  0.00    +0.000 A 
ATOM      6  C   UNL     1      48.908   7.497  16.557  0.00  0.00    +0.000 A 
ATOM      7  C   UNL     1      48.735   6.277  15.886  0.00  0.00    +0.000 A 
BRANCH   4   8
ATOM      8  C   UNL     1      47.637   6.608  20.051  0.00  0.00    +0.000 C 
ATOM      9  N   UNL     1      47.141   5.476  20.637  0.00  0.00    +0.000 N 
ATOM     10  O   UNL     1      47.760   7.633  20.711  0.00  0.00    +0.000 OA
ATOM     11  H   UNL     1      46.984   4.600  20.171  0.00  0.00    +0.000 HD
ATOM     12  H   UNL     1      46.878   5.552  21.609  0.00  0.00    +0.000 HD
ENDBRANCH   4   8
BRANCH   2  14
ATOM     13  C   UNL     1      48.311   2.788  16.722  0.00  0.00    +0.000 C 
ATOM     14  O   UNL     1      48.121   3.971  15.956  0.00  0.00    +0.000 OA
ENDBRANCH   2  14
ENDBRANCH   1   7
BRANCH   1  15
ATOM     15  C   UNL     1      48.951   7.568  13.881  0.00  0.00    +0.000 C 
BRANCH  15  16
ATOM     16  C   UNL     1      47.635   7.612  13.152  0.00  0.00    +0.000 A 
ATOM     17  C   UNL     1      46.738   8.652  13.355  0.00  0.00    +0.000 A 
ATOM     18  N   UNL     1      45.500   8.691  12.822  0.00  0.00    +0.000 NA
ATOM     19  C   UNL     1      45.136   7.635  12.051  0.00  0.00    +0.000 A 
ATOM     20  C   UNL     1      45.938   6.525  11.771  0.00  0.00    +0.000 A 
ATOM     21  C   UNL     1      47.219   6.547  12.344  0.00  0.00    +0.000 A 
BRANCH  20  22
ATOM     22  C   UNL     1      45.465   5.383  10.961  0.00  0.00    +0.000 A 
ATOM     23  C   UNL     1      45.685   5.332   9.569  0.00  0.00    +0.000 A 
ATOM     24  C   UNL     1      45.277   4.236   8.805  0.00  0.00    +0.000 A 
ATOM     25  C   UNL     1      44.628   3.177   9.421  0.00  0.00    +0.000 A 
ATOM     26  F   UNL     1      44.239   2.124   8.690  0.00  0.00    +0.000 F 
ATOM     27  C   UNL     1      44.379   3.195  10.785  0.00  0.00    +0.000 A 
ATOM     28  C   UNL     1      44.799   4.288  11.550  0.00  0.00    +0.000 A 
ENDBRANCH  20  22
ENDBRANCH  15  16
ENDBRANCH   1  15
TORSDOF 6
ENDMDL
MODEL 7
REMARK VINA RESULT:    -6.425      3.457      6.860
REMARK INTER + INTRA:         -10.018
REMARK INTER:                  -9.128
REMARK INTRA:                  -0.890
REMARK UNBOUND:                -1.340
REMARK  Name = 
REMARK  7 active torsions:
REMARK  status: ('A' for Active; 'I' for Inactive)
REMARK    1  A    between atoms: C_1  and  O_2
REMARK    2  A    between atoms: O_2  and  C_3
REMARK    3  A    between atoms: C_5  and  C_6
REMARK    4  A    between atoms: C_11  and  O_12
REMARK    5  A    between atoms: O_12  and  C_13
REMARK    6  A    between atoms: C_13  and  C_14
REMARK    7  A    between atoms: C_18  and  C_19
REMARK                            x       y       z     vdW  Elec       q    Type
REMARK                         _______ _______ _______ _____ _____    ______ ____
ROOT
ATOM      1  O   UNL     1      44.311   5.659  10.872  0.00  0.00    +0.000 OA
ENDROOT
BRANCH   1   7
ATOM      2  C   UNL     1      44.380   3.310  10.005  0.00  0.00    +0.000 A 
ATOM      3  C   UNL     1      44.985   2.447   9.080  0.00  0.00    +0.000 A 
ATOM      4  C   UNL     1      45.964   2.897   8.178  0.00  0.00    +0.000 A 
ATOM      5  C   UNL     1      46.337   4.242   8.207  0.00  0.00    +0.000 A 
ATOM      6  C   UNL     1      45.745   5.112   9.133  0.00  0.00    +0.000 A 
ATOM      7  C   UNL     1      44.771   4.664  10.038  0.00  0.00    +0.000 A 
BRANCH   4   8
ATOM      8  C   UNL     1      46.528   1.891   7.229  0.00  0.00    +0.000 C 
ATOM      9  N   UNL     1      46.770   0.623   7.679  0.00  0.00    +0.000 N 
ATOM     10  O   UNL     1      46.768   2.180   6.062  0.00  0.00    +0.000 OA
ATOM     11  H   UNL     1      46.626   0.302   8.621  0.00  0.00    +0.000 HD
ATOM     12  H   UNL     1      47.160  -0.025   7.010  0.00  0.00    +0.000 HD
ENDBRANCH   4   8
BRANCH   2  14
ATOM     13  C   UNL     1      43.704   2.530  12.166  0.00  0.00    +0.000 C 
ATOM     14  O   UNL     1      43.373   2.898  10.833  0.00  0.00    +0.000 OA
ENDBRANCH   2  14
ENDBRANCH   1   7
BRANCH   1  15
ATOM     15  C   UNL     1      44.992   5.839  12.112  0.00  0.00    +0.000 C 
BRANCH  15  16
ATOM     16  C   UNL     1      45.650   7.190  12.183  0.00  0.00    +0.000 A 
ATOM     17  C   UNL     1      44.895   8.349  12.301  0.00  0.00    +0.000 A 
ATOM     18  N   UNL     1      45.416   9.593  12.255  0.00  0.00    +0.000 NA
ATOM     19  C   UNL     1      46.757   9.684  12.077  0.00  0.00    +0.000 A 
ATOM     20  C   UNL     1      47.630   8.601  11.940  0.00  0.00    +0.000 A 
ATOM     21  C   UNL     1      47.032   7.333  12.008  0.00  0.00    +0.000 A 
BRANCH  20  22
ATOM     22  C   UNL     1      49.079   8.769  11.701  0.00  0.00    +0.000 A 
ATOM     23  C   UNL     1      49.713  10.013  11.895  0.00  0.00    +0.000 A 
ATOM     24  C   UNL     1      51.090  10.167  11.711  0.00  0.00    +0.000 A 
ATOM     25  C   UNL     1      51.853   9.079  11.316  0.00  0.00    +0.000 A 
ATOM     26  F   UNL     1      53.173   9.225  11.143  0.00  0.00    +0.000 F 
ATOM     27  C   UNL     1      51.265   7.841  11.102  0.00  0.00    +0.000 A 
ATOM     28  C   UNL     1      49.889   7.687  11.297  0.00  0.00    +0.000 A 
ENDBRANCH  20  22
ENDBRANCH  15  16
ENDBRANCH   1  15
TORSDOF 6
ENDMDL
MODEL 8
REMARK VINA RESULT:    -5.978      3.845      5.249
REMARK INTER + INTRA:          -9.415
REMARK INTER:                  -8.675
REMARK INTRA:                  -0.740
REMARK UNBOUND:                -1.340
REMARK  Name = 
REMARK  7 active torsions:
REMARK  status: ('A' for Active; 'I' for Inactive)
REMARK    1  A    between atoms: C_1  and  O_2
REMARK    2  A    between atoms: O_2  and  C_3
REMARK    3  A    between atoms: C_5  and  C_6
REMARK    4  A    between atoms: C_11  and  O_12
REMARK    5  A    between atoms: O_12  and  C_13
REMARK    6  A    between atoms: C_13  and  C_14
REMARK    7  A    between atoms: C_18  and  C_19
REMARK                            x       y       z     vdW  Elec       q    Type
REMARK                         _______ _______ _______ _____ _____    ______ ____
ROOT
ATOM      1  O   UNL     1      48.340   7.327  15.291  0.00  0.00    +0.000 OA
ENDROOT
BRANCH   1   7
ATOM      2  C   UNL     1      48.864   5.273  16.625  0.00  0.00    +0.000 A 
ATOM      3  C   UNL     1      49.870   4.575  17.309  0.00  0.00    +0.000 A 
ATOM      4  C   UNL     1      51.188   5.056  17.377  0.00  0.00    +0.000 A 
ATOM      5  C   UNL     1      51.499   6.259  16.739  0.00  0.00    +0.000 A 
ATOM      6  C   UNL     1      50.500   6.968  16.060  0.00  0.00    +0.000 A 
ATOM      7  C   UNL     1      49.181   6.493  15.996  0.00  0.00    +0.000 A 
BRANCH   4   8
ATOM      8  C   UNL     1      52.179   4.222  18.121  0.00  0.00    +0.000 C 
ATOM      9  N   UNL     1      51.826   2.955  18.494  0.00  0.00    +0.000 N 
ATOM     10  O   UNL     1      53.295   4.649  18.392  0.00  0.00    +0.000 OA
ATOM     11  H   UNL     1      50.929   2.530  18.336  0.00  0.00    +0.000 HD
ATOM     12  H   UNL     1      52.519   2.427  19.003  0.00  0.00    +0.000 HD
ENDBRANCH   4   8
BRANCH   2  14
ATOM     13  C   UNL     1      47.175   3.755  17.385  0.00  0.00    +0.000 C 
ATOM     14  O   UNL     1      47.598   4.775  16.490  0.00  0.00    +0.000 OA
ENDBRANCH   2  14
ENDBRANCH   1   7
BRANCH   1  15
ATOM     15  C   UNL     1      48.630   7.531  13.909  0.00  0.00    +0.000 C 
BRANCH  15  16
ATOM     16  C   UNL     1      47.373   7.531  13.082  0.00  0.00    +0.000 A 
ATOM     17  C   UNL     1      46.474   8.587  13.145  0.00  0.00    +0.000 A 
ATOM     18  N   UNL     1      45.280   8.596  12.517  0.00  0.00    +0.000 NA
ATOM     19  C   UNL     1      44.965   7.491  11.795  0.00  0.00    +0.000 A 
ATOM     20  C   UNL     1      45.774   6.360  11.653  0.00  0.00    +0.000 A 
ATOM     21  C   UNL     1      47.009   6.416  12.318  0.00  0.00    +0.000 A 
BRANCH  20  22
ATOM     22  C   UNL     1      45.351   5.168  10.888  0.00  0.00    +0.000 A 
ATOM     23  C   UNL     1      45.561   5.078   9.498  0.00  0.00    +0.000 A 
ATOM     24  C   UNL     1      45.202   3.936   8.777  0.00  0.00    +0.000 A 
ATOM     25  C   UNL     1      44.612   2.869   9.437  0.00  0.00    +0.000 A 
ATOM     26  F   UNL     1      44.270   1.772   8.749  0.00  0.00    +0.000 F 
ATOM     27  C   UNL     1      44.375   2.923  10.803  0.00  0.00    +0.000 A 
ATOM     28  C   UNL     1      44.746   4.063  11.523  0.00  0.00    +0.000 A 
ENDBRANCH  20  22
ENDBRANCH  15  16
ENDBRANCH   1  15
TORSDOF 6
ENDMDL
MODEL 9
REMARK VINA RESULT:    -5.944      5.116      8.562
REMARK INTER + INTRA:          -9.369
REMARK INTER:                  -8.557
REMARK INTRA:                  -0.811
REMARK UNBOUND:                -1.340
REMARK  Name = 
REMARK  7 active torsions:
REMARK  status: ('A' for Active; 'I' for Inactive)
REMARK    1  A    between atoms: C_1  and  O_2
REMARK    2  A    between atoms: O_2  and  C_3
REMARK    3  A    between atoms: C_5  and  C_6
REMARK    4  A    between atoms: C_11  and  O_12
REMARK    5  A    between atoms: O_12  and  C_13
REMARK    6  A    between atoms: C_13  and  C_14
REMARK    7  A    between atoms: C_18  and  C_19
REMARK                            x       y       z     vdW  Elec       q    Type
REMARK                         _______ _______ _______ _____ _____    ______ ____
ROOT
ATOM      1  O   UNL     1      48.658   6.266  14.155  0.00  0.00    +0.000 OA
ENDROOT
BRANCH   1   7
ATOM      2  C   UNL     1      46.752   4.686  13.774  0.00  0.00    +0.000 A 
ATOM      3  C   UNL     1      45.512   4.517  13.143  0.00  0.00    +0.000 A 
ATOM      4  C   UNL     1      44.926   5.539  12.377  0.00  0.00    +0.000 A 
ATOM      5  C   UNL     1      45.602   6.754  12.249  0.00  0.00    +0.000 A 
ATOM      6  C   UNL     1      46.846   6.931  12.868  0.00  0.00    +0.000 A 
ATOM      7  C   UNL     1      47.435   5.910  13.630  0.00  0.00    +0.000 A 
BRANCH   4   8
ATOM      8  C   UNL     1      43.596   5.251  11.762  0.00  0.00    +0.000 C 
ATOM      9  N   UNL     1      43.507   5.148  10.401  0.00  0.00    +0.000 N 
ATOM     10  O   UNL     1      42.594   5.099  12.452  0.00  0.00    +0.000 OA
ATOM     11  H   UNL     1      44.267   5.279   9.756  0.00  0.00    +0.000 HD
ATOM     12  H   UNL     1      42.589   4.962  10.024  0.00  0.00    +0.000 HD
ENDBRANCH   4   8
BRANCH   2  14
ATOM     13  C   UNL     1      47.057   3.812  15.983  0.00  0.00    +0.000 C 
ATOM     14  O   UNL     1      47.293   3.726  14.583  0.00  0.00    +0.000 OA
ENDBRANCH   2  14
ENDBRANCH   1   7
BRANCH   1  15
ATOM     15  C   UNL     1      48.668   7.283  15.155  0.00  0.00    +0.000 C 
BRANCH  15  16
ATOM     16  C   UNL     1      49.220   6.764  16.456  0.00  0.00    +0.000 A 
ATOM     17  C   UNL     1      49.222   7.554  17.598  0.00  0.00    +0.000 A 
ATOM     18  N   UNL     1      49.802   7.192  18.761  0.00  0.00    +0.000 NA
ATOM     19  C   UNL     1      50.417   5.983  18.782  0.00  0.00    +0.000 A 
ATOM     20  C   UNL     1      50.493   5.095  17.705  0.00  0.00    +0.000 A 
ATOM     21  C   UNL     1      49.860   5.522  16.527  0.00  0.00    +0.000 A 
BRANCH  20  22
ATOM     22  C   UNL     1      51.220   3.810  17.780  0.00  0.00    +0.000 A 
ATOM     23  C   UNL     1      50.608   2.600  17.395  0.00  0.00    +0.000 A 
ATOM     24  C   UNL     1      51.304   1.389  17.423  0.00  0.00    +0.000 A 
ATOM     25  C   UNL     1      52.623   1.368  17.853  0.00  0.00    +0.000 A 
ATOM     26  F   UNL     1      53.292   0.208  17.878  0.00  0.00    +0.000 F 
ATOM     27  C   UNL     1      53.256   2.534  18.254  0.00  0.00    +0.000 A 
ATOM     28  C   UNL     1      52.560   3.747  18.214  0.00  0.00    +0.000 A 
ENDBRANCH  20  22
ENDBRANCH  15  16
ENDBRANCH   1  15
TORSDOF 6
ENDMDL
