MODEL 1
REMARK VINA RESULT:    -7.263      0.000      0.000
REMARK INTER + INTRA:         -11.356
REMARK INTER:                 -10.235
REMARK INTRA:                  -1.120
REMARK UNBOUND:                -1.120
REMARK  Name = 
REMARK  7 active torsions:
REMARK  status: ('A' for Active; 'I' for Inactive)
REMARK    1  A    between atoms: C_2  and  C_3
REMARK    2  A    between atoms: C_7  and  C_8
REMARK    3  A    between atoms: N_10  and  C_11
REMARK    4  A    between atoms: C_11  and  C_12
REMARK    5  A    between atoms: C_15  and  C_16
REMARK    6  A    between atoms: C_16  and  N_17
REMARK    7  A    between atoms: C_18  and  C_20
REMARK                            x       y       z     vdW  Elec       q    Type
REMARK                         _______ _______ _______ _____ _____    ______ ____
ROOT
ATOM      1  C   UNL     1      51.307   3.777  18.001  0.00  0.00    +0.000 A 
ATOM      2  C   UNL     1      50.416   4.845  18.176  0.00  0.00    +0.000 A 
ATOM      3  C   UNL     1      49.079   4.735  17.772  0.00  0.00    +0.000 A 
ATOM      4  C   UNL     1      48.598   3.548  17.203  0.00  0.00    +0.000 A 
ATOM      5  C   UNL     1      49.494   2.489  17.009  0.00  0.00    +0.000 A 
ATOM      6  C   UNL     1      50.828   2.597  17.415  0.00  0.00    +0.000 A 
ENDROOT
BRANCH   1   7
ATOM      7  C   UNL     1      52.749   3.888  18.423  0.00  0.00    +0.000 C 
BRANCH   7  10
ATOM      8  C   UNL     1      54.286   1.981  18.693  0.00  0.00    +0.000 C 
ATOM      9  O   UNL     1      54.291   2.077  19.916  0.00  0.00    +0.000 OA
ATOM     10  N   UNL     1      53.574   2.829  17.877  0.00  0.00    +0.000 N 
ATOM     11  H   UNL     1      53.702   2.794  16.875  0.00  0.00    +0.000 HD
BRANCH   8  16
ATOM     12  C   UNL     1      54.132  -0.268  17.555  0.00  0.00    +0.000 C 
ATOM     13  C   UNL     1      54.838  -0.931  16.367  0.00  0.00    +0.000 C 
ATOM     14  C   UNL     1      55.775   0.121  15.779  0.00  0.00    +0.000 C 
ATOM     15  C   UNL     1      55.590   1.380  16.616  0.00  0.00    +0.000 C 
ATOM     16  C   UNL     1      55.053   0.890  17.960  0.00  0.00    +0.000 C 
BRANCH  12  18
ATOM     17  N   UNL     1      53.767  -1.986  19.514  0.00  0.00    +0.000 NA
ATOM     18  C   UNL     1      53.917  -1.216  18.656  0.00  0.00    +0.000 C 
ENDBRANCH  12  18
ENDBRANCH   8  16
ENDBRANCH   7  10
ENDBRANCH   1   7
BRANCH   4  19
ATOM     19  C   UNL     1      47.152   3.406  16.792  0.00  0.00    +0.000 C 
BRANCH  19  20
ATOM     20  N   UNL     1      46.778   4.394  15.813  0.00  0.00    +0.000 N 
ATOM     21  C   UNL     1      46.823   4.122  14.466  0.00  0.00    +0.000 C 
ATOM     22  O   UNL     1      47.135   3.016  14.032  0.00  0.00    +0.000 OA
ATOM     23  H   UNL     1      46.777   5.360  16.120  0.00  0.00    +0.000 HD
BRANCH  21  24
ATOM     24  C   UNL     1      46.409   5.210  13.570  0.00  0.00    +0.000 A 
ATOM     25  C   UNL     1      47.291   6.241  13.273  0.00  0.00    +0.000 A 
ATOM     26  S   UNL     1      46.661   7.383  12.173  0.00  0.00    +0.000 S 
ATOM     27  C   UNL     1      45.169   6.570  12.098  0.00  0.00    +0.000 A 
ATOM     28  N   UNL     1      44.147   7.046  11.335  0.00  0.00    +0.000 NA
ATOM     29  C   UNL     1      43.065   6.344  11.395  0.00  0.00    +0.000 A 
ATOM     30  N   UNL     1      42.914   5.207  12.138  0.00  0.00    +0.000 N 
ATOM     31  C   UNL     1      43.924   4.671  12.902  0.00  0.00    +0.000 A 
ATOM     32  O   UNL     1      43.768   3.623  13.518  0.00  0.00    +0.000 OA
ATOM     33  C   UNL     1      45.160   5.431  12.883  0.00  0.00    +0.000 A 
ATOM     34  H   UNL     1      42.044   4.695  12.135  0.00  0.00    +0.000 HD
ENDBRANCH  21  24
ENDBRANCH  19  20
ENDBRANCH   4  19
TORSDOF 7
ENDMDL
MODEL 2
REMARK VINA RESULT:    -7.083      3.306      5.086
REMARK INTER + INTRA:         -11.102
REMARK INTER:                  -9.824
REMARK INTRA:                  -1.278
REMARK UNBOUND:                -1.120
REMARK  Name = 
REMARK  7 active torsions:
REMARK  status: ('A' for Active; 'I' for Inactive)
REMARK    1  A    between atoms: C_2  and  C_3
REMARK    2  A    between atoms: C_7  and  C_8
REMARK    3  A    between atoms: N_10  and  C_11
REMARK    4  A    between atoms: C_11  and  C_12
REMARK    5  A    between atoms: C_15  and  C_16
REMARK    6  A    between atoms: C_16  and  N_17
REMARK    7  A    between atoms: C_18  and  C_20
REMARK                            x       y       z     vdW  Elec       q    Type
REMARK                         _______ _______ _______ _____ _____    ______ ____
ROOT
ATOM      1  C   UNL     1      50.292   7.400  15.196  0.00  0.00    +0.000 A 
ATOM      2  C   UNL     1      50.514   8.277  14.126  0.00  0.00    +0.000 A 
ATOM      3  C   UNL     1      49.580   8.390  13.087  0.00  0.00    +0.000 A 
ATOM      4  C   UNL     1      48.394   7.643  13.107  0.00  0.00    +0.000 A 
ATOM      5  C   UNL     1      48.183   6.751  14.166  0.00  0.00    +0.000 A 
ATOM      6  C   UNL     1      49.114   6.640  15.204  0.00  0.00    +0.000 A 
ENDROOT
BRANCH   1   7
ATOM      7  C   UNL     1      51.294   7.263  16.313  0.00  0.00    +0.000 C 
BRANCH   7  10
ATOM      8  C   UNL     1      50.919   5.511  18.005  0.00  0.00    +0.000 C 
ATOM      9  O   UNL     1      50.358   6.285  18.774  0.00  0.00    +0.000 OA
ATOM     10  N   UNL     1      51.423   5.899  16.785  0.00  0.00    +0.000 N 
ATOM     11  H   UNL     1      51.988   5.260  16.244  0.00  0.00    +0.000 HD
BRANCH   8  16
ATOM     12  C   UNL     1      50.363   3.153  17.292  0.00  0.00    +0.000 C 
ATOM     13  C   UNL     1      51.090   1.805  17.351  0.00  0.00    +0.000 C 
ATOM     14  C   UNL     1      52.474   2.084  17.929  0.00  0.00    +0.000 C 
ATOM     15  C   UNL     1      52.542   3.585  18.181  0.00  0.00    +0.000 C 
ATOM     16  C   UNL     1      51.088   4.032  18.320  0.00  0.00    +0.000 C 
BRANCH  12  18
ATOM     17  N   UNL     1      47.805   2.870  17.839  0.00  0.00    +0.000 NA
ATOM     18  C   UNL     1      48.933   3.012  17.594  0.00  0.00    +0.000 C 
ENDBRANCH  12  18
ENDBRANCH   8  16
ENDBRANCH   7  10
ENDBRANCH   1   7
BRANCH   4  19
ATOM     19  C   UNL     1      47.366   7.778  12.009  0.00  0.00    +0.000 C 
BRANCH  19  20
ATOM     20  N   UNL     1      46.708   6.527  11.738  0.00  0.00    +0.000 N 
ATOM     21  C   UNL     1      45.339   6.440  11.654  0.00  0.00    +0.000 C 
ATOM     22  O   UNL     1      44.613   7.426  11.754  0.00  0.00    +0.000 OA
ATOM     23  H   UNL     1      47.245   5.685  11.914  0.00  0.00    +0.000 HD
BRANCH  21  24
ATOM     24  C   UNL     1      44.789   5.109  11.366  0.00  0.00    +0.000 A 
ATOM     25  C   UNL     1      44.032   4.446  12.323  0.00  0.00    +0.000 A 
ATOM     26  S   UNL     1      43.429   2.940  11.794  0.00  0.00    +0.000 S 
ATOM     27  C   UNL     1      44.204   3.096  10.288  0.00  0.00    +0.000 A 
ATOM     28  N   UNL     1      44.114   2.116   9.347  0.00  0.00    +0.000 NA
ATOM     29  C   UNL     1      44.775   2.356   8.264  0.00  0.00    +0.000 A 
ATOM     30  N   UNL     1      45.508   3.485   8.031  0.00  0.00    +0.000 N 
ATOM     31  C   UNL     1      45.606   4.515   8.938  0.00  0.00    +0.000 A 
ATOM     32  O   UNL     1      46.233   5.535   8.677  0.00  0.00    +0.000 OA
ATOM     33  C   UNL     1      44.894   4.290  10.182  0.00  0.00    +0.000 A 
ATOM     34  H   UNL     1      45.995   3.619   7.158  0.00  0.00    +0.000 HD
ENDBRANCH  21  24
ENDBRANCH  19  20
ENDBRANCH   4  19
TORSDOF 7
ENDMDL
MODEL 3
REMARK VINA RESULT:    -6.859      3.928      6.466
REMARK INTER + INTRA:         -10.787
REMARK INTER:                  -9.616
REMARK INTRA:                  -1.171
REMARK UNBOUND:                -1.120
REMARK  Name = 
REMARK  7 active torsions:
REMARK  status: ('A' for Active; 'I' for Inactive)
REMARK    1  A    between atoms: C_2  and  C_3
REMARK    2  A    between atoms: C_7  and  C_8
REMARK    3  A    between atoms: N_10  and  C_11
REMARK    4  A    between atoms: C_11  and  C_12
REMARK    5  A    between atoms: C_15  and  C_16
REMARK    6  A    between atoms: C_16  and  N_17
REMARK    7  A    between atoms: C_18  and  C_20
REMARK                            x       y       z     vdW  Elec       q    Type
REMARK                         _______ _______ _______ _____ _____    ______ ____
ROOT
ATOM      1  C   UNL     1      48.392   7.457  14.343  0.00  0.00    +0.000 A 
ATOM      2  C   UNL     1      48.179   6.166  13.841  0.00  0.00    +0.000 A 
ATOM      3  C   UNL     1      47.189   5.926  12.879  0.00  0.00    +0.000 A 
ATOM      4  C   UNL     1      46.403   6.976  12.384  0.00  0.00    +0.000 A 
ATOM      5  C   UNL     1      46.601   8.262  12.903  0.00  0.00    +0.000 A 
ATOM      6  C   UNL     1      47.592   8.502  13.860  0.00  0.00    +0.000 A 
ENDROOT
BRANCH   1   7
ATOM      7  C   UNL     1      49.447   7.725  15.385  0.00  0.00    +0.000 C 
BRANCH   7  10
ATOM      8  C   UNL     1      49.147   6.094  17.207  0.00  0.00    +0.000 C 
ATOM      9  O   UNL     1      48.180   6.692  17.668  0.00  0.00    +0.000 OA
ATOM     10  N   UNL     1      49.841   6.529  16.102  0.00  0.00    +0.000 N 
ATOM     11  H   UNL     1      50.705   6.078  15.837  0.00  0.00    +0.000 HD
BRANCH   8  16
ATOM     12  C   UNL     1      49.204   3.580  16.979  0.00  0.00    +0.000 C 
ATOM     13  C   UNL     1      50.233   2.488  17.293  0.00  0.00    +0.000 C 
ATOM     14  C   UNL     1      51.487   3.204  17.787  0.00  0.00    +0.000 C 
ATOM     15  C   UNL     1      51.180   4.695  17.737  0.00  0.00    +0.000 C 
ATOM     16  C   UNL     1      49.657   4.791  17.805  0.00  0.00    +0.000 C 
BRANCH  12  18
ATOM     17  N   UNL     1      46.769   2.818  17.624  0.00  0.00    +0.000 NA
ATOM     18  C   UNL     1      47.841   3.155  17.322  0.00  0.00    +0.000 C 
ENDBRANCH  12  18
ENDBRANCH   8  16
ENDBRANCH   7  10
ENDBRANCH   1   7
BRANCH   4  19
ATOM     19  C   UNL     1      45.353   6.736  11.326  0.00  0.00    +0.000 C 
BRANCH  19  20
ATOM     20  N   UNL     1      45.581   5.501  10.620  0.00  0.00    +0.000 N 
ATOM     21  C   UNL     1      44.538   4.756  10.124  0.00  0.00    +0.000 C 
ATOM     22  O   UNL     1      43.369   5.126  10.211  0.00  0.00    +0.000 OA
ATOM     23  H   UNL     1      46.479   5.055  10.765  0.00  0.00    +0.000 HD
BRANCH  21  24
ATOM     24  C   UNL     1      44.901   3.521   9.417  0.00  0.00    +0.000 A 
ATOM     25  C   UNL     1      44.263   2.327   9.730  0.00  0.00    +0.000 A 
ATOM     26  S   UNL     1      44.770   1.010   8.771  0.00  0.00    +0.000 S 
ATOM     27  C   UNL     1      45.898   1.977   7.942  0.00  0.00    +0.000 A 
ATOM     28  N   UNL     1      46.702   1.449   6.979  0.00  0.00    +0.000 NA
ATOM     29  C   UNL     1      47.529   2.291   6.454  0.00  0.00    +0.000 A 
ATOM     30  N   UNL     1      47.619   3.611   6.796  0.00  0.00    +0.000 N 
ATOM     31  C   UNL     1      46.810   4.197   7.741  0.00  0.00    +0.000 A 
ATOM     32  O   UNL     1      46.885   5.395   7.988  0.00  0.00    +0.000 OA
ATOM     33  C   UNL     1      45.872   3.290   8.375  0.00  0.00    +0.000 A 
ATOM     34  H   UNL     1      48.280   4.223   6.341  0.00  0.00    +0.000 HD
ENDBRANCH  21  24
ENDBRANCH  19  20
ENDBRANCH   4  19
TORSDOF 7
ENDMDL
MODEL 4
REMARK VINA RESULT:    -6.750      3.346      5.095
REMARK INTER + INTRA:         -10.633
REMARK INTER:                  -9.424
REMARK INTRA:                  -1.209
REMARK UNBOUND:                -1.120
REMARK  Name = 
REMARK  7 active torsions:
REMARK  status: ('A' for Active; 'I' for Inactive)
REMARK    1  A    between atoms: C_2  and  C_3
REMARK    2  A    between atoms: C_7  and  C_8
REMARK    3  A    between atoms: N_10  and  C_11
REMARK    4  A    between atoms: C_11  and  C_12
REMARK    5  A    between atoms: C_15  and  C_16
REMARK    6  A    between atoms: C_16  and  N_17
REMARK    7  A    between atoms: C_18  and  C_20
REMARK                            x       y       z     vdW  Elec       q    Type
REMARK                         _______ _______ _______ _____ _____    ______ ____
ROOT
ATOM      1  C   UNL     1      49.858   7.787  15.733  0.00  0.00    +0.000 A 
ATOM      2  C   UNL     1      49.873   9.063  15.154  0.00  0.00    +0.000 A 
ATOM      3  C   UNL     1      49.144   9.327  13.987  0.00  0.00    +0.000 A 
ATOM      4  C   UNL     1      48.369   8.327  13.385  0.00  0.00    +0.000 A 
ATOM      5  C   UNL     1      48.372   7.047  13.952  0.00  0.00    +0.000 A 
ATOM      6  C   UNL     1      49.097   6.783  15.119  0.00  0.00    +0.000 A 
ENDROOT
BRANCH   1   7
ATOM      7  C   UNL     1      50.646   7.488  16.983  0.00  0.00    +0.000 C 
BRANCH   7  10
ATOM      8  C   UNL     1      49.934   5.441  18.155  0.00  0.00    +0.000 C 
ATOM      9  O   UNL     1      49.082   6.036  18.807  0.00  0.00    +0.000 OA
ATOM     10  N   UNL     1      50.757   6.068  17.247  0.00  0.00    +0.000 N 
ATOM     11  H   UNL     1      51.527   5.565  16.831  0.00  0.00    +0.000 HD
BRANCH   8  16
ATOM     12  C   UNL     1      49.468   3.188  17.114  0.00  0.00    +0.000 C 
ATOM     13  C   UNL     1      50.236   1.866  17.006  0.00  0.00    +0.000 C 
ATOM     14  C   UNL     1      51.600   2.104  17.650  0.00  0.00    +0.000 C 
ATOM     15  C   UNL     1      51.614   3.557  18.105  0.00  0.00    +0.000 C 
ATOM     16  C   UNL     1      50.144   3.938  18.269  0.00  0.00    +0.000 C 
BRANCH  12  18
ATOM     17  N   UNL     1      46.911   2.787  17.587  0.00  0.00    +0.000 NA
ATOM     18  C   UNL     1      48.038   2.965  17.361  0.00  0.00    +0.000 C 
ENDBRANCH  12  18
ENDBRANCH   8  16
ENDBRANCH   7  10
ENDBRANCH   1   7
BRANCH   4  19
ATOM     19  C   UNL     1      47.555   8.608  12.144  0.00  0.00    +0.000 C 
BRANCH  19  20
ATOM     20  N   UNL     1      47.063   7.395  11.544  0.00  0.00    +0.000 N 
ATOM     21  C   UNL     1      45.717   7.136  11.450  0.00  0.00    +0.000 C 
ATOM     22  O   UNL     1      44.868   7.941  11.825  0.00  0.00    +0.000 OA
ATOM     23  H   UNL     1      47.719   6.625  11.475  0.00  0.00    +0.000 HD
BRANCH  21  24
ATOM     24  C   UNL     1      45.343   5.868  10.810  0.00  0.00    +0.000 A 
ATOM     25  C   UNL     1      45.685   5.630   9.486  0.00  0.00    +0.000 A 
ATOM     26  S   UNL     1      45.221   4.085   8.928  0.00  0.00    +0.000 S 
ATOM     27  C   UNL     1      44.498   3.702  10.419  0.00  0.00    +0.000 A 
ATOM     28  N   UNL     1      43.878   2.506  10.613  0.00  0.00    +0.000 NA
ATOM     29  C   UNL     1      43.350   2.363  11.783  0.00  0.00    +0.000 A 
ATOM     30  N   UNL     1      43.392   3.300  12.777  0.00  0.00    +0.000 N 
ATOM     31  C   UNL     1      44.031   4.510  12.640  0.00  0.00    +0.000 A 
ATOM     32  O   UNL     1      44.092   5.306  13.570  0.00  0.00    +0.000 OA
ATOM     33  C   UNL     1      44.629   4.730  11.337  0.00  0.00    +0.000 A 
ATOM     34  H   UNL     1      42.969   3.124  13.676  0.00  0.00    +0.000 HD
ENDBRANCH  21  24
ENDBRANCH  19  20
ENDBRANCH   4  19
TORSDOF 7
ENDMDL
MODEL 5
REMARK VINA RESULT:    -6.656      3.426      9.909
REMARK INTER + INTRA:         -10.500
REMARK INTER:                  -9.432
REMARK INTRA:                  -1.069
REMARK UNBOUND:                -1.120
REMARK  Name = 
REMARK  7 active torsions:
REMARK  status: ('A' for Active; 'I' for Inactive)
REMARK    1  A    between atoms: C_2  and  C_3
REMARK    2  A    between atoms: C_7  and  C_8
REMARK    3  A    between atoms: N_10  and  C_11
REMARK    4  A    between atoms: C_11  and  C_12
REMARK    5  A    between atoms: C_15  and  C_16
REMARK    6  A    between atoms: C_16  and  N_17
REMARK    7  A    between atoms: C_18  and  C_20
REMARK                            x       y       z     vdW  Elec       q    Type
REMARK                         _______ _______ _______ _____ _____    ______ ____
ROOT
ATOM      1  C   UNL     1      48.395   7.205  12.760  0.00  0.00    +0.000 A 
ATOM      2  C   UNL     1      48.074   6.514  13.937  0.00  0.00    +0.000 A 
ATOM      3  C   UNL     1      48.807   6.724  15.112  0.00  0.00    +0.000 A 
ATOM      4  C   UNL     1      49.863   7.645  15.143  0.00  0.00    +0.000 A 
ATOM      5  C   UNL     1      50.196   8.319  13.961  0.00  0.00    +0.000 A 
ATOM      6  C   UNL     1      49.463   8.111  12.788  0.00  0.00    +0.000 A 
ENDROOT
BRANCH   1   7
ATOM      7  C   UNL     1      47.620   6.979  11.488  0.00  0.00    +0.000 C 
BRANCH   7  10
ATOM      8  C   UNL     1      45.686   5.680  10.684  0.00  0.00    +0.000 C 
ATOM      9  O   UNL     1      46.081   5.692   9.523  0.00  0.00    +0.000 OA
ATOM     10  N   UNL     1      46.363   6.294  11.713  0.00  0.00    +0.000 N 
ATOM     11  H   UNL     1      45.937   6.370  12.626  0.00  0.00    +0.000 HD
BRANCH   8  16
ATOM     12  C   UNL     1      44.663   3.459  11.314  0.00  0.00    +0.000 C 
ATOM     13  C   UNL     1      43.556   3.010  12.274  0.00  0.00    +0.000 C 
ATOM     14  C   UNL     1      43.084   4.264  13.005  0.00  0.00    +0.000 C 
ATOM     15  C   UNL     1      43.930   5.415  12.479  0.00  0.00    +0.000 C 
ATOM     16  C   UNL     1      44.414   4.958  11.104  0.00  0.00    +0.000 C 
BRANCH  12  18
ATOM     17  N   UNL     1      44.618   2.130   9.043  0.00  0.00    +0.000 NA
ATOM     18  C   UNL     1      44.624   2.709  10.052  0.00  0.00    +0.000 C 
ENDBRANCH  12  18
ENDBRANCH   8  16
ENDBRANCH   7  10
ENDBRANCH   1   7
BRANCH   4  19
ATOM     19  C   UNL     1      50.641   7.903  16.411  0.00  0.00    +0.000 C 
BRANCH  19  20
ATOM     20  N   UNL     1      51.436   6.764  16.789  0.00  0.00    +0.000 N 
ATOM     21  C   UNL     1      51.143   6.026  17.911  0.00  0.00    +0.000 C 
ATOM     22  O   UNL     1      50.166   6.265  18.615  0.00  0.00    +0.000 OA
ATOM     23  H   UNL     1      52.368   6.711  16.394  0.00  0.00    +0.000 HD
BRANCH  21  24
ATOM     24  C   UNL     1      52.026   4.884  18.185  0.00  0.00    +0.000 A 
ATOM     25  C   UNL     1      53.266   5.089  18.773  0.00  0.00    +0.000 A 
ATOM     26  S   UNL     1      54.128   3.647  19.070  0.00  0.00    +0.000 S 
ATOM     27  C   UNL     1      52.898   2.702  18.372  0.00  0.00    +0.000 A 
ATOM     28  N   UNL     1      53.017   1.349  18.280  0.00  0.00    +0.000 NA
ATOM     29  C   UNL     1      52.020   0.765  17.703  0.00  0.00    +0.000 A 
ATOM     30  N   UNL     1      50.915   1.405  17.218  0.00  0.00    +0.000 N 
ATOM     31  C   UNL     1      50.735   2.765  17.313  0.00  0.00    +0.000 A 
ATOM     32  O   UNL     1      49.709   3.301  16.911  0.00  0.00    +0.000 OA
ATOM     33  C   UNL     1      51.834   3.475  17.940  0.00  0.00    +0.000 A 
ATOM     34  H   UNL     1      50.163   0.890  16.786  0.00  0.00    +0.000 HD
ENDBRANCH  21  24
ENDBRANCH  19  20
ENDBRANCH   4  19
TORSDOF 7
ENDMDL
MODEL 6
REMARK VINA RESULT:    -6.510      3.375      9.387
REMARK INTER + INTRA:         -10.294
REMARK INTER:                  -9.056
REMARK INTRA:                  -1.239
REMARK UNBOUND:                -1.120
REMARK  Name = 
REMARK  7 active torsions:
REMARK  status: ('A' for Active; 'I' for Inactive)
REMARK    1  A    between atoms: C_2  and  C_3
REMARK    2  A    between atoms: C_7  and  C_8
REMARK    3  A    between atoms: N_10  and  C_11
REMARK    4  A    between atoms: C_11  and  C_12
REMARK    5  A    between atoms: C_15  and  C_16
REMARK    6  A    between atoms: C_16  and  N_17
REMARK    7  A    between atoms: C_18  and  C_20
REMARK                            x       y       z     vdW  Elec       q    Type
REMARK                         _______ _______ _______ _____ _____    ______ ____
ROOT
ATOM      1  C   UNL     1      48.555   8.249  13.656  0.00  0.00    +0.000 A 
ATOM      2  C   UNL     1      49.643   7.413  13.945  0.00  0.00    +0.000 A 
ATOM      3  C   UNL     1      50.233   7.421  15.215  0.00  0.00    +0.000 A 
ATOM      4  C   UNL     1      49.736   8.249  16.231  0.00  0.00    +0.000 A 
ATOM      5  C   UNL     1      48.663   9.099  15.934  0.00  0.00    +0.000 A 
ATOM      6  C   UNL     1      48.071   9.090  14.667  0.00  0.00    +0.000 A 
ENDROOT
BRANCH   1   7
ATOM      7  C   UNL     1      47.919   8.256  12.289  0.00  0.00    +0.000 C 
BRANCH   7  10
ATOM      8  C   UNL     1      46.074   6.625  12.211  0.00  0.00    +0.000 C 
ATOM      9  O   UNL     1      45.308   7.368  12.814  0.00  0.00    +0.000 OA
ATOM     10  N   UNL     1      47.375   6.965  11.919  0.00  0.00    +0.000 N 
ATOM     11  H   UNL     1      48.006   6.275  11.538  0.00  0.00    +0.000 HD
BRANCH   8  16
ATOM     12  C   UNL     1      45.263   4.322  12.856  0.00  0.00    +0.000 C 
ATOM     13  C   UNL     1      44.321   3.290  12.225  0.00  0.00    +0.000 C 
ATOM     14  C   UNL     1      43.756   3.935  10.963  0.00  0.00    +0.000 C 
ATOM     15  C   UNL     1      44.359   5.331  10.885  0.00  0.00    +0.000 C 
ATOM     16  C   UNL     1      45.648   5.256  11.701  0.00  0.00    +0.000 C 
BRANCH  12  18
ATOM     17  N   UNL     1      47.377   3.207  13.956  0.00  0.00    +0.000 NA
ATOM     18  C   UNL     1      46.436   3.683  13.465  0.00  0.00    +0.000 C 
ENDBRANCH  12  18
ENDBRANCH   8  16
ENDBRANCH   7  10
ENDBRANCH   1   7
BRANCH   4  19
ATOM     19  C   UNL     1      50.343   8.245  17.613  0.00  0.00    +0.000 C 
BRANCH  19  20
ATOM     20  N   UNL     1      51.177   7.089  17.825  0.00  0.00    +0.000 N 
ATOM     21  C   UNL     1      50.720   5.993  18.517  0.00  0.00    +0.000 C 
ATOM     22  O   UNL     1      49.571   5.921  18.944  0.00  0.00    +0.000 OA
ATOM     23  H   UNL     1      52.176   7.226  17.723  0.00  0.00    +0.000 HD
BRANCH  21  24
ATOM     24  C   UNL     1      51.664   4.876  18.659  0.00  0.00    +0.000 A 
ATOM     25  C   UNL     1      52.847   5.051  19.363  0.00  0.00    +0.000 A 
ATOM     26  S   UNL     1      53.791   3.633  19.475  0.00  0.00    +0.000 S 
ATOM     27  C   UNL     1      52.677   2.752  18.539  0.00  0.00    +0.000 A 
ATOM     28  N   UNL     1      52.898   1.444  18.230  0.00  0.00    +0.000 NA
ATOM     29  C   UNL     1      51.984   0.910  17.491  0.00  0.00    +0.000 A 
ATOM     30  N   UNL     1      50.868   1.557  17.041  0.00  0.00    +0.000 N 
ATOM     31  C   UNL     1      50.585   2.867  17.350  0.00  0.00    +0.000 A 
ATOM     32  O   UNL     1      49.550   3.401  16.970  0.00  0.00    +0.000 OA
ATOM     33  C   UNL     1      51.590   3.522  18.167  0.00  0.00    +0.000 A 
ATOM     34  H   UNL     1      50.183   1.080  16.474  0.00  0.00    +0.000 HD
ENDBRANCH  21  24
ENDBRANCH  19  20
ENDBRANCH   4  19
TORSDOF 7
ENDMDL
MODEL 7
REMARK VINA RESULT:    -6.507      3.303     10.074
REMARK INTER + INTRA:         -10.290
REMARK INTER:                  -9.244
REMARK INTRA:                  -1.046
REMARK UNBOUND:                -1.120
REMARK  Name = 
REMARK  7 active torsions:
REMARK  status: ('A' for Active; 'I' for Inactive)
REMARK    1  A    between atoms: C_2  and  C_3
REMARK    2  A    between atoms: C_7  and  C_8
REMARK    3  A    between atoms: N_10  and  C_11
REMARK    4  A    between atoms: C_11  and  C_12
REMARK    5  A    between atoms: C_15  and  C_16
REMARK    6  A    between atoms: C_16  and  N_17
REMARK    7  A    between atoms: C_18  and  C_20
REMARK                            x       y       z     vdW  Elec       q    Type
REMARK                         _______ _______ _______ _____ _____    ______ ____
ROOT
ATOM      1  C   UNL     1      47.817   5.812  14.648  0.00  0.00    +0.000 A 
ATOM      2  C   UNL     1      47.301   4.666  15.270  0.00  0.00    +0.000 A 
ATOM      3  C   UNL     1      47.643   4.355  16.592  0.00  0.00    +0.000 A 
ATOM      4  C   UNL     1      48.492   5.192  17.329  0.00  0.00    +0.000 A 
ATOM      5  C   UNL     1      49.024   6.325  16.699  0.00  0.00    +0.000 A 
ATOM      6  C   UNL     1      48.680   6.638  15.381  0.00  0.00    +0.000 A 
ENDROOT
BRANCH   1   7
ATOM      7  C   UNL     1      47.464   6.152  13.223  0.00  0.00    +0.000 C 
BRANCH   7  10
ATOM      8  C   UNL     1      45.588   5.803  11.665  0.00  0.00    +0.000 C 
ATOM      9  O   UNL     1      45.771   6.878  11.103  0.00  0.00    +0.000 OA
ATOM     10  N   UNL     1      46.355   5.367  12.720  0.00  0.00    +0.000 N 
ATOM     11  H   UNL     1      46.087   4.539  13.233  0.00  0.00    +0.000 HD
BRANCH   8  16
ATOM     12  C   UNL     1      45.081   3.680  10.394  0.00  0.00    +0.000 C 
ATOM     13  C   UNL     1      44.072   2.538  10.554  0.00  0.00    +0.000 C 
ATOM     14  C   UNL     1      43.298   2.821  11.838  0.00  0.00    +0.000 C 
ATOM     15  C   UNL     1      43.875   4.107  12.415  0.00  0.00    +0.000 C 
ATOM     16  C   UNL     1      44.501   4.832  11.226  0.00  0.00    +0.000 C 
BRANCH  12  18
ATOM     17  N   UNL     1      45.426   4.323   7.866  0.00  0.00    +0.000 NA
ATOM     18  C   UNL     1      45.261   4.051   8.985  0.00  0.00    +0.000 C 
ENDBRANCH  12  18
ENDBRANCH   8  16
ENDBRANCH   7  10
ENDBRANCH   1   7
BRANCH   4  19
ATOM     19  C   UNL     1      48.844   4.884  18.764  0.00  0.00    +0.000 C 
BRANCH  19  20
ATOM     20  N   UNL     1      50.038   4.085  18.861  0.00  0.00    +0.000 N 
ATOM     21  C   UNL     1      51.281   4.663  18.959  0.00  0.00    +0.000 C 
ATOM     22  O   UNL     1      51.434   5.880  19.020  0.00  0.00    +0.000 OA
ATOM     23  H   UNL     1      49.966   3.122  18.552  0.00  0.00    +0.000 HD
BRANCH  21  24
ATOM     24  C   UNL     1      52.420   3.741  19.058  0.00  0.00    +0.000 A 
ATOM     25  C   UNL     1      53.487   4.040  19.895  0.00  0.00    +0.000 A 
ATOM     26  S   UNL     1      54.689   2.830  19.927  0.00  0.00    +0.000 S 
ATOM     27  C   UNL     1      53.853   1.890  18.783  0.00  0.00    +0.000 A 
ATOM     28  N   UNL     1      54.360   0.707  18.339  0.00  0.00    +0.000 NA
ATOM     29  C   UNL     1      53.634   0.115  17.451  0.00  0.00    +0.000 A 
ATOM     30  N   UNL     1      52.445   0.590  16.973  0.00  0.00    +0.000 N 
ATOM     31  C   UNL     1      51.878   1.765  17.410  0.00  0.00    +0.000 A 
ATOM     32  O   UNL     1      50.787   2.137  16.995  0.00  0.00    +0.000 OA
ATOM     33  C   UNL     1      52.662   2.480  18.399  0.00  0.00    +0.000 A 
ATOM     34  H   UNL     1      51.917   0.075  16.285  0.00  0.00    +0.000 HD
ENDBRANCH  21  24
ENDBRANCH  19  20
ENDBRANCH   4  19
TORSDOF 7
ENDMDL
MODEL 8
REMARK VINA RESULT:    -6.197      6.339     10.324
REMARK INTER + INTRA:          -9.854
REMARK INTER:                  -9.001
REMARK INTRA:                  -0.853
REMARK UNBOUND:                -1.120
REMARK  Name = 
REMARK  7 active torsions:
REMARK  status: ('A' for Active; 'I' for Inactive)
REMARK    1  A    between atoms: C_2  and  C_3
REMARK    2  A    between atoms: C_7  and  C_8
REMARK    3  A    between atoms: N_10  and  C_11
REMARK    4  A    between atoms: C_11  and  C_12
REMARK    5  A    between atoms: C_15  and  C_16
REMARK    6  A    between atoms: C_16  and  N_17
REMARK    7  A    between atoms: C_18  and  C_20
REMARK                            x       y       z     vdW  Elec       q    Type
REMARK                         _______ _______ _______ _____ _____    ______ ____
ROOT
ATOM      1  C   UNL     1      48.889   6.944  13.677  0.00  0.00    +0.000 A 
ATOM      2  C   UNL     1      49.993   7.505  14.336  0.00  0.00    +0.000 A 
ATOM      3  C   UNL     1      50.969   8.211  13.621  0.00  0.00    +0.000 A 
ATOM      4  C   UNL     1      50.853   8.390  12.235  0.00  0.00    +0.000 A 
ATOM      5  C   UNL     1      49.762   7.810  11.576  0.00  0.00    +0.000 A 
ATOM      6  C   UNL     1      48.786   7.108  12.289  0.00  0.00    +0.000 A 
ENDROOT
BRANCH   1   7
ATOM      7  C   UNL     1      47.838   6.174  14.434  0.00  0.00    +0.000 C 
BRANCH   7  10
ATOM      8  C   UNL     1      46.110   4.713  13.461  0.00  0.00    +0.000 C 
ATOM      9  O   UNL     1      46.638   3.694  13.893  0.00  0.00    +0.000 OA
ATOM     10  N   UNL     1      46.630   5.971  13.662  0.00  0.00    +0.000 N 
ATOM     11  H   UNL     1      46.234   6.765  13.179  0.00  0.00    +0.000 HD
BRANCH   8  16
ATOM     12  C   UNL     1      44.958   5.359  11.308  0.00  0.00    +0.000 C 
ATOM     13  C   UNL     1      43.855   4.740  10.443  0.00  0.00    +0.000 C 
ATOM     14  C   UNL     1      43.494   3.406  11.091  0.00  0.00    +0.000 C 
ATOM     15  C   UNL     1      44.399   3.258  12.306  0.00  0.00    +0.000 C 
ATOM     16  C   UNL     1      44.806   4.683  12.677  0.00  0.00    +0.000 C 
BRANCH  12  18
ATOM     17  N   UNL     1      44.693   7.973  11.448  0.00  0.00    +0.000 NA
ATOM     18  C   UNL     1      44.826   6.819  11.394  0.00  0.00    +0.000 C 
ENDBRANCH  12  18
ENDBRANCH   8  16
ENDBRANCH   7  10
ENDBRANCH   1   7
BRANCH   4  19
ATOM     19  C   UNL     1      51.883   9.175  11.459  0.00  0.00    +0.000 C 
BRANCH  19  20
ATOM     20  N   UNL     1      52.133   8.592  10.165  0.00  0.00    +0.000 N 
ATOM     21  C   UNL     1      53.202   8.986   9.397  0.00  0.00    +0.000 C 
ATOM     22  O   UNL     1      54.022   9.811   9.790  0.00  0.00    +0.000 OA
ATOM     23  H   UNL     1      51.352   8.125   9.720  0.00  0.00    +0.000 HD
BRANCH  21  24
ATOM     24  C   UNL     1      53.353   8.311   8.100  0.00  0.00    +0.000 A 
ATOM     25  C   UNL     1      53.313   9.048   6.924  0.00  0.00    +0.000 A 
ATOM     26  S   UNL     1      53.563   8.109   5.522  0.00  0.00    +0.000 S 
ATOM     27  C   UNL     1      53.677   6.677   6.433  0.00  0.00    +0.000 A 
ATOM     28  N   UNL     1      53.868   5.472   5.829  0.00  0.00    +0.000 NA
ATOM     29  C   UNL     1      53.907   4.469   6.641  0.00  0.00    +0.000 A 
ATOM     30  N   UNL     1      53.782   4.559   7.999  0.00  0.00    +0.000 N 
ATOM     31  C   UNL     1      53.616   5.755   8.658  0.00  0.00    +0.000 A 
ATOM     32  O   UNL     1      53.556   5.804   9.881  0.00  0.00    +0.000 OA
ATOM     33  C   UNL     1      53.549   6.916   7.790  0.00  0.00    +0.000 A 
ATOM     34  H   UNL     1      53.832   3.738   8.582  0.00  0.00    +0.000 HD
ENDBRANCH  21  24
ENDBRANCH  19  20
ENDBRANCH   4  19
TORSDOF 7
ENDMDL
MODEL 9
REMARK VINA RESULT:    -6.160      4.540      9.700
REMARK INTER + INTRA:          -9.801
REMARK INTER:                  -8.807
REMARK INTRA:                  -0.994
REMARK UNBOUND:                -1.120
REMARK  Name = 
REMARK  7 active torsions:
REMARK  status: ('A' for Active; 'I' for Inactive)
REMARK    1  A    between atoms: C_2  and  C_3
REMARK    2  A    between atoms: C_7  and  C_8
REMARK    3  A    between atoms: N_10  and  C_11
REMARK    4  A    between atoms: C_11  and  C_12
REMARK    5  A    between atoms: C_15  and  C_16
REMARK    6  A    between atoms: C_16  and  N_17
REMARK    7  A    between atoms: C_18  and  C_20
REMARK                            x       y       z     vdW  Elec       q    Type
REMARK                         _______ _______ _______ _____ _____    ______ ____
ROOT
ATOM      1  C   UNL     1      46.526   8.231  11.998  0.00  0.00    +0.000 A 
ATOM      2  C   UNL     1      47.385   7.147  11.771  0.00  0.00    +0.000 A 
ATOM      3  C   UNL     1      48.650   7.099  12.372  0.00  0.00    +0.000 A 
ATOM      4  C   UNL     1      49.076   8.123  13.228  0.00  0.00    +0.000 A 
ATOM      5  C   UNL     1      48.225   9.217  13.436  0.00  0.00    +0.000 A 
ATOM      6  C   UNL     1      46.962   9.264  12.839  0.00  0.00    +0.000 A 
ENDROOT
BRANCH   1   7
ATOM      7  C   UNL     1      45.167   8.299  11.348  0.00  0.00    +0.000 C 
BRANCH   7  10
ATOM      8  C   UNL     1      44.260   6.045  11.758  0.00  0.00    +0.000 C 
ATOM      9  O   UNL     1      44.245   6.204  12.974  0.00  0.00    +0.000 OA
ATOM     10  N   UNL     1      44.707   7.007  10.882  0.00  0.00    +0.000 N 
ATOM     11  H   UNL     1      44.823   6.786   9.903  0.00  0.00    +0.000 HD
BRANCH   8  16
ATOM     12  C   UNL     1      44.917   3.936  10.534  0.00  0.00    +0.000 C 
ATOM     13  C   UNL     1      44.376   2.503  10.480  0.00  0.00    +0.000 C 
ATOM     14  C   UNL     1      43.224   2.437  11.479  0.00  0.00    +0.000 C 
ATOM     15  C   UNL     1      43.121   3.819  12.110  0.00  0.00    +0.000 C 
ATOM     16  C   UNL     1      43.759   4.769  11.098  0.00  0.00    +0.000 C 
BRANCH  12  18
ATOM     17  N   UNL     1      45.698   4.799   8.175  0.00  0.00    +0.000 NA
ATOM     18  C   UNL     1      45.343   4.405   9.209  0.00  0.00    +0.000 C 
ENDBRANCH  12  18
ENDBRANCH   8  16
ENDBRANCH   7  10
ENDBRANCH   1   7
BRANCH   4  19
ATOM     19  C   UNL     1      50.424   8.068  13.905  0.00  0.00    +0.000 C 
BRANCH  19  20
ATOM     20  N   UNL     1      50.429   7.142  15.008  0.00  0.00    +0.000 N 
ATOM     21  C   UNL     1      50.078   7.538  16.277  0.00  0.00    +0.000 C 
ATOM     22  O   UNL     1      49.697   8.679  16.525  0.00  0.00    +0.000 OA
ATOM     23  H   UNL     1      50.976   6.298  14.890  0.00  0.00    +0.000 HD
BRANCH  21  24
ATOM     24  C   UNL     1      50.116   6.498  17.314  0.00  0.00    +0.000 A 
ATOM     25  C   UNL     1      50.991   6.617  18.386  0.00  0.00    +0.000 A 
ATOM     26  S   UNL     1      50.856   5.349  19.521  0.00  0.00    +0.000 S 
ATOM     27  C   UNL     1      49.663   4.570  18.592  0.00  0.00    +0.000 A 
ATOM     28  N   UNL     1      49.122   3.387  18.992  0.00  0.00    +0.000 NA
ATOM     29  C   UNL     1      48.250   2.896  18.177  0.00  0.00    +0.000 A 
ATOM     30  N   UNL     1      47.862   3.482  17.004  0.00  0.00    +0.000 N 
ATOM     31  C   UNL     1      48.358   4.690  16.571  0.00  0.00    +0.000 A 
ATOM     32  O   UNL     1      47.952   5.210  15.538  0.00  0.00    +0.000 OA
ATOM     33  C   UNL     1      49.356   5.279  17.444  0.00  0.00    +0.000 A 
ATOM     34  H   UNL     1      47.166   3.054  16.413  0.00  0.00    +0.000 HD
ENDBRANCH  21  24
ENDBRANCH  19  20
ENDBRANCH   4  19
TORSDOF 7
ENDMDL
