MODEL 1
REMARK VINA RESULT:    -7.932      0.000      0.000
REMARK INTER + INTRA:          -9.896
REMARK INTER:                  -9.555
REMARK INTRA:                  -0.341
REMARK UNBOUND:                -0.341
REMARK  Name = 
REMARK  4 active torsions:
REMARK  status: ('A' for Active; 'I' for Inactive)
REMARK    1  A    between atoms: N_1  and  C_2
REMARK    2  A    between atoms: C_2  and  C_3
REMARK    3  A    between atoms: C_6  and  C_7
REMARK    4  A    between atoms: C_7  and  N_8
REMARK                            x       y       z     vdW  Elec       q    Type
REMARK                         _______ _______ _______ _____ _____    ______ ____
ROOT
ATOM      1  C   UNL     1      46.655   2.750   6.849  0.00  0.00    +0.000 A 
ATOM      2  C   UNL     1      46.010   3.931   7.250  0.00  0.00    +0.000 A 
ATOM      3  C   UNL     1      45.185   3.948   8.376  0.00  0.00    +0.000 A 
ATOM      4  C   UNL     1      44.982   2.779   9.126  0.00  0.00    +0.000 A 
ATOM      5  C   UNL     1      45.633   1.601   8.735  0.00  0.00    +0.000 A 
ATOM      6  C   UNL     1      46.467   1.592   7.614  0.00  0.00    +0.000 A 
ENDROOT
BRANCH   1   7
ATOM      7  C   UNL     1      47.498   2.723   5.602  0.00  0.00    +0.000 C 
BRANCH   7   8
ATOM      8  N   UNL     1      48.552   1.713   5.665  0.00  0.00    +0.000 NA
ATOM      9  H   UNL     1      48.842   1.605   6.636  0.00  0.00    +0.000 HD
ATOM     10  H   UNL     1      49.364   2.057   5.158  0.00  0.00    +0.000 HD
ENDBRANCH   7   8
ENDBRANCH   1   7
BRANCH   4  11
ATOM     11  C   UNL     1      44.080   2.788  10.333  0.00  0.00    +0.000 C 
BRANCH  11  12
ATOM     12  N   UNL     1      44.182   4.017  11.118  0.00  0.00    +0.000 N 
ATOM     13  C   UNL     1      43.516   5.181  10.810  0.00  0.00    +0.000 A 
ATOM     14  C   UNL     1      44.039   6.192  11.578  0.00  0.00    +0.000 A 
ATOM     15  C   UNL     1      45.111   5.647  12.331  0.00  0.00    +0.000 A 
ATOM     16  C   UNL     1      46.086   6.212  13.176  0.00  0.00    +0.000 A 
ATOM     17  C   UNL     1      47.023   5.381  13.796  0.00  0.00    +0.000 A 
ATOM     18  C   UNL     1      46.960   4.000  13.631  0.00  0.00    +0.000 A 
ATOM     19  C   UNL     1      46.005   3.417  12.791  0.00  0.00    +0.000 A 
ATOM     20  C   UNL     1      45.120   4.265  12.108  0.00  0.00    +0.000 A 
ENDBRANCH  11  12
ENDBRANCH   4  11
TORSDOF 4
ENDMDL
MODEL 2
REMARK VINA RESULT:    -7.062      1.319      2.410
REMARK INTER + INTRA:          -8.848
REMARK INTER:                  -8.284
REMARK INTRA:                  -0.564
REMARK UNBOUND:                -0.341
REMARK  Name = 
REMARK  4 active torsions:
REMARK  status: ('A' for Active; 'I' for Inactive)
REMARK    1  A    between atoms: N_1  and  C_2
REMARK    2  A    between atoms: C_2  and  C_3
REMARK    3  A    between atoms: C_6  and  C_7
REMARK    4  A    between atoms: C_7  and  N_8
REMARK                            x       y       z     vdW  Elec       q    Type
REMARK                         _______ _______ _______ _____ _____    ______ ____
ROOT
ATOM      1  C   UNL     1      46.422   2.605   7.319  0.00  0.00    +0.000 A 
ATOM      2  C   UNL     1      45.836   1.890   8.375  0.00  0.00    +0.000 A 
ATOM      3  C   UNL     1      45.240   2.559   9.446  0.00  0.00    +0.000 A 
ATOM      4  C   UNL     1      45.222   3.962   9.486  0.00  0.00    +0.000 A 
ATOM      5  C   UNL     1      45.797   4.679   8.427  0.00  0.00    +0.000 A 
ATOM      6  C   UNL     1      46.381   4.004   7.352  0.00  0.00    +0.000 A 
ENDROOT
BRANCH   1   7
ATOM      7  C   UNL     1      47.114   1.880   6.194  0.00  0.00    +0.000 C 
BRANCH   7   8
ATOM      8  N   UNL     1      48.570   1.957   6.295  0.00  0.00    +0.000 NA
ATOM      9  H   UNL     1      48.831   1.915   7.279  0.00  0.00    +0.000 HD
ATOM     10  H   UNL     1      48.872   2.867   5.956  0.00  0.00    +0.000 HD
ENDBRANCH   7   8
ENDBRANCH   1   7
BRANCH   4  11
ATOM     11  C   UNL     1      44.594   4.689  10.647  0.00  0.00    +0.000 C 
BRANCH  11  12
ATOM     12  N   UNL     1      45.456   4.742  11.826  0.00  0.00    +0.000 N 
ATOM     13  C   UNL     1      45.280   3.955  12.941  0.00  0.00    +0.000 A 
ATOM     14  C   UNL     1      46.082   4.444  13.943  0.00  0.00    +0.000 A 
ATOM     15  C   UNL     1      46.718   5.613  13.451  0.00  0.00    +0.000 A 
ATOM     16  C   UNL     1      47.534   6.595  14.046  0.00  0.00    +0.000 A 
ATOM     17  C   UNL     1      48.027   7.644  13.266  0.00  0.00    +0.000 A 
ATOM     18  C   UNL     1      47.767   7.690  11.899  0.00  0.00    +0.000 A 
ATOM     19  C   UNL     1      46.954   6.729  11.287  0.00  0.00    +0.000 A 
ATOM     20  C   UNL     1      46.395   5.725  12.093  0.00  0.00    +0.000 A 
ENDBRANCH  11  12
ENDBRANCH   4  11
TORSDOF 4
ENDMDL
MODEL 3
REMARK VINA RESULT:    -6.930      1.873      5.923
REMARK INTER + INTRA:          -8.689
REMARK INTER:                  -8.049
REMARK INTRA:                  -0.640
REMARK UNBOUND:                -0.341
REMARK  Name = 
REMARK  4 active torsions:
REMARK  status: ('A' for Active; 'I' for Inactive)
REMARK    1  A    between atoms: N_1  and  C_2
REMARK    2  A    between atoms: C_2  and  C_3
REMARK    3  A    between atoms: C_6  and  C_7
REMARK    4  A    between atoms: C_7  and  N_8
REMARK                            x       y       z     vdW  Elec       q    Type
REMARK                         _______ _______ _______ _____ _____    ______ ____
ROOT
ATOM      1  C   UNL     1      47.157   5.945  13.071  0.00  0.00    +0.000 A 
ATOM      2  C   UNL     1      46.338   4.825  13.288  0.00  0.00    +0.000 A 
ATOM      3  C   UNL     1      45.393   4.438  12.337  0.00  0.00    +0.000 A 
ATOM      4  C   UNL     1      45.241   5.164  11.147  0.00  0.00    +0.000 A 
ATOM      5  C   UNL     1      46.065   6.276  10.922  0.00  0.00    +0.000 A 
ATOM      6  C   UNL     1      47.018   6.654  11.872  0.00  0.00    +0.000 A 
ENDROOT
BRANCH   1   7
ATOM      7  C   UNL     1      48.136   6.394  14.124  0.00  0.00    +0.000 C 
BRANCH   7   8
ATOM      8  N   UNL     1      49.429   6.771  13.556  0.00  0.00    +0.000 NA
ATOM      9  H   UNL     1      49.462   7.786  13.468  0.00  0.00    +0.000 HD
ATOM     10  H   UNL     1      49.491   6.397  12.613  0.00  0.00    +0.000 HD
ENDBRANCH   7   8
ENDBRANCH   1   7
BRANCH   4  11
ATOM     11  C   UNL     1      44.211   4.759  10.125  0.00  0.00    +0.000 C 
BRANCH  11  12
ATOM     12  N   UNL     1      44.551   3.521   9.426  0.00  0.00    +0.000 N 
ATOM     13  C   UNL     1      44.104   2.277   9.809  0.00  0.00    +0.000 A 
ATOM     14  C   UNL     1      44.818   1.332   9.114  0.00  0.00    +0.000 A 
ATOM     15  C   UNL     1      45.785   2.014   8.332  0.00  0.00    +0.000 A 
ATOM     16  C   UNL     1      46.862   1.585   7.533  0.00  0.00    +0.000 A 
ATOM     17  C   UNL     1      47.642   2.531   6.863  0.00  0.00    +0.000 A 
ATOM     18  C   UNL     1      47.325   3.885   6.934  0.00  0.00    +0.000 A 
ATOM     19  C   UNL     1      46.263   4.336   7.726  0.00  0.00    +0.000 A 
ATOM     20  C   UNL     1      45.536   3.386   8.461  0.00  0.00    +0.000 A 
ENDBRANCH  11  12
ENDBRANCH   4  11
TORSDOF 4
ENDMDL
MODEL 4
REMARK VINA RESULT:    -6.520      2.036      5.843
REMARK INTER + INTRA:          -8.195
REMARK INTER:                  -7.849
REMARK INTRA:                  -0.346
REMARK UNBOUND:                -0.341
REMARK  Name = 
REMARK  4 active torsions:
REMARK  status: ('A' for Active; 'I' for Inactive)
REMARK    1  A    between atoms: N_1  and  C_2
REMARK    2  A    between atoms: C_2  and  C_3
REMARK    3  A    between atoms: C_6  and  C_7
REMARK    4  A    between atoms: C_7  and  N_8
REMARK                            x       y       z     vdW  Elec       q    Type
REMARK                         _______ _______ _______ _____ _____    ______ ____
ROOT
ATOM      1  C   UNL     1      47.350   6.773  13.562  0.00  0.00    +0.000 A 
ATOM      2  C   UNL     1      46.552   7.795  13.025  0.00  0.00    +0.000 A 
ATOM      3  C   UNL     1      45.445   7.493  12.229  0.00  0.00    +0.000 A 
ATOM      4  C   UNL     1      45.114   6.159  11.948  0.00  0.00    +0.000 A 
ATOM      5  C   UNL     1      45.903   5.136  12.492  0.00  0.00    +0.000 A 
ATOM      6  C   UNL     1      47.003   5.443  13.298  0.00  0.00    +0.000 A 
ENDROOT
BRANCH   1   7
ATOM      7  C   UNL     1      48.576   7.105  14.373  0.00  0.00    +0.000 C 
BRANCH   7   8
ATOM      8  N   UNL     1      49.806   6.993  13.591  0.00  0.00    +0.000 NA
ATOM      9  H   UNL     1      50.465   7.698  13.917  0.00  0.00    +0.000 HD
ATOM     10  H   UNL     1      49.597   7.219  12.622  0.00  0.00    +0.000 HD
ENDBRANCH   7   8
ENDBRANCH   1   7
BRANCH   4  11
ATOM     11  C   UNL     1      43.930   5.828  11.077  0.00  0.00    +0.000 C 
BRANCH  11  12
ATOM     12  N   UNL     1      43.921   4.439  10.623  0.00  0.00    +0.000 N 
ATOM     13  C   UNL     1      43.374   3.401  11.343  0.00  0.00    +0.000 A 
ATOM     14  C   UNL     1      43.772   2.221  10.765  0.00  0.00    +0.000 A 
ATOM     15  C   UNL     1      44.652   2.541   9.699  0.00  0.00    +0.000 A 
ATOM     16  C   UNL     1      45.459   1.765   8.844  0.00  0.00    +0.000 A 
ATOM     17  C   UNL     1      46.222   2.397   7.859  0.00  0.00    +0.000 A 
ATOM     18  C   UNL     1      46.141   3.775   7.679  0.00  0.00    +0.000 A 
ATOM     19  C   UNL     1      45.351   4.567   8.520  0.00  0.00    +0.000 A 
ATOM     20  C   UNL     1      44.652   3.933   9.560  0.00  0.00    +0.000 A 
ENDBRANCH  11  12
ENDBRANCH   4  11
TORSDOF 4
ENDMDL
MODEL 5
REMARK VINA RESULT:    -5.934      2.637      6.333
REMARK INTER + INTRA:          -7.489
REMARK INTER:                  -6.948
REMARK INTRA:                  -0.541
REMARK UNBOUND:                -0.341
REMARK  Name = 
REMARK  4 active torsions:
REMARK  status: ('A' for Active; 'I' for Inactive)
REMARK    1  A    between atoms: N_1  and  C_2
REMARK    2  A    between atoms: C_2  and  C_3
REMARK    3  A    between atoms: C_6  and  C_7
REMARK    4  A    between atoms: C_7  and  N_8
REMARK                            x       y       z     vdW  Elec       q    Type
REMARK                         _______ _______ _______ _____ _____    ______ ____
ROOT
ATOM      1  C   UNL     1      48.172   7.449  14.108  0.00  0.00    +0.000 A 
ATOM      2  C   UNL     1      48.063   6.329  13.270  0.00  0.00    +0.000 A 
ATOM      3  C   UNL     1      47.015   6.221  12.354  0.00  0.00    +0.000 A 
ATOM      4  C   UNL     1      46.047   7.232  12.260  0.00  0.00    +0.000 A 
ATOM      5  C   UNL     1      46.158   8.358  13.088  0.00  0.00    +0.000 A 
ATOM      6  C   UNL     1      47.217   8.467  13.995  0.00  0.00    +0.000 A 
ENDROOT
BRANCH   1   7
ATOM      7  C   UNL     1      49.272   7.535  15.134  0.00  0.00    +0.000 C 
BRANCH   7   8
ATOM      8  N   UNL     1      49.581   6.236  15.727  0.00  0.00    +0.000 NA
ATOM      9  H   UNL     1      48.751   5.648  15.677  0.00  0.00    +0.000 HD
ATOM     10  H   UNL     1      49.782   6.368  16.715  0.00  0.00    +0.000 HD
ENDBRANCH   7   8
ENDBRANCH   1   7
BRANCH   4  11
ATOM     11  C   UNL     1      44.904   7.113  11.285  0.00  0.00    +0.000 C 
BRANCH  11  12
ATOM     12  N   UNL     1      44.261   5.802  11.310  0.00  0.00    +0.000 N 
ATOM     13  C   UNL     1      43.552   5.316  12.385  0.00  0.00    +0.000 A 
ATOM     14  C   UNL     1      43.322   3.978  12.179  0.00  0.00    +0.000 A 
ATOM     15  C   UNL     1      43.973   3.612  10.974  0.00  0.00    +0.000 A 
ATOM     16  C   UNL     1      44.197   2.379  10.330  0.00  0.00    +0.000 A 
ATOM     17  C   UNL     1      44.881   2.354   9.112  0.00  0.00    +0.000 A 
ATOM     18  C   UNL     1      45.288   3.539   8.506  0.00  0.00    +0.000 A 
ATOM     19  C   UNL     1      45.083   4.775   9.129  0.00  0.00    +0.000 A 
ATOM     20  C   UNL     1      44.467   4.785  10.392  0.00  0.00    +0.000 A 
ENDBRANCH  11  12
ENDBRANCH   4  11
TORSDOF 4
ENDMDL
MODEL 6
REMARK VINA RESULT:    -5.687      3.538      6.032
REMARK INTER + INTRA:          -7.192
REMARK INTER:                  -6.698
REMARK INTRA:                  -0.494
REMARK UNBOUND:                -0.341
REMARK  Name = 
REMARK  4 active torsions:
REMARK  status: ('A' for Active; 'I' for Inactive)
REMARK    1  A    between atoms: N_1  and  C_2
REMARK    2  A    between atoms: C_2  and  C_3
REMARK    3  A    between atoms: C_6  and  C_7
REMARK    4  A    between atoms: C_7  and  N_8
REMARK                            x       y       z     vdW  Elec       q    Type
REMARK                         _______ _______ _______ _____ _____    ______ ____
ROOT
ATOM      1  C   UNL     1      44.809   3.950  11.463  0.00  0.00    +0.000 A 
ATOM      2  C   UNL     1      45.507   3.637  12.641  0.00  0.00    +0.000 A 
ATOM      3  C   UNL     1      46.291   4.597  13.283  0.00  0.00    +0.000 A 
ATOM      4  C   UNL     1      46.399   5.894  12.759  0.00  0.00    +0.000 A 
ATOM      5  C   UNL     1      45.695   6.213  11.590  0.00  0.00    +0.000 A 
ATOM      6  C   UNL     1      44.902   5.252  10.956  0.00  0.00    +0.000 A 
ENDROOT
BRANCH   1   7
ATOM      7  C   UNL     1      44.011   2.896  10.742  0.00  0.00    +0.000 C 
BRANCH   7   8
ATOM      8  N   UNL     1      43.040   2.240  11.615  0.00  0.00    +0.000 NA
ATOM      9  H   UNL     1      42.831   1.318  11.235  0.00  0.00    +0.000 HD
ATOM     10  H   UNL     1      42.170   2.766  11.588  0.00  0.00    +0.000 HD
ENDBRANCH   7   8
ENDBRANCH   1   7
BRANCH   4  11
ATOM     11  C   UNL     1      47.256   6.929  13.440  0.00  0.00    +0.000 C 
BRANCH  11  12
ATOM     12  N   UNL     1      48.176   7.604  12.527  0.00  0.00    +0.000 N 
ATOM     13  C   UNL     1      49.435   7.140  12.225  0.00  0.00    +0.000 A 
ATOM     14  C   UNL     1      50.113   8.135  11.566  0.00  0.00    +0.000 A 
ATOM     15  C   UNL     1      49.269   9.275  11.524  0.00  0.00    +0.000 A 
ATOM     16  C   UNL     1      49.458  10.605  11.104  0.00  0.00    +0.000 A 
ATOM     17  C   UNL     1      48.395  11.509  11.182  0.00  0.00    +0.000 A 
ATOM     18  C   UNL     1      47.141  11.087  11.614  0.00  0.00    +0.000 A 
ATOM     19  C   UNL     1      46.930   9.772  12.042  0.00  0.00    +0.000 A 
ATOM     20  C   UNL     1      48.025   8.892  12.038  0.00  0.00    +0.000 A 
ENDBRANCH  11  12
ENDBRANCH   4  11
TORSDOF 4
ENDMDL
MODEL 7
REMARK VINA RESULT:    -5.574      4.338      7.760
REMARK INTER + INTRA:          -7.055
REMARK INTER:                  -6.647
REMARK INTRA:                  -0.407
REMARK UNBOUND:                -0.341
REMARK  Name = 
REMARK  4 active torsions:
REMARK  status: ('A' for Active; 'I' for Inactive)
REMARK    1  A    between atoms: N_1  and  C_2
REMARK    2  A    between atoms: C_2  and  C_3
REMARK    3  A    between atoms: C_6  and  C_7
REMARK    4  A    between atoms: C_7  and  N_8
REMARK                            x       y       z     vdW  Elec       q    Type
REMARK                         _______ _______ _______ _____ _____    ______ ____
ROOT
ATOM      1  C   UNL     1      50.771   2.416  17.381  0.00  0.00    +0.000 A 
ATOM      2  C   UNL     1      50.674   3.784  17.682  0.00  0.00    +0.000 A 
ATOM      3  C   UNL     1      49.559   4.525  17.285  0.00  0.00    +0.000 A 
ATOM      4  C   UNL     1      48.516   3.914  16.572  0.00  0.00    +0.000 A 
ATOM      5  C   UNL     1      48.605   2.546  16.279  0.00  0.00    +0.000 A 
ATOM      6  C   UNL     1      49.718   1.806  16.689  0.00  0.00    +0.000 A 
ENDROOT
BRANCH   1   7
ATOM      7  C   UNL     1      52.001   1.634  17.760  0.00  0.00    +0.000 C 
BRANCH   7   8
ATOM      8  N   UNL     1      51.694   0.246  18.098  0.00  0.00    +0.000 NA
ATOM      9  H   UNL     1      52.497  -0.159  18.577  0.00  0.00    +0.000 HD
ATOM     10  H   UNL     1      51.577  -0.281  17.236  0.00  0.00    +0.000 HD
ENDBRANCH   7   8
ENDBRANCH   1   7
BRANCH   4  11
ATOM     11  C   UNL     1      47.318   4.713  16.128  0.00  0.00    +0.000 C 
BRANCH  11  12
ATOM     12  N   UNL     1      47.519   5.385  14.846  0.00  0.00    +0.000 N 
ATOM     13  C   UNL     1      48.268   6.529  14.689  0.00  0.00    +0.000 A 
ATOM     14  C   UNL     1      48.027   7.031  13.434  0.00  0.00    +0.000 A 
ATOM     15  C   UNL     1      47.043   6.210  12.825  0.00  0.00    +0.000 A 
ATOM     16  C   UNL     1      46.317   6.299  11.622  0.00  0.00    +0.000 A 
ATOM     17  C   UNL     1      45.404   5.294  11.293  0.00  0.00    +0.000 A 
ATOM     18  C   UNL     1      45.253   4.181  12.116  0.00  0.00    +0.000 A 
ATOM     19  C   UNL     1      45.959   4.073  13.319  0.00  0.00    +0.000 A 
ATOM     20  C   UNL     1      46.813   5.127  13.682  0.00  0.00    +0.000 A 
ENDBRANCH  11  12
ENDBRANCH   4  11
TORSDOF 4
ENDMDL
MODEL 8
REMARK VINA RESULT:    -5.442      3.558      6.864
REMARK INTER + INTRA:          -6.897
REMARK INTER:                  -6.494
REMARK INTRA:                  -0.403
REMARK UNBOUND:                -0.341
REMARK  Name = 
REMARK  4 active torsions:
REMARK  status: ('A' for Active; 'I' for Inactive)
REMARK    1  A    between atoms: N_1  and  C_2
REMARK    2  A    between atoms: C_2  and  C_3
REMARK    3  A    between atoms: C_6  and  C_7
REMARK    4  A    between atoms: C_7  and  N_8
REMARK                            x       y       z     vdW  Elec       q    Type
REMARK                         _______ _______ _______ _____ _____    ______ ____
ROOT
ATOM      1  C   UNL     1      47.749   4.720  16.375  0.00  0.00    +0.000 A 
ATOM      2  C   UNL     1      47.070   4.176  15.273  0.00  0.00    +0.000 A 
ATOM      3  C   UNL     1      47.129   4.794  14.023  0.00  0.00    +0.000 A 
ATOM      4  C   UNL     1      47.866   5.975  13.846  0.00  0.00    +0.000 A 
ATOM      5  C   UNL     1      48.554   6.515  14.942  0.00  0.00    +0.000 A 
ATOM      6  C   UNL     1      48.502   5.886  16.189  0.00  0.00    +0.000 A 
ENDROOT
BRANCH   1   7
ATOM      7  C   UNL     1      47.637   4.082  17.735  0.00  0.00    +0.000 C 
BRANCH   7   8
ATOM      8  N   UNL     1      46.710   2.953  17.744  0.00  0.00    +0.000 NA
ATOM      9  H   UNL     1      46.382   2.808  18.698  0.00  0.00    +0.000 HD
ATOM     10  H   UNL     1      47.218   2.112  17.483  0.00  0.00    +0.000 HD
ENDBRANCH   7   8
ENDBRANCH   1   7
BRANCH   4  11
ATOM     11  C   UNL     1      47.919   6.654  12.502  0.00  0.00    +0.000 C 
BRANCH  11  12
ATOM     12  N   UNL     1      46.616   7.140  12.052  0.00  0.00    +0.000 N 
ATOM     13  C   UNL     1      46.117   8.387  12.354  0.00  0.00    +0.000 A 
ATOM     14  C   UNL     1      44.788   8.412  12.011  0.00  0.00    +0.000 A 
ATOM     15  C   UNL     1      44.439   7.116  11.552  0.00  0.00    +0.000 A 
ATOM     16  C   UNL     1      43.218   6.511  11.194  0.00  0.00    +0.000 A 
ATOM     17  C   UNL     1      43.210   5.184  10.757  0.00  0.00    +0.000 A 
ATOM     18  C   UNL     1      44.403   4.480  10.616  0.00  0.00    +0.000 A 
ATOM     19  C   UNL     1      45.627   5.058  10.970  0.00  0.00    +0.000 A 
ATOM     20  C   UNL     1      45.617   6.364  11.487  0.00  0.00    +0.000 A 
ENDBRANCH  11  12
ENDBRANCH   4  11
TORSDOF 4
ENDMDL
MODEL 9
REMARK VINA RESULT:    -5.267      5.323      8.326
REMARK INTER + INTRA:          -6.686
REMARK INTER:                  -6.059
REMARK INTRA:                  -0.627
REMARK UNBOUND:                -0.341
REMARK  Name = 
REMARK  4 active torsions:
REMARK  status: ('A' for Active; 'I' for Inactive)
REMARK    1  A    between atoms: N_1  and  C_2
REMARK    2  A    between atoms: C_2  and  C_3
REMARK    3  A    between atoms: C_6  and  C_7
REMARK    4  A    between atoms: C_7  and  N_8
REMARK                            x       y       z     vdW  Elec       q    Type
REMARK                         _______ _______ _______ _____ _____    ______ ____
ROOT
ATOM      1  C   UNL     1      51.327   2.362  17.470  0.00  0.00    +0.000 A 
ATOM      2  C   UNL     1      50.104   1.815  17.049  0.00  0.00    +0.000 A 
ATOM      3  C   UNL     1      48.981   2.626  16.878  0.00  0.00    +0.000 A 
ATOM      4  C   UNL     1      49.053   4.004  17.131  0.00  0.00    +0.000 A 
ATOM      5  C   UNL     1      50.275   4.555  17.541  0.00  0.00    +0.000 A 
ATOM      6  C   UNL     1      51.401   3.741  17.698  0.00  0.00    +0.000 A 
ENDROOT
BRANCH   1   7
ATOM      7  C   UNL     1      52.521   1.475  17.707  0.00  0.00    +0.000 C 
BRANCH   7   8
ATOM      8  N   UNL     1      52.144   0.160  18.221  0.00  0.00    +0.000 NA
ATOM      9  H   UNL     1      52.961  -0.267  18.654  0.00  0.00    +0.000 HD
ATOM     10  H   UNL     1      51.889  -0.435  17.436  0.00  0.00    +0.000 HD
ENDBRANCH   7   8
ENDBRANCH   1   7
BRANCH   4  11
ATOM     11  C   UNL     1      47.839   4.881  16.964  0.00  0.00    +0.000 C 
BRANCH  11  12
ATOM     12  N   UNL     1      47.577   5.241  15.572  0.00  0.00    +0.000 N 
ATOM     13  C   UNL     1      46.781   4.503  14.726  0.00  0.00    +0.000 A 
ATOM     14  C   UNL     1      46.968   4.966  13.447  0.00  0.00    +0.000 A 
ATOM     15  C   UNL     1      47.967   5.973  13.497  0.00  0.00    +0.000 A 
ATOM     16  C   UNL     1      48.656   6.704  12.510  0.00  0.00    +0.000 A 
ATOM     17  C   UNL     1      49.598   7.662  12.895  0.00  0.00    +0.000 A 
ATOM     18  C   UNL     1      49.813   7.937  14.243  0.00  0.00    +0.000 A 
ATOM     19  C   UNL     1      49.145   7.220  15.242  0.00  0.00    +0.000 A 
ATOM     20  C   UNL     1      48.261   6.203  14.846  0.00  0.00    +0.000 A 
ENDBRANCH  11  12
ENDBRANCH   4  11
TORSDOF 4
ENDMDL
