MODEL 1
REMARK VINA RESULT:    -7.761      0.000      0.000
REMARK INTER + INTRA:          -9.485
REMARK INTER:                  -9.122
REMARK INTRA:                  -0.363
REMARK UNBOUND:                -0.363
REMARK  Name = 
REMARK  3 active torsions:
REMARK  status: ('A' for Active; 'I' for Inactive)
REMARK    1  A    between atoms: C_2  and  C_4
REMARK    2  A    between atoms: N_8  and  C_9
REMARK    3  A    between atoms: C_9  and  C_10
REMARK                            x       y       z     vdW  Elec       q    Type
REMARK                         _______ _______ _______ _____ _____    ______ ____
ROOT
ATOM      1  C   UNL     1      46.550   4.678  13.397  0.00  0.00    +0.000 A 
ATOM      2  C   UNL     1      46.812   5.813  12.635  0.00  0.00    +0.000 A 
ATOM      3  C   UNL     1      46.191   5.950  11.394  0.00  0.00    +0.000 A 
ATOM      4  C   UNL     1      45.356   4.940  10.919  0.00  0.00    +0.000 A 
ATOM      5  N   UNL     1      44.820   5.099   9.640  0.00  0.00    +0.000 N 
ATOM      6  N   UNL     1      45.098   3.836  11.645  0.00  0.00    +0.000 NA
ATOM      7  C   UNL     1      45.695   3.726  12.861  0.00  0.00    +0.000 A 
ATOM      8  H   UNL     1      44.174   5.881   9.629  0.00  0.00    +0.000 HD
ENDROOT
BRANCH   1  10
ATOM      9  N   UNL     1      47.474   5.515  15.488  0.00  0.00    +0.000 N 
ATOM     10  C   UNL     1      47.166   4.428  14.718  0.00  0.00    +0.000 C 
ATOM     11  O   UNL     1      47.372   3.291  15.120  0.00  0.00    +0.000 OA
ATOM     12  H   UNL     1      47.819   5.321  16.422  0.00  0.00    +0.000 HD
ATOM     13  H   UNL     1      47.128   6.445  15.301  0.00  0.00    +0.000 HD
ENDBRANCH   1  10
BRANCH   5  14
ATOM     14  C   UNL     1      44.255   3.899   9.034  0.00  0.00    +0.000 C 
BRANCH  14  15
ATOM     15  C   UNL     1      45.340   3.114   8.336  0.00  0.00    +0.000 A 
ATOM     16  C   UNL     1      46.263   3.700   7.461  0.00  0.00    +0.000 A 
ATOM     17  C   UNL     1      47.278   2.933   6.898  0.00  0.00    +0.000 A 
ATOM     18  C   UNL     1      47.353   1.596   7.241  0.00  0.00    +0.000 A 
ATOM     19  N   UNL     1      46.497   0.992   8.094  0.00  0.00    +0.000 NA
ATOM     20  C   UNL     1      45.520   1.764   8.625  0.00  0.00    +0.000 A 
ENDBRANCH  14  15
ENDBRANCH   5  14
TORSDOF 3
ENDMDL
MODEL 2
REMARK VINA RESULT:    -7.587      2.608      6.103
REMARK INTER + INTRA:          -9.281
REMARK INTER:                  -9.009
REMARK INTRA:                  -0.273
REMARK UNBOUND:                -0.363
REMARK  Name = 
REMARK  3 active torsions:
REMARK  status: ('A' for Active; 'I' for Inactive)
REMARK    1  A    between atoms: C_2  and  C_4
REMARK    2  A    between atoms: N_8  and  C_9
REMARK    3  A    between atoms: C_9  and  C_10
REMARK                            x       y       z     vdW  Elec       q    Type
REMARK                         _______ _______ _______ _____ _____    ______ ____
ROOT
ATOM      1  C   UNL     1      46.518   2.615   7.419  0.00  0.00    +0.000 A 
ATOM      2  C   UNL     1      45.936   1.662   8.249  0.00  0.00    +0.000 A 
ATOM      3  C   UNL     1      45.035   2.081   9.227  0.00  0.00    +0.000 A 
ATOM      4  C   UNL     1      44.762   3.439   9.385  0.00  0.00    +0.000 A 
ATOM      5  N   UNL     1      43.907   3.805  10.426  0.00  0.00    +0.000 N 
ATOM      6  N   UNL     1      45.321   4.370   8.591  0.00  0.00    +0.000 NA
ATOM      7  C   UNL     1      46.183   3.945   7.629  0.00  0.00    +0.000 A 
ATOM      8  H   UNL     1      42.971   3.457  10.247  0.00  0.00    +0.000 HD
ENDROOT
BRANCH   1  10
ATOM      9  N   UNL     1      47.477   3.034   5.220  0.00  0.00    +0.000 N 
ATOM     10  C   UNL     1      47.497   2.281   6.360  0.00  0.00    +0.000 C 
ATOM     11  O   UNL     1      48.310   1.379   6.508  0.00  0.00    +0.000 OA
ATOM     12  H   UNL     1      48.206   2.842   4.542  0.00  0.00    +0.000 HD
ATOM     13  H   UNL     1      46.984   3.911   5.141  0.00  0.00    +0.000 HD
ENDBRANCH   1  10
BRANCH   5  14
ATOM     14  C   UNL     1      43.917   5.216  10.791  0.00  0.00    +0.000 C 
BRANCH  14  15
ATOM     15  C   UNL     1      45.103   5.511  11.680  0.00  0.00    +0.000 A 
ATOM     16  C   UNL     1      46.065   6.481  11.370  0.00  0.00    +0.000 A 
ATOM     17  C   UNL     1      47.099   6.750  12.260  0.00  0.00    +0.000 A 
ATOM     18  C   UNL     1      47.134   6.048  13.451  0.00  0.00    +0.000 A 
ATOM     19  N   UNL     1      46.219   5.119  13.801  0.00  0.00    +0.000 NA
ATOM     20  C   UNL     1      45.225   4.879  12.914  0.00  0.00    +0.000 A 
ENDBRANCH  14  15
ENDBRANCH   5  14
TORSDOF 3
ENDMDL
MODEL 3
REMARK VINA RESULT:    -7.094      1.923      2.384
REMARK INTER + INTRA:          -8.702
REMARK INTER:                  -8.466
REMARK INTRA:                  -0.236
REMARK UNBOUND:                -0.363
REMARK  Name = 
REMARK  3 active torsions:
REMARK  status: ('A' for Active; 'I' for Inactive)
REMARK    1  A    between atoms: C_2  and  C_4
REMARK    2  A    between atoms: N_8  and  C_9
REMARK    3  A    between atoms: C_9  and  C_10
REMARK                            x       y       z     vdW  Elec       q    Type
REMARK                         _______ _______ _______ _____ _____    ______ ____
ROOT
ATOM      1  C   UNL     1      45.725   6.148  12.387  0.00  0.00    +0.000 A 
ATOM      2  C   UNL     1      45.630   4.970  13.121  0.00  0.00    +0.000 A 
ATOM      3  C   UNL     1      45.405   3.771  12.446  0.00  0.00    +0.000 A 
ATOM      4  C   UNL     1      45.240   3.773  11.062  0.00  0.00    +0.000 A 
ATOM      5  N   UNL     1      44.947   2.554  10.448  0.00  0.00    +0.000 N 
ATOM      6  N   UNL     1      45.325   4.907  10.341  0.00  0.00    +0.000 NA
ATOM      7  C   UNL     1      45.564   6.065  11.011  0.00  0.00    +0.000 A 
ATOM      8  H   UNL     1      45.738   1.925  10.530  0.00  0.00    +0.000 HD
ENDROOT
BRANCH   1  10
ATOM      9  N   UNL     1      47.030   7.615  13.827  0.00  0.00    +0.000 N 
ATOM     10  C   UNL     1      45.947   7.474  13.005  0.00  0.00    +0.000 C 
ATOM     11  O   UNL     1      45.203   8.417  12.773  0.00  0.00    +0.000 OA
ATOM     12  H   UNL     1      47.211   8.550  14.176  0.00  0.00    +0.000 HD
ATOM     13  H   UNL     1      47.782   6.944  13.876  0.00  0.00    +0.000 HD
ENDBRANCH   1  10
BRANCH   5  14
ATOM     14  C   UNL     1      44.436   2.635   9.086  0.00  0.00    +0.000 C 
BRANCH  14  15
ATOM     15  C   UNL     1      45.558   2.414   8.100  0.00  0.00    +0.000 A 
ATOM     16  C   UNL     1      46.016   3.411   7.229  0.00  0.00    +0.000 A 
ATOM     17  C   UNL     1      47.096   3.164   6.388  0.00  0.00    +0.000 A 
ATOM     18  C   UNL     1      47.703   1.923   6.452  0.00  0.00    +0.000 A 
ATOM     19  N   UNL     1      47.309   0.939   7.287  0.00  0.00    +0.000 NA
ATOM     20  C   UNL     1      46.255   1.209   8.094  0.00  0.00    +0.000 A 
ENDBRANCH  14  15
ENDBRANCH   5  14
TORSDOF 3
ENDMDL
MODEL 4
REMARK VINA RESULT:    -6.256      2.849      7.077
REMARK INTER + INTRA:          -7.716
REMARK INTER:                  -7.436
REMARK INTRA:                  -0.280
REMARK UNBOUND:                -0.363
REMARK  Name = 
REMARK  3 active torsions:
REMARK  status: ('A' for Active; 'I' for Inactive)
REMARK    1  A    between atoms: C_2  and  C_4
REMARK    2  A    between atoms: N_8  and  C_9
REMARK    3  A    between atoms: C_9  and  C_10
REMARK                            x       y       z     vdW  Elec       q    Type
REMARK                         _______ _______ _______ _____ _____    ______ ____
ROOT
ATOM      1  C   UNL     1      45.164   4.272  11.499  0.00  0.00    +0.000 A 
ATOM      2  C   UNL     1      45.644   5.557  11.739  0.00  0.00    +0.000 A 
ATOM      3  C   UNL     1      46.352   5.803  12.914  0.00  0.00    +0.000 A 
ATOM      4  C   UNL     1      46.535   4.779  13.843  0.00  0.00    +0.000 A 
ATOM      5  N   UNL     1      47.190   5.101  15.033  0.00  0.00    +0.000 N 
ATOM      6  N   UNL     1      46.073   3.534  13.624  0.00  0.00    +0.000 NA
ATOM      7  C   UNL     1      45.401   3.305  12.465  0.00  0.00    +0.000 A 
ATOM      8  H   UNL     1      48.157   5.342  14.844  0.00  0.00    +0.000 HD
ENDROOT
BRANCH   1  10
ATOM      9  N   UNL     1      44.412   4.779   9.239  0.00  0.00    +0.000 N 
ATOM     10  C   UNL     1      44.389   3.908  10.292  0.00  0.00    +0.000 C 
ATOM     11  O   UNL     1      43.768   2.856  10.228  0.00  0.00    +0.000 OA
ATOM     12  H   UNL     1      43.942   4.475   8.393  0.00  0.00    +0.000 HD
ATOM     13  H   UNL     1      45.072   5.539   9.160  0.00  0.00    +0.000 HD
ENDBRANCH   1  10
BRANCH   5  14
ATOM     14  C   UNL     1      47.057   4.133  16.114  0.00  0.00    +0.000 C 
BRANCH  14  15
ATOM     15  C   UNL     1      48.421   3.768  16.650  0.00  0.00    +0.000 A 
ATOM     16  C   UNL     1      48.864   2.444  16.770  0.00  0.00    +0.000 A 
ATOM     17  C   UNL     1      50.155   2.175  17.212  0.00  0.00    +0.000 A 
ATOM     18  C   UNL     1      50.979   3.245  17.509  0.00  0.00    +0.000 A 
ATOM     19  N   UNL     1      50.603   4.536  17.391  0.00  0.00    +0.000 NA
ATOM     20  C   UNL     1      49.340   4.766  16.959  0.00  0.00    +0.000 A 
ENDBRANCH  14  15
ENDBRANCH   5  14
TORSDOF 3
ENDMDL
MODEL 5
REMARK VINA RESULT:    -6.181      3.069      6.940
REMARK INTER + INTRA:          -7.628
REMARK INTER:                  -7.320
REMARK INTRA:                  -0.308
REMARK UNBOUND:                -0.363
REMARK  Name = 
REMARK  3 active torsions:
REMARK  status: ('A' for Active; 'I' for Inactive)
REMARK    1  A    between atoms: C_2  and  C_4
REMARK    2  A    between atoms: N_8  and  C_9
REMARK    3  A    between atoms: C_9  and  C_10
REMARK                            x       y       z     vdW  Elec       q    Type
REMARK                         _______ _______ _______ _____ _____    ______ ____
ROOT
ATOM      1  C   UNL     1      45.401   4.728  11.697  0.00  0.00    +0.000 A 
ATOM      2  C   UNL     1      45.910   5.976  12.045  0.00  0.00    +0.000 A 
ATOM      3  C   UNL     1      46.600   6.111  13.249  0.00  0.00    +0.000 A 
ATOM      4  C   UNL     1      46.735   5.014  14.099  0.00  0.00    +0.000 A 
ATOM      5  N   UNL     1      47.373   5.226  15.322  0.00  0.00    +0.000 N 
ATOM      6  N   UNL     1      46.244   3.803  13.776  0.00  0.00    +0.000 NA
ATOM      7  C   UNL     1      45.591   3.683  12.590  0.00  0.00    +0.000 A 
ATOM      8  H   UNL     1      48.350   5.452  15.171  0.00  0.00    +0.000 HD
ENDROOT
BRANCH   1  10
ATOM      9  N   UNL     1      43.435   5.107  10.311  0.00  0.00    +0.000 N 
ATOM     10  C   UNL     1      44.642   4.480  10.452  0.00  0.00    +0.000 C 
ATOM     11  O   UNL     1      45.085   3.759   9.569  0.00  0.00    +0.000 OA
ATOM     12  H   UNL     1      42.969   4.989   9.418  0.00  0.00    +0.000 HD
ATOM     13  H   UNL     1      43.132   5.869  10.900  0.00  0.00    +0.000 HD
ENDBRANCH   1  10
BRANCH   5  14
ATOM     14  C   UNL     1      47.191   4.181  16.323  0.00  0.00    +0.000 C 
BRANCH  14  15
ATOM     15  C   UNL     1      48.521   3.549  16.658  0.00  0.00    +0.000 A 
ATOM     16  C   UNL     1      49.485   4.179  17.456  0.00  0.00    +0.000 A 
ATOM     17  C   UNL     1      50.666   3.518  17.780  0.00  0.00    +0.000 A 
ATOM     18  C   UNL     1      50.844   2.231  17.308  0.00  0.00    +0.000 A 
ATOM     19  N   UNL     1      49.936   1.578  16.551  0.00  0.00    +0.000 NA
ATOM     20  C   UNL     1      48.797   2.247  16.253  0.00  0.00    +0.000 A 
ENDBRANCH  14  15
ENDBRANCH   5  14
TORSDOF 3
ENDMDL
MODEL 6
REMARK VINA RESULT:    -5.684      3.691      5.744
REMARK INTER + INTRA:          -7.044
REMARK INTER:                  -6.811
REMARK INTRA:                  -0.234
REMARK UNBOUND:                -0.363
REMARK  Name = 
REMARK  3 active torsions:
REMARK  status: ('A' for Active; 'I' for Inactive)
REMARK    1  A    between atoms: C_2  and  C_4
REMARK    2  A    between atoms: N_8  and  C_9
REMARK    3  A    between atoms: C_9  and  C_10
REMARK                            x       y       z     vdW  Elec       q    Type
REMARK                         _______ _______ _______ _____ _____    ______ ____
ROOT
ATOM      1  C   UNL     1      48.913   4.567  18.218  0.00  0.00    +0.000 A 
ATOM      2  C   UNL     1      48.160   3.400  18.123  0.00  0.00    +0.000 A 
ATOM      3  C   UNL     1      47.496   3.122  16.929  0.00  0.00    +0.000 A 
ATOM      4  C   UNL     1      47.560   4.027  15.871  0.00  0.00    +0.000 A 
ATOM      5  N   UNL     1      46.817   3.731  14.727  0.00  0.00    +0.000 N 
ATOM      6  N   UNL     1      48.281   5.161  15.952  0.00  0.00    +0.000 NA
ATOM      7  C   UNL     1      48.939   5.409  17.115  0.00  0.00    +0.000 A 
ATOM      8  H   UNL     1      47.191   2.904  14.274  0.00  0.00    +0.000 HD
ENDROOT
BRANCH   1  10
ATOM      9  N   UNL     1      49.360   4.287  20.595  0.00  0.00    +0.000 N 
ATOM     10  C   UNL     1      49.644   4.964  19.442  0.00  0.00    +0.000 C 
ATOM     11  O   UNL     1      50.488   5.849  19.421  0.00  0.00    +0.000 OA
ATOM     12  H   UNL     1      49.929   4.517  21.403  0.00  0.00    +0.000 HD
ATOM     13  H   UNL     1      48.844   3.419  20.618  0.00  0.00    +0.000 HD
ENDBRANCH   1  10
BRANCH   5  14
ATOM     14  C   UNL     1      46.616   4.834  13.796  0.00  0.00    +0.000 C 
BRANCH  14  15
ATOM     15  C   UNL     1      45.382   4.587  12.961  0.00  0.00    +0.000 A 
ATOM     16  C   UNL     1      45.181   3.412  12.226  0.00  0.00    +0.000 A 
ATOM     17  C   UNL     1      43.994   3.218  11.527  0.00  0.00    +0.000 A 
ATOM     18  C   UNL     1      43.026   4.203  11.597  0.00  0.00    +0.000 A 
ATOM     19  N   UNL     1      43.168   5.343  12.307  0.00  0.00    +0.000 NA
ATOM     20  C   UNL     1      44.334   5.504  12.976  0.00  0.00    +0.000 A 
ENDBRANCH  14  15
ENDBRANCH   5  14
TORSDOF 3
ENDMDL
MODEL 7
REMARK VINA RESULT:    -5.351      3.351      6.158
REMARK INTER + INTRA:          -6.652
REMARK INTER:                  -6.341
REMARK INTRA:                  -0.312
REMARK UNBOUND:                -0.363
REMARK  Name = 
REMARK  3 active torsions:
REMARK  status: ('A' for Active; 'I' for Inactive)
REMARK    1  A    between atoms: C_2  and  C_4
REMARK    2  A    between atoms: N_8  and  C_9
REMARK    3  A    between atoms: C_9  and  C_10
REMARK                            x       y       z     vdW  Elec       q    Type
REMARK                         _______ _______ _______ _____ _____    ______ ____
ROOT
ATOM      1  C   UNL     1      44.659   3.914  11.739  0.00  0.00    +0.000 A 
ATOM      2  C   UNL     1      45.556   3.610  12.759  0.00  0.00    +0.000 A 
ATOM      3  C   UNL     1      46.229   4.650  13.398  0.00  0.00    +0.000 A 
ATOM      4  C   UNL     1      46.027   5.966  12.985  0.00  0.00    +0.000 A 
ATOM      5  N   UNL     1      46.780   6.959  13.613  0.00  0.00    +0.000 N 
ATOM      6  N   UNL     1      45.165   6.273  11.997  0.00  0.00    +0.000 NA
ATOM      7  C   UNL     1      44.502   5.250  11.397  0.00  0.00    +0.000 A 
ATOM      8  H   UNL     1      46.510   7.038  14.587  0.00  0.00    +0.000 HD
ENDROOT
BRANCH   1  10
ATOM      9  N   UNL     1      44.312   2.613   9.711  0.00  0.00    +0.000 N 
ATOM     10  C   UNL     1      43.906   2.887  10.987  0.00  0.00    +0.000 C 
ATOM     11  O   UNL     1      42.969   2.286  11.494  0.00  0.00    +0.000 OA
ATOM     12  H   UNL     1      43.836   1.850   9.242  0.00  0.00    +0.000 HD
ATOM     13  H   UNL     1      45.197   2.916   9.332  0.00  0.00    +0.000 HD
ENDBRANCH   1  10
BRANCH   5  14
ATOM     14  C   UNL     1      46.817   8.251  12.938  0.00  0.00    +0.000 C 
BRANCH  14  15
ATOM     15  C   UNL     1      48.207   8.519  12.411  0.00  0.00    +0.000 A 
ATOM     16  C   UNL     1      49.069   7.501  11.983  0.00  0.00    +0.000 A 
ATOM     17  C   UNL     1      50.314   7.817  11.448  0.00  0.00    +0.000 A 
ATOM     18  C   UNL     1      50.658   9.152  11.339  0.00  0.00    +0.000 A 
ATOM     19  N   UNL     1      49.853  10.166  11.721  0.00  0.00    +0.000 NA
ATOM     20  C   UNL     1      48.648   9.827  12.238  0.00  0.00    +0.000 A 
ENDBRANCH  14  15
ENDBRANCH   5  14
TORSDOF 3
ENDMDL
MODEL 8
REMARK VINA RESULT:    -5.316      3.634      6.963
REMARK INTER + INTRA:          -6.611
REMARK INTER:                  -6.298
REMARK INTRA:                  -0.313
REMARK UNBOUND:                -0.363
REMARK  Name = 
REMARK  3 active torsions:
REMARK  status: ('A' for Active; 'I' for Inactive)
REMARK    1  A    between atoms: C_2  and  C_4
REMARK    2  A    between atoms: N_8  and  C_9
REMARK    3  A    between atoms: C_9  and  C_10
REMARK                            x       y       z     vdW  Elec       q    Type
REMARK                         _______ _______ _______ _____ _____    ______ ____
ROOT
ATOM      1  C   UNL     1      45.917   3.514   7.834  0.00  0.00    +0.000 A 
ATOM      2  C   UNL     1      44.772   3.120   8.520  0.00  0.00    +0.000 A 
ATOM      3  C   UNL     1      44.250   3.963   9.500  0.00  0.00    +0.000 A 
ATOM      4  C   UNL     1      44.899   5.159   9.806  0.00  0.00    +0.000 A 
ATOM      5  N   UNL     1      44.371   5.928  10.845  0.00  0.00    +0.000 N 
ATOM      6  N   UNL     1      46.009   5.549   9.152  0.00  0.00    +0.000 NA
ATOM      7  C   UNL     1      46.495   4.726   8.186  0.00  0.00    +0.000 A 
ATOM      8  H   UNL     1      43.458   6.285  10.584  0.00  0.00    +0.000 HD
ENDROOT
BRANCH   1  10
ATOM      9  N   UNL     1      46.946   3.317   5.636  0.00  0.00    +0.000 N 
ATOM     10  C   UNL     1      46.560   2.689   6.788  0.00  0.00    +0.000 C 
ATOM     11  O   UNL     1      46.761   1.494   6.953  0.00  0.00    +0.000 OA
ATOM     12  H   UNL     1      47.457   2.752   4.966  0.00  0.00    +0.000 HD
ATOM     13  H   UNL     1      47.002   4.320   5.542  0.00  0.00    +0.000 HD
ENDBRANCH   1  10
BRANCH   5  14
ATOM     14  C   UNL     1      45.246   6.967  11.374  0.00  0.00    +0.000 C 
BRANCH  14  15
ATOM     15  C   UNL     1      44.552   8.307  11.313  0.00  0.00    +0.000 A 
ATOM     16  C   UNL     1      43.320   8.499  10.674  0.00  0.00    +0.000 A 
ATOM     17  C   UNL     1      42.701   9.744  10.707  0.00  0.00    +0.000 A 
ATOM     18  C   UNL     1      43.327  10.766  11.398  0.00  0.00    +0.000 A 
ATOM     19  N   UNL     1      44.503  10.623  12.044  0.00  0.00    +0.000 NA
ATOM     20  C   UNL     1      45.081   9.399  11.994  0.00  0.00    +0.000 A 
ENDBRANCH  14  15
ENDBRANCH   5  14
TORSDOF 3
ENDMDL
MODEL 9
REMARK VINA RESULT:    -5.101      3.607      5.007
REMARK INTER + INTRA:          -6.359
REMARK INTER:                  -6.032
REMARK INTRA:                  -0.326
REMARK UNBOUND:                -0.363
REMARK  Name = 
REMARK  3 active torsions:
REMARK  status: ('A' for Active; 'I' for Inactive)
REMARK    1  A    between atoms: C_2  and  C_4
REMARK    2  A    between atoms: N_8  and  C_9
REMARK    3  A    between atoms: C_9  and  C_10
REMARK                            x       y       z     vdW  Elec       q    Type
REMARK                         _______ _______ _______ _____ _____    ______ ____
ROOT
ATOM      1  C   UNL     1      49.766   7.746  12.529  0.00  0.00    +0.000 A 
ATOM      2  C   UNL     1      49.527   7.346  13.840  0.00  0.00    +0.000 A 
ATOM      3  C   UNL     1      48.277   6.825  14.169  0.00  0.00    +0.000 A 
ATOM      4  C   UNL     1      47.278   6.747  13.199  0.00  0.00    +0.000 A 
ATOM      5  N   UNL     1      46.025   6.284  13.602  0.00  0.00    +0.000 N 
ATOM      6  N   UNL     1      47.496   7.134  11.927  0.00  0.00    +0.000 NA
ATOM      7  C   UNL     1      48.726   7.623  11.618  0.00  0.00    +0.000 A 
ATOM      8  H   UNL     1      46.086   5.307  13.870  0.00  0.00    +0.000 HD
ENDROOT
BRANCH   1  10
ATOM      9  N   UNL     1      52.145   8.129  12.872  0.00  0.00    +0.000 N 
ATOM     10  C   UNL     1      51.050   8.326  12.078  0.00  0.00    +0.000 C 
ATOM     11  O   UNL     1      51.137   8.938  11.023  0.00  0.00    +0.000 OA
ATOM     12  H   UNL     1      53.031   8.463  12.507  0.00  0.00    +0.000 HD
ATOM     13  H   UNL     1      52.174   7.457  13.625  0.00  0.00    +0.000 HD
ENDBRANCH   1  10
BRANCH   5  14
ATOM     14  C   UNL     1      44.925   6.543  12.682  0.00  0.00    +0.000 C 
BRANCH  14  15
ATOM     15  C   UNL     1      44.397   5.240  12.128  0.00  0.00    +0.000 A 
ATOM     16  C   UNL     1      44.431   4.922  10.765  0.00  0.00    +0.000 A 
ATOM     17  C   UNL     1      43.986   3.679  10.324  0.00  0.00    +0.000 A 
ATOM     18  C   UNL     1      43.534   2.776  11.269  0.00  0.00    +0.000 A 
ATOM     19  N   UNL     1      43.500   3.031  12.594  0.00  0.00    +0.000 NA
ATOM     20  C   UNL     1      43.939   4.249  12.992  0.00  0.00    +0.000 A 
ENDBRANCH  14  15
ENDBRANCH   5  14
TORSDOF 3
ENDMDL
