MODEL 1
REMARK VINA RESULT:    -7.910      0.000      0.000
REMARK INTER + INTRA:         -11.241
REMARK INTER:                 -10.453
REMARK INTRA:                  -0.788
REMARK UNBOUND:                -0.788
REMARK  Name = 
REMARK  6 active torsions:
REMARK  status: ('A' for Active; 'I' for Inactive)
REMARK    1  A    between atoms: N_1  and  C_2
REMARK    2  A    between atoms: C_2  and  C_3
REMARK    3  A    between atoms: C_3  and  C_4
REMARK    4  A    between atoms: C_7  and  C_8
REMARK    5  A    between atoms: C_8  and  N_9
REMARK    6  A    between atoms: C_14  and  C_15
REMARK                            x       y       z     vdW  Elec       q    Type
REMARK                         _______ _______ _______ _____ _____    ______ ____
ROOT
ATOM      1  N   UNL     1      43.515   4.280  10.552  0.00  0.00    +0.000 N 
ATOM      2  N   UNL     1      43.014   3.258  11.280  0.00  0.00    +0.000 NA
ATOM      3  N   UNL     1      43.630   2.155  10.876  0.00  0.00    +0.000 NA
ATOM      4  C   UNL     1      44.428   2.480   9.815  0.00  0.00    +0.000 A 
ATOM      5  C   UNL     1      45.364   1.718   9.107  0.00  0.00    +0.000 A 
ATOM      6  C   UNL     1      46.052   2.312   8.033  0.00  0.00    +0.000 A 
ATOM      7  C   UNL     1      45.756   3.631   7.649  0.00  0.00    +0.000 A 
ATOM      8  C   UNL     1      44.850   4.419   8.374  0.00  0.00    +0.000 A 
ATOM      9  C   UNL     1      44.245   3.816   9.479  0.00  0.00    +0.000 A 
ENDROOT
BRANCH   6  10
ATOM     10  C   UNL     1      47.122   1.494   7.392  0.00  0.00    +0.000 C 
ATOM     11  N   UNL     1      48.199   2.122   6.835  0.00  0.00    +0.000 N 
ATOM     12  O   UNL     1      47.063   0.270   7.370  0.00  0.00    +0.000 OA
ATOM     13  H   UNL     1      48.333   3.122   6.778  0.00  0.00    +0.000 HD
ATOM     14  H   UNL     1      48.905   1.527   6.427  0.00  0.00    +0.000 HD
ENDBRANCH   6  10
BRANCH   1  15
ATOM     15  C   UNL     1      43.643   5.591  11.175  0.00  0.00    +0.000 C 
BRANCH  15  19
ATOM     16  C   UNL     1      47.539   6.266  12.965  0.00  0.00    +0.000 A 
ATOM     17  C   UNL     1      46.651   5.340  13.527  0.00  0.00    +0.000 A 
ATOM     18  C   UNL     1      45.413   5.085  12.928  0.00  0.00    +0.000 A 
ATOM     19  C   UNL     1      45.038   5.750  11.752  0.00  0.00    +0.000 A 
ATOM     20  C   UNL     1      45.938   6.664  11.182  0.00  0.00    +0.000 A 
ATOM     21  C   UNL     1      47.177   6.915  11.780  0.00  0.00    +0.000 A 
BRANCH  16  22
ATOM     22  C   UNL     1      48.863   6.568  13.628  0.00  0.00    +0.000 C 
BRANCH  22  23
ATOM     23  C   UNL     1      48.706   6.878  15.120  0.00  0.00    +0.000 C 
BRANCH  23  24
ATOM     24  N   UNL     1      49.317   5.835  15.944  0.00  0.00    +0.000 NA
ATOM     25  H   UNL     1      50.297   5.731  15.684  0.00  0.00    +0.000 HD
ATOM     26  H   UNL     1      48.874   4.938  15.749  0.00  0.00    +0.000 HD
ENDBRANCH  23  24
ENDBRANCH  22  23
ENDBRANCH  16  22
ENDBRANCH  15  19
ENDBRANCH   1  15
TORSDOF 6
ENDMDL
MODEL 2
REMARK VINA RESULT:    -7.798      2.586      6.393
REMARK INTER + INTRA:         -11.093
REMARK INTER:                 -10.636
REMARK INTRA:                  -0.457
REMARK UNBOUND:                -0.788
REMARK  Name = 
REMARK  6 active torsions:
REMARK  status: ('A' for Active; 'I' for Inactive)
REMARK    1  A    between atoms: N_1  and  C_2
REMARK    2  A    between atoms: C_2  and  C_3
REMARK    3  A    between atoms: C_3  and  C_4
REMARK    4  A    between atoms: C_7  and  C_8
REMARK    5  A    between atoms: C_8  and  N_9
REMARK    6  A    between atoms: C_14  and  C_15
REMARK                            x       y       z     vdW  Elec       q    Type
REMARK                         _______ _______ _______ _____ _____    ______ ____
ROOT
ATOM      1  N   UNL     1      43.758   5.136  11.993  0.00  0.00    +0.000 N 
ATOM      2  N   UNL     1      43.278   6.331  11.586  0.00  0.00    +0.000 NA
ATOM      3  N   UNL     1      44.247   7.219  11.760  0.00  0.00    +0.000 NA
ATOM      4  C   UNL     1      45.288   6.592  12.387  0.00  0.00    +0.000 A 
ATOM      5  C   UNL     1      46.577   7.043  12.690  0.00  0.00    +0.000 A 
ATOM      6  C   UNL     1      47.460   6.175  13.359  0.00  0.00    +0.000 A 
ATOM      7  C   UNL     1      47.027   4.900  13.762  0.00  0.00    +0.000 A 
ATOM      8  C   UNL     1      45.751   4.422  13.429  0.00  0.00    +0.000 A 
ATOM      9  C   UNL     1      44.933   5.286  12.698  0.00  0.00    +0.000 A 
ENDROOT
BRANCH   6  10
ATOM     10  C   UNL     1      48.857   6.662  13.550  0.00  0.00    +0.000 C 
ATOM     11  N   UNL     1      49.563   7.107  12.469  0.00  0.00    +0.000 N 
ATOM     12  O   UNL     1      49.378   6.686  14.659  0.00  0.00    +0.000 OA
ATOM     13  H   UNL     1      49.238   7.107  11.513  0.00  0.00    +0.000 HD
ATOM     14  H   UNL     1      50.498   7.441  12.650  0.00  0.00    +0.000 HD
ENDBRANCH   6  10
BRANCH   1  15
ATOM     15  C   UNL     1      43.318   3.930  11.305  0.00  0.00    +0.000 C 
BRANCH  15  19
ATOM     16  C   UNL     1      45.746   3.051   7.817  0.00  0.00    +0.000 A 
ATOM     17  C   UNL     1      45.458   4.376   8.165  0.00  0.00    +0.000 A 
ATOM     18  C   UNL     1      44.715   4.667   9.314  0.00  0.00    +0.000 A 
ATOM     19  C   UNL     1      44.245   3.636  10.140  0.00  0.00    +0.000 A 
ATOM     20  C   UNL     1      44.550   2.310   9.797  0.00  0.00    +0.000 A 
ATOM     21  C   UNL     1      45.297   2.021   8.650  0.00  0.00    +0.000 A 
BRANCH  16  22
ATOM     22  C   UNL     1      46.520   2.733   6.558  0.00  0.00    +0.000 C 
BRANCH  22  23
ATOM     23  C   UNL     1      47.832   2.000   6.855  0.00  0.00    +0.000 C 
BRANCH  23  24
ATOM     24  N   UNL     1      48.596   1.767   5.629  0.00  0.00    +0.000 NA
ATOM     25  H   UNL     1      49.580   1.969   5.801  0.00  0.00    +0.000 HD
ATOM     26  H   UNL     1      48.293   2.418   4.905  0.00  0.00    +0.000 HD
ENDBRANCH  23  24
ENDBRANCH  22  23
ENDBRANCH  16  22
ENDBRANCH  15  19
ENDBRANCH   1  15
TORSDOF 6
ENDMDL
MODEL 3
REMARK VINA RESULT:    -7.386      3.091      7.118
REMARK INTER + INTRA:         -10.549
REMARK INTER:                  -9.977
REMARK INTRA:                  -0.572
REMARK UNBOUND:                -0.788
REMARK  Name = 
REMARK  6 active torsions:
REMARK  status: ('A' for Active; 'I' for Inactive)
REMARK    1  A    between atoms: N_1  and  C_2
REMARK    2  A    between atoms: C_2  and  C_3
REMARK    3  A    between atoms: C_3  and  C_4
REMARK    4  A    between atoms: C_7  and  C_8
REMARK    5  A    between atoms: C_8  and  N_9
REMARK    6  A    between atoms: C_14  and  C_15
REMARK                            x       y       z     vdW  Elec       q    Type
REMARK                         _______ _______ _______ _____ _____    ______ ____
ROOT
ATOM      1  N   UNL     1      45.928   4.502  12.437  0.00  0.00    +0.000 N 
ATOM      2  N   UNL     1      46.025   3.501  13.340  0.00  0.00    +0.000 NA
ATOM      3  N   UNL     1      46.700   3.978  14.377  0.00  0.00    +0.000 NA
ATOM      4  C   UNL     1      47.123   5.240  14.063  0.00  0.00    +0.000 A 
ATOM      5  C   UNL     1      47.764   6.210  14.842  0.00  0.00    +0.000 A 
ATOM      6  C   UNL     1      48.097   7.443  14.252  0.00  0.00    +0.000 A 
ATOM      7  C   UNL     1      47.838   7.667  12.889  0.00  0.00    +0.000 A 
ATOM      8  C   UNL     1      47.160   6.719  12.108  0.00  0.00    +0.000 A 
ATOM      9  C   UNL     1      46.779   5.539  12.751  0.00  0.00    +0.000 A 
ENDROOT
BRANCH   6  10
ATOM     10  C   UNL     1      48.669   8.482  15.156  0.00  0.00    +0.000 C 
ATOM     11  N   UNL     1      47.825   9.259  15.898  0.00  0.00    +0.000 N 
ATOM     12  O   UNL     1      49.879   8.642  15.260  0.00  0.00    +0.000 OA
ATOM     13  H   UNL     1      46.816   9.226  15.870  0.00  0.00    +0.000 HD
ATOM     14  H   UNL     1      48.259   9.937  16.508  0.00  0.00    +0.000 HD
ENDBRANCH   6  10
BRANCH   1  15
ATOM     15  C   UNL     1      44.729   4.593  11.615  0.00  0.00    +0.000 C 
BRANCH  15  19
ATOM     16  C   UNL     1      45.842   3.107   7.692  0.00  0.00    +0.000 A 
ATOM     17  C   UNL     1      45.273   2.249   8.641  0.00  0.00    +0.000 A 
ATOM     18  C   UNL     1      44.871   2.732   9.890  0.00  0.00    +0.000 A 
ATOM     19  C   UNL     1      45.026   4.086  10.216  0.00  0.00    +0.000 A 
ATOM     20  C   UNL     1      45.581   4.948   9.256  0.00  0.00    +0.000 A 
ATOM     21  C   UNL     1      45.980   4.464   8.006  0.00  0.00    +0.000 A 
BRANCH  16  22
ATOM     22  C   UNL     1      46.309   2.581   6.355  0.00  0.00    +0.000 C 
BRANCH  22  23
ATOM     23  C   UNL     1      47.425   1.542   6.499  0.00  0.00    +0.000 C 
BRANCH  23  24
ATOM     24  N   UNL     1      48.582   1.892   5.676  0.00  0.00    +0.000 NA
ATOM     25  H   UNL     1      48.984   1.043   5.280  0.00  0.00    +0.000 HD
ATOM     26  H   UNL     1      49.309   2.306   6.259  0.00  0.00    +0.000 HD
ENDBRANCH  23  24
ENDBRANCH  22  23
ENDBRANCH  16  22
ENDBRANCH  15  19
ENDBRANCH   1  15
TORSDOF 6
ENDMDL
MODEL 4
REMARK VINA RESULT:    -6.863      3.056      6.640
REMARK INTER + INTRA:          -9.858
REMARK INTER:                  -9.448
REMARK INTRA:                  -0.409
REMARK UNBOUND:                -0.788
REMARK  Name = 
REMARK  6 active torsions:
REMARK  status: ('A' for Active; 'I' for Inactive)
REMARK    1  A    between atoms: N_1  and  C_2
REMARK    2  A    between atoms: C_2  and  C_3
REMARK    3  A    between atoms: C_3  and  C_4
REMARK    4  A    between atoms: C_7  and  C_8
REMARK    5  A    between atoms: C_8  and  N_9
REMARK    6  A    between atoms: C_14  and  C_15
REMARK                            x       y       z     vdW  Elec       q    Type
REMARK                         _______ _______ _______ _____ _____    ______ ____
ROOT
ATOM      1  N   UNL     1      44.127   4.204  11.768  0.00  0.00    +0.000 N 
ATOM      2  N   UNL     1      42.887   4.370  11.261  0.00  0.00    +0.000 NA
ATOM      3  N   UNL     1      42.703   5.674  11.103  0.00  0.00    +0.000 NA
ATOM      4  C   UNL     1      43.789   6.321  11.624  0.00  0.00    +0.000 A 
ATOM      5  C   UNL     1      44.143   7.674  11.605  0.00  0.00    +0.000 A 
ATOM      6  C   UNL     1      45.335   8.074  12.237  0.00  0.00    +0.000 A 
ATOM      7  C   UNL     1      46.122   7.131  12.921  0.00  0.00    +0.000 A 
ATOM      8  C   UNL     1      45.800   5.765  12.912  0.00  0.00    +0.000 A 
ATOM      9  C   UNL     1      44.649   5.401  12.210  0.00  0.00    +0.000 A 
ENDROOT
BRANCH   6  10
ATOM     10  C   UNL     1      45.724   9.505  12.084  0.00  0.00    +0.000 C 
ATOM     11  N   UNL     1      44.779  10.476  12.254  0.00  0.00    +0.000 N 
ATOM     12  O   UNL     1      46.877   9.829  11.824  0.00  0.00    +0.000 OA
ATOM     13  H   UNL     1      43.800  10.318  12.446  0.00  0.00    +0.000 HD
ATOM     14  H   UNL     1      45.093  11.431  12.157  0.00  0.00    +0.000 HD
ENDBRANCH   6  10
BRANCH   1  15
ATOM     15  C   UNL     1      44.891   3.024  11.385  0.00  0.00    +0.000 C 
BRANCH  15  19
ATOM     16  C   UNL     1      46.088   3.173   7.216  0.00  0.00    +0.000 A 
ATOM     17  C   UNL     1      45.701   1.961   7.800  0.00  0.00    +0.000 A 
ATOM     18  C   UNL     1      45.271   1.915   9.129  0.00  0.00    +0.000 A 
ATOM     19  C   UNL     1      45.216   3.082   9.903  0.00  0.00    +0.000 A 
ATOM     20  C   UNL     1      45.589   4.298   9.310  0.00  0.00    +0.000 A 
ATOM     21  C   UNL     1      46.015   4.343   7.979  0.00  0.00    +0.000 A 
BRANCH  16  22
ATOM     22  C   UNL     1      46.586   3.220   5.790  0.00  0.00    +0.000 C 
BRANCH  22  23
ATOM     23  C   UNL     1      47.773   2.280   5.559  0.00  0.00    +0.000 C 
BRANCH  23  24
ATOM     24  N   UNL     1      48.887   2.610   6.449  0.00  0.00    +0.000 NA
ATOM     25  H   UNL     1      48.786   2.093   7.322  0.00  0.00    +0.000 HD
ATOM     26  H   UNL     1      48.851   3.598   6.697  0.00  0.00    +0.000 HD
ENDBRANCH  23  24
ENDBRANCH  22  23
ENDBRANCH  16  22
ENDBRANCH  15  19
ENDBRANCH   1  15
TORSDOF 6
ENDMDL
MODEL 5
REMARK VINA RESULT:    -6.090      3.980      6.276
REMARK INTER + INTRA:          -8.836
REMARK INTER:                  -8.389
REMARK INTRA:                  -0.446
REMARK UNBOUND:                -0.788
REMARK  Name = 
REMARK  6 active torsions:
REMARK  status: ('A' for Active; 'I' for Inactive)
REMARK    1  A    between atoms: N_1  and  C_2
REMARK    2  A    between atoms: C_2  and  C_3
REMARK    3  A    between atoms: C_3  and  C_4
REMARK    4  A    between atoms: C_7  and  C_8
REMARK    5  A    between atoms: C_8  and  N_9
REMARK    6  A    between atoms: C_14  and  C_15
REMARK                            x       y       z     vdW  Elec       q    Type
REMARK                         _______ _______ _______ _____ _____    ______ ____
ROOT
ATOM      1  N   UNL     1      47.567   4.916  14.890  0.00  0.00    +0.000 N 
ATOM      2  N   UNL     1      48.132   6.128  14.699  0.00  0.00    +0.000 NA
ATOM      3  N   UNL     1      47.586   6.644  13.606  0.00  0.00    +0.000 NA
ATOM      4  C   UNL     1      46.767   5.698  13.055  0.00  0.00    +0.000 A 
ATOM      5  C   UNL     1      45.880   5.773  11.976  0.00  0.00    +0.000 A 
ATOM      6  C   UNL     1      45.155   4.623  11.611  0.00  0.00    +0.000 A 
ATOM      7  C   UNL     1      45.367   3.410  12.289  0.00  0.00    +0.000 A 
ATOM      8  C   UNL     1      46.223   3.332  13.398  0.00  0.00    +0.000 A 
ATOM      9  C   UNL     1      46.866   4.513  13.774  0.00  0.00    +0.000 A 
ENDROOT
BRANCH   6  10
ATOM     10  C   UNL     1      44.137   4.790  10.534  0.00  0.00    +0.000 C 
ATOM     11  N   UNL     1      43.126   5.693  10.705  0.00  0.00    +0.000 N 
ATOM     12  O   UNL     1      44.198   4.146   9.494  0.00  0.00    +0.000 OA
ATOM     13  H   UNL     1      42.971   6.254  11.530  0.00  0.00    +0.000 HD
ATOM     14  H   UNL     1      42.471   5.783   9.942  0.00  0.00    +0.000 HD
ENDBRANCH   6  10
BRANCH   1  15
ATOM     15  C   UNL     1      47.358   4.445  16.252  0.00  0.00    +0.000 C 
BRANCH  15  19
ATOM     16  C   UNL     1      51.128   2.706  17.518  0.00  0.00    +0.000 A 
ATOM     17  C   UNL     1      50.885   4.075  17.688  0.00  0.00    +0.000 A 
ATOM     18  C   UNL     1      49.655   4.632  17.324  0.00  0.00    +0.000 A 
ATOM     19  C   UNL     1      48.640   3.830  16.784  0.00  0.00    +0.000 A 
ATOM     20  C   UNL     1      48.880   2.456  16.631  0.00  0.00    +0.000 A 
ATOM     21  C   UNL     1      50.109   1.899  17.000  0.00  0.00    +0.000 A 
BRANCH  16  22
ATOM     22  C   UNL     1      52.468   2.108  17.879  0.00  0.00    +0.000 C 
BRANCH  22  23
ATOM     23  C   UNL     1      52.451   0.577  17.830  0.00  0.00    +0.000 C 
BRANCH  23  24
ATOM     24  N   UNL     1      53.529   0.064  16.984  0.00  0.00    +0.000 NA
ATOM     25  H   UNL     1      54.098  -0.589  17.522  0.00  0.00    +0.000 HD
ATOM     26  H   UNL     1      54.150   0.827  16.716  0.00  0.00    +0.000 HD
ENDBRANCH  23  24
ENDBRANCH  22  23
ENDBRANCH  16  22
ENDBRANCH  15  19
ENDBRANCH   1  15
TORSDOF 6
ENDMDL
MODEL 6
REMARK VINA RESULT:    -6.057      3.592      7.525
REMARK INTER + INTRA:          -8.792
REMARK INTER:                  -8.208
REMARK INTRA:                  -0.584
REMARK UNBOUND:                -0.788
REMARK  Name = 
REMARK  6 active torsions:
REMARK  status: ('A' for Active; 'I' for Inactive)
REMARK    1  A    between atoms: N_1  and  C_2
REMARK    2  A    between atoms: C_2  and  C_3
REMARK    3  A    between atoms: C_3  and  C_4
REMARK    4  A    between atoms: C_7  and  C_8
REMARK    5  A    between atoms: C_8  and  N_9
REMARK    6  A    between atoms: C_14  and  C_15
REMARK                            x       y       z     vdW  Elec       q    Type
REMARK                         _______ _______ _______ _____ _____    ______ ____
ROOT
ATOM      1  N   UNL     1      46.578   5.119  13.867  0.00  0.00    +0.000 N 
ATOM      2  N   UNL     1      46.706   4.175  14.825  0.00  0.00    +0.000 NA
ATOM      3  N   UNL     1      47.603   4.622  15.694  0.00  0.00    +0.000 NA
ATOM      4  C   UNL     1      48.116   5.792  15.208  0.00  0.00    +0.000 A 
ATOM      5  C   UNL     1      48.996   6.714  15.786  0.00  0.00    +0.000 A 
ATOM      6  C   UNL     1      49.371   7.851  15.046  0.00  0.00    +0.000 A 
ATOM      7  C   UNL     1      48.911   8.019  13.729  0.00  0.00    +0.000 A 
ATOM      8  C   UNL     1      47.997   7.124  13.153  0.00  0.00    +0.000 A 
ATOM      9  C   UNL     1      47.591   6.050  13.948  0.00  0.00    +0.000 A 
ENDROOT
BRANCH   6  10
ATOM     10  C   UNL     1      50.213   8.859  15.752  0.00  0.00    +0.000 C 
ATOM     11  N   UNL     1      51.265   9.429  15.095  0.00  0.00    +0.000 N 
ATOM     12  O   UNL     1      49.970   9.198  16.904  0.00  0.00    +0.000 OA
ATOM     13  H   UNL     1      51.565   9.204  14.157  0.00  0.00    +0.000 HD
ATOM     14  H   UNL     1      51.796  10.117  15.608  0.00  0.00    +0.000 HD
ENDBRANCH   6  10
BRANCH   1  15
ATOM     15  C   UNL     1      45.275   5.318  13.246  0.00  0.00    +0.000 C 
BRANCH  15  19
ATOM     16  C   UNL     1      45.095   3.929   9.139  0.00  0.00    +0.000 A 
ATOM     17  C   UNL     1      45.568   5.213   9.433  0.00  0.00    +0.000 A 
ATOM     18  C   UNL     1      45.672   5.649  10.758  0.00  0.00    +0.000 A 
ATOM     19  C   UNL     1      45.305   4.808  11.817  0.00  0.00    +0.000 A 
ATOM     20  C   UNL     1      44.846   3.515  11.519  0.00  0.00    +0.000 A 
ATOM     21  C   UNL     1      44.747   3.079  10.195  0.00  0.00    +0.000 A 
BRANCH  16  22
ATOM     22  C   UNL     1      44.950   3.467   7.707  0.00  0.00    +0.000 C 
BRANCH  22  23
ATOM     23  C   UNL     1      46.284   3.012   7.108  0.00  0.00    +0.000 C 
BRANCH  23  24
ATOM     24  N   UNL     1      46.870   4.058   6.268  0.00  0.00    +0.000 NA
ATOM     25  H   UNL     1      47.873   3.898   6.181  0.00  0.00    +0.000 HD
ATOM     26  H   UNL     1      46.764   4.965   6.722  0.00  0.00    +0.000 HD
ENDBRANCH  23  24
ENDBRANCH  22  23
ENDBRANCH  16  22
ENDBRANCH  15  19
ENDBRANCH   1  15
TORSDOF 6
ENDMDL
MODEL 7
REMARK VINA RESULT:    -5.808      3.953      7.823
REMARK INTER + INTRA:          -8.463
REMARK INTER:                  -8.603
REMARK INTRA:                   0.140
REMARK UNBOUND:                -0.788
REMARK  Name = 
REMARK  6 active torsions:
REMARK  status: ('A' for Active; 'I' for Inactive)
REMARK    1  A    between atoms: N_1  and  C_2
REMARK    2  A    between atoms: C_2  and  C_3
REMARK    3  A    between atoms: C_3  and  C_4
REMARK    4  A    between atoms: C_7  and  C_8
REMARK    5  A    between atoms: C_8  and  N_9
REMARK    6  A    between atoms: C_14  and  C_15
REMARK                            x       y       z     vdW  Elec       q    Type
REMARK                         _______ _______ _______ _____ _____    ______ ____
ROOT
ATOM      1  N   UNL     1      47.222   5.090  14.156  0.00  0.00    +0.000 N 
ATOM      2  N   UNL     1      47.169   3.801  13.755  0.00  0.00    +0.000 NA
ATOM      3  N   UNL     1      47.506   3.055  14.798  0.00  0.00    +0.000 NA
ATOM      4  C   UNL     1      47.884   3.891  15.812  0.00  0.00    +0.000 A 
ATOM      5  C   UNL     1      48.213   3.621  17.145  0.00  0.00    +0.000 A 
ATOM      6  C   UNL     1      48.579   4.690  17.984  0.00  0.00    +0.000 A 
ATOM      7  C   UNL     1      48.665   5.994  17.469  0.00  0.00    +0.000 A 
ATOM      8  C   UNL     1      48.299   6.284  16.146  0.00  0.00    +0.000 A 
ATOM      9  C   UNL     1      47.869   5.207  15.368  0.00  0.00    +0.000 A 
ENDROOT
BRANCH   6  10
ATOM     10  C   UNL     1      48.803   4.363  19.422  0.00  0.00    +0.000 C 
ATOM     11  N   UNL     1      48.350   3.172  19.914  0.00  0.00    +0.000 N 
ATOM     12  O   UNL     1      49.398   5.132  20.166  0.00  0.00    +0.000 OA
ATOM     13  H   UNL     1      47.829   2.480  19.395  0.00  0.00    +0.000 HD
ATOM     14  H   UNL     1      48.539   2.988  20.889  0.00  0.00    +0.000 HD
ENDBRANCH   6  10
BRANCH   1  15
ATOM     15  C   UNL     1      46.275   6.042  13.593  0.00  0.00    +0.000 C 
BRANCH  15  19
ATOM     16  C   UNL     1      44.965   4.366   9.809  0.00  0.00    +0.000 A 
ATOM     17  C   UNL     1      44.485   3.850  11.018  0.00  0.00    +0.000 A 
ATOM     18  C   UNL     1      44.867   4.415  12.238  0.00  0.00    +0.000 A 
ATOM     19  C   UNL     1      45.739   5.512  12.275  0.00  0.00    +0.000 A 
ATOM     20  C   UNL     1      46.206   6.039  11.060  0.00  0.00    +0.000 A 
ATOM     21  C   UNL     1      45.819   5.475   9.841  0.00  0.00    +0.000 A 
BRANCH  16  22
ATOM     22  C   UNL     1      44.580   3.736   8.491  0.00  0.00    +0.000 C 
BRANCH  22  23
ATOM     23  C   UNL     1      45.695   2.852   7.924  0.00  0.00    +0.000 C 
BRANCH  23  24
ATOM     24  N   UNL     1      45.791   1.589   8.655  0.00  0.00    +0.000 NA
ATOM     25  H   UNL     1      44.921   1.068   8.545  0.00  0.00    +0.000 HD
ATOM     26  H   UNL     1      45.887   1.774   9.653  0.00  0.00    +0.000 HD
ENDBRANCH  23  24
ENDBRANCH  22  23
ENDBRANCH  16  22
ENDBRANCH  15  19
ENDBRANCH   1  15
TORSDOF 6
ENDMDL
MODEL 8
REMARK VINA RESULT:    -5.784      3.482      7.353
REMARK INTER + INTRA:          -8.432
REMARK INTER:                  -7.854
REMARK INTRA:                  -0.578
REMARK UNBOUND:                -0.788
REMARK  Name = 
REMARK  6 active torsions:
REMARK  status: ('A' for Active; 'I' for Inactive)
REMARK    1  A    between atoms: N_1  and  C_2
REMARK    2  A    between atoms: C_2  and  C_3
REMARK    3  A    between atoms: C_3  and  C_4
REMARK    4  A    between atoms: C_7  and  C_8
REMARK    5  A    between atoms: C_8  and  N_9
REMARK    6  A    between atoms: C_14  and  C_15
REMARK                            x       y       z     vdW  Elec       q    Type
REMARK                         _______ _______ _______ _____ _____    ______ ____
ROOT
ATOM      1  N   UNL     1      47.500   6.407  13.284  0.00  0.00    +0.000 N 
ATOM      2  N   UNL     1      47.842   5.833  14.458  0.00  0.00    +0.000 NA
ATOM      3  N   UNL     1      48.982   6.389  14.845  0.00  0.00    +0.000 NA
ATOM      4  C   UNL     1      49.406   7.224  13.849  0.00  0.00    +0.000 A 
ATOM      5  C   UNL     1      50.475   8.125  13.804  0.00  0.00    +0.000 A 
ATOM      6  C   UNL     1      50.690   8.866  12.627  0.00  0.00    +0.000 A 
ATOM      7  C   UNL     1      49.874   8.656  11.502  0.00  0.00    +0.000 A 
ATOM      8  C   UNL     1      48.775   7.786  11.547  0.00  0.00    +0.000 A 
ATOM      9  C   UNL     1      48.551   7.126  12.757  0.00  0.00    +0.000 A 
ENDROOT
BRANCH   6  10
ATOM     10  C   UNL     1      51.766   9.897  12.675  0.00  0.00    +0.000 C 
ATOM     11  N   UNL     1      51.829  10.747  13.741  0.00  0.00    +0.000 N 
ATOM     12  O   UNL     1      52.605   9.986  11.786  0.00  0.00    +0.000 OA
ATOM     13  H   UNL     1      51.177  10.775  14.512  0.00  0.00    +0.000 HD
ATOM     14  H   UNL     1      52.585  11.417  13.738  0.00  0.00    +0.000 HD
ENDBRANCH   6  10
BRANCH   1  15
ATOM     15  C   UNL     1      46.089   6.601  12.981  0.00  0.00    +0.000 C 
BRANCH  15  19
ATOM     16  C   UNL     1      45.011   3.463  10.183  0.00  0.00    +0.000 A 
ATOM     17  C   UNL     1      44.961   3.231  11.563  0.00  0.00    +0.000 A 
ATOM     18  C   UNL     1      45.263   4.252  12.470  0.00  0.00    +0.000 A 
ATOM     19  C   UNL     1      45.619   5.529  12.014  0.00  0.00    +0.000 A 
ATOM     20  C   UNL     1      45.651   5.763  10.631  0.00  0.00    +0.000 A 
ATOM     21  C   UNL     1      45.345   4.742   9.726  0.00  0.00    +0.000 A 
BRANCH  16  22
ATOM     22  C   UNL     1      44.718   2.352   9.202  0.00  0.00    +0.000 C 
BRANCH  22  23
ATOM     23  C   UNL     1      45.852   2.159   8.191  0.00  0.00    +0.000 C 
BRANCH  23  24
ATOM     24  N   UNL     1      46.293   0.764   8.153  0.00  0.00    +0.000 NA
ATOM     25  H   UNL     1      46.891   0.622   7.339  0.00  0.00    +0.000 HD
ATOM     26  H   UNL     1      45.489   0.151   8.026  0.00  0.00    +0.000 HD
ENDBRANCH  23  24
ENDBRANCH  22  23
ENDBRANCH  16  22
ENDBRANCH  15  19
ENDBRANCH   1  15
TORSDOF 6
ENDMDL
MODEL 9
REMARK VINA RESULT:    -5.452      3.339      5.388
REMARK INTER + INTRA:          -7.993
REMARK INTER:                  -7.436
REMARK INTRA:                  -0.557
REMARK UNBOUND:                -0.788
REMARK  Name = 
REMARK  6 active torsions:
REMARK  status: ('A' for Active; 'I' for Inactive)
REMARK    1  A    between atoms: N_1  and  C_2
REMARK    2  A    between atoms: C_2  and  C_3
REMARK    3  A    between atoms: C_3  and  C_4
REMARK    4  A    between atoms: C_7  and  C_8
REMARK    5  A    between atoms: C_8  and  N_9
REMARK    6  A    between atoms: C_14  and  C_15
REMARK                            x       y       z     vdW  Elec       q    Type
REMARK                         _______ _______ _______ _____ _____    ______ ____
ROOT
ATOM      1  N   UNL     1      47.205   7.475  13.527  0.00  0.00    +0.000 N 
ATOM      2  N   UNL     1      47.977   6.530  14.106  0.00  0.00    +0.000 NA
ATOM      3  N   UNL     1      47.582   5.358  13.626  0.00  0.00    +0.000 NA
ATOM      4  C   UNL     1      46.485   5.572  12.838  0.00  0.00    +0.000 A 
ATOM      5  C   UNL     1      45.766   4.698  12.016  0.00  0.00    +0.000 A 
ATOM      6  C   UNL     1      44.653   5.191  11.310  0.00  0.00    +0.000 A 
ATOM      7  C   UNL     1      44.244   6.525  11.479  0.00  0.00    +0.000 A 
ATOM      8  C   UNL     1      44.979   7.421  12.268  0.00  0.00    +0.000 A 
ATOM      9  C   UNL     1      46.120   6.912  12.891  0.00  0.00    +0.000 A 
ENDROOT
BRANCH   6  10
ATOM     10  C   UNL     1      43.997   4.249  10.358  0.00  0.00    +0.000 C 
ATOM     11  N   UNL     1      44.061   4.503   9.017  0.00  0.00    +0.000 N 
ATOM     12  O   UNL     1      43.415   3.245  10.751  0.00  0.00    +0.000 OA
ATOM     13  H   UNL     1      44.492   5.310   8.590  0.00  0.00    +0.000 HD
ATOM     14  H   UNL     1      43.616   3.828   8.411  0.00  0.00    +0.000 HD
ENDBRANCH   6  10
BRANCH   1  15
ATOM     15  C   UNL     1      47.789   8.779  13.237  0.00  0.00    +0.000 C 
BRANCH  15  19
ATOM     16  C   UNL     1      51.694   8.045  11.491  0.00  0.00    +0.000 A 
ATOM     17  C   UNL     1      50.536   7.559  10.870  0.00  0.00    +0.000 A 
ATOM     18  C   UNL     1      49.273   7.832  11.404  0.00  0.00    +0.000 A 
ATOM     19  C   UNL     1      49.140   8.599  12.569  0.00  0.00    +0.000 A 
ATOM     20  C   UNL     1      50.301   9.098  13.180  0.00  0.00    +0.000 A 
ATOM     21  C   UNL     1      51.564   8.829  12.642  0.00  0.00    +0.000 A 
BRANCH  16  22
ATOM     22  C   UNL     1      53.062   7.724  10.935  0.00  0.00    +0.000 C 
BRANCH  22  23
ATOM     23  C   UNL     1      53.004   6.664   9.831  0.00  0.00    +0.000 C 
BRANCH  23  24
ATOM     24  N   UNL     1      53.491   5.371  10.314  0.00  0.00    +0.000 NA
ATOM     25  H   UNL     1      54.454   5.237  10.006  0.00  0.00    +0.000 HD
ATOM     26  H   UNL     1      52.950   4.618   9.892  0.00  0.00    +0.000 HD
ENDBRANCH  23  24
ENDBRANCH  22  23
ENDBRANCH  16  22
ENDBRANCH  15  19
ENDBRANCH   1  15
TORSDOF 6
ENDMDL
