MODEL 1
REMARK VINA RESULT:    -7.950      0.000      0.000
REMARK INTER + INTRA:         -12.688
REMARK INTER:                 -11.669
REMARK INTRA:                  -1.019
REMARK UNBOUND:                -1.019
REMARK  Name = 
REMARK  9 active torsions:
REMARK  status: ('A' for Active; 'I' for Inactive)
REMARK    1  A    between atoms: C_1  and  O_2
REMARK    2  A    between atoms: O_2  and  C_3
REMARK    3  A    between atoms: C_3  and  C_5
REMARK    4  A    between atoms: C_5  and  N_6
REMARK    5  A    between atoms: C_5  and  C_15
REMARK    6  A    between atoms: C_7  and  C_9
REMARK    7  A    between atoms: C_18  and  C_19
REMARK    8  A    between atoms: C_19  and  N_20
REMARK    9  A    between atoms: C_21  and  C_23
REMARK                            x       y       z     vdW  Elec       q    Type
REMARK                         _______ _______ _______ _____ _____    ______ ____
ROOT
ATOM      1  C   UNL     1      45.907   4.781  12.921  0.00  0.00    +0.000 A 
ATOM      2  C   UNL     1      46.474   5.935  12.363  0.00  0.00    +0.000 A 
ATOM      3  C   UNL     1      47.435   6.670  13.069  0.00  0.00    +0.000 A 
ATOM      4  C   UNL     1      47.850   6.265  14.345  0.00  0.00    +0.000 A 
ATOM      5  C   UNL     1      47.301   5.104  14.896  0.00  0.00    +0.000 A 
ATOM      6  C   UNL     1      46.350   4.367  14.191  0.00  0.00    +0.000 A 
ENDROOT
BRANCH   1   7
ATOM      7  C   UNL     1      44.791   4.028  12.198  0.00  0.00    +0.000 C 
BRANCH   7   8
ATOM      8  N   UNL     1      45.229   3.742  10.833  0.00  0.00    +0.000 N 
ATOM      9  C   UNL     1      44.640   2.807  10.015  0.00  0.00    +0.000 C 
ATOM     10  O   UNL     1      43.687   2.117  10.362  0.00  0.00    +0.000 OA
ATOM     11  H   UNL     1      46.141   4.068  10.527  0.00  0.00    +0.000 HD
BRANCH   9  12
ATOM     12  C   UNL     1      45.251   2.738   8.590  0.00  0.00    +0.000 C 
ATOM     13  C   UNL     1      46.113   1.487   8.399  0.00  0.00    +0.000 C 
ATOM     14  C   UNL     1      46.670   1.422   6.976  0.00  0.00    +0.000 C 
ATOM     15  C   UNL     1      47.390   2.716   6.613  0.00  0.00    +0.000 C 
ATOM     16  C   UNL     1      46.525   3.939   6.904  0.00  0.00    +0.000 C 
ATOM     17  N   UNL     1      46.048   3.966   8.292  0.00  0.00    +0.000 NA
ATOM     18  H   UNL     1      45.420   4.768   8.385  0.00  0.00    +0.000 HD
ENDBRANCH   9  12
ENDBRANCH   7   8
BRANCH   7  19
ATOM     19  C   UNL     1      43.468   4.840  12.202  0.00  0.00    +0.000 C 
ATOM     20  O   UNL     1      42.699   4.944  13.152  0.00  0.00    +0.000 OA
BRANCH  19  22
ATOM     21  C   UNL     1      43.120   6.912  11.152  0.00  0.00    +0.000 C 
ATOM     22  O   UNL     1      43.295   5.499  11.016  0.00  0.00    +0.000 OA
ENDBRANCH  19  22
ENDBRANCH   7  19
ENDBRANCH   1   7
BRANCH   4  23
ATOM     23  C   UNL     1      48.805   7.099  15.159  0.00  0.00    +0.000 C 
BRANCH  23  24
ATOM     24  N   UNL     1      49.864   6.276  15.694  0.00  0.00    +0.000 N 
ATOM     25  C   UNL     1      49.863   5.870  17.002  0.00  0.00    +0.000 C 
ATOM     26  O   UNL     1      48.945   6.146  17.768  0.00  0.00    +0.000 OA
ATOM     27  H   UNL     1      50.724   6.229  15.156  0.00  0.00    +0.000 HD
BRANCH  25  28
ATOM     28  C   UNL     1      50.992   5.033  17.430  0.00  0.00    +0.000 A 
ATOM     29  C   UNL     1      52.153   5.636  17.898  0.00  0.00    +0.000 A 
ATOM     30  S   UNL     1      53.352   4.529  18.389  0.00  0.00    +0.000 S 
ATOM     31  C   UNL     1      52.382   3.203  17.950  0.00  0.00    +0.000 A 
ATOM     32  N   UNL     1      52.843   1.929  18.089  0.00  0.00    +0.000 NA
ATOM     33  C   UNL     1      52.018   1.018  17.689  0.00  0.00    +0.000 A 
ATOM     34  N   UNL     1      50.774   1.268  17.171  0.00  0.00    +0.000 N 
ATOM     35  C   UNL     1      50.257   2.535  17.036  0.00  0.00    +0.000 A 
ATOM     36  O   UNL     1      49.125   2.717  16.610  0.00  0.00    +0.000 OA
ATOM     37  C   UNL     1      51.154   3.595  17.456  0.00  0.00    +0.000 A 
ATOM     38  H   UNL     1      50.173   0.508  16.886  0.00  0.00    +0.000 HD
ENDBRANCH  25  28
ENDBRANCH  23  24
ENDBRANCH   4  23
TORSDOF 8
ENDMDL
MODEL 2
REMARK VINA RESULT:    -7.631      2.117      2.567
REMARK INTER + INTRA:         -12.219
REMARK INTER:                 -11.056
REMARK INTRA:                  -1.163
REMARK UNBOUND:                -1.019
REMARK  Name = 
REMARK  9 active torsions:
REMARK  status: ('A' for Active; 'I' for Inactive)
REMARK    1  A    between atoms: C_1  and  O_2
REMARK    2  A    between atoms: O_2  and  C_3
REMARK    3  A    between atoms: C_3  and  C_5
REMARK    4  A    between atoms: C_5  and  N_6
REMARK    5  A    between atoms: C_5  and  C_15
REMARK    6  A    between atoms: C_7  and  C_9
REMARK    7  A    between atoms: C_18  and  C_19
REMARK    8  A    between atoms: C_19  and  N_20
REMARK    9  A    between atoms: C_21  and  C_23
REMARK                            x       y       z     vdW  Elec       q    Type
REMARK                         _______ _______ _______ _____ _____    ______ ____
ROOT
ATOM      1  C   UNL     1      45.941   5.385  12.082  0.00  0.00    +0.000 A 
ATOM      2  C   UNL     1      46.272   6.628  11.525  0.00  0.00    +0.000 A 
ATOM      3  C   UNL     1      47.209   7.462  12.149  0.00  0.00    +0.000 A 
ATOM      4  C   UNL     1      47.836   7.069  13.340  0.00  0.00    +0.000 A 
ATOM      5  C   UNL     1      47.523   5.821  13.886  0.00  0.00    +0.000 A 
ATOM      6  C   UNL     1      46.596   4.987  13.262  0.00  0.00    +0.000 A 
ENDROOT
BRANCH   1   7
ATOM      7  C   UNL     1      44.851   4.513  11.459  0.00  0.00    +0.000 C 
BRANCH   7   8
ATOM      8  N   UNL     1      45.316   4.048  10.153  0.00  0.00    +0.000 N 
ATOM      9  C   UNL     1      44.869   2.902   9.540  0.00  0.00    +0.000 C 
ATOM     10  O   UNL     1      44.035   2.155  10.041  0.00  0.00    +0.000 OA
ATOM     11  H   UNL     1      46.165   4.443   9.759  0.00  0.00    +0.000 HD
BRANCH   9  12
ATOM     12  C   UNL     1      45.470   2.662   8.129  0.00  0.00    +0.000 C 
ATOM     13  C   UNL     1      46.383   1.432   8.101  0.00  0.00    +0.000 C 
ATOM     14  C   UNL     1      46.930   1.194   6.693  0.00  0.00    +0.000 C 
ATOM     15  C   UNL     1      47.592   2.455   6.144  0.00  0.00    +0.000 C 
ATOM     16  C   UNL     1      46.678   3.670   6.277  0.00  0.00    +0.000 C 
ATOM     17  N   UNL     1      46.212   3.868   7.655  0.00  0.00    +0.000 NA
ATOM     18  H   UNL     1      45.551   4.649   7.645  0.00  0.00    +0.000 HD
ENDBRANCH   9  12
ENDBRANCH   7   8
BRANCH   7  19
ATOM     19  C   UNL     1      43.513   5.288  11.332  0.00  0.00    +0.000 C 
ATOM     20  O   UNL     1      43.008   5.670  10.281  0.00  0.00    +0.000 OA
BRANCH  19  22
ATOM     21  C   UNL     1      43.009   4.280  13.393  0.00  0.00    +0.000 C 
ATOM     22  O   UNL     1      42.915   5.435  12.554  0.00  0.00    +0.000 OA
ENDBRANCH  19  22
ENDBRANCH   7  19
ENDBRANCH   1   7
BRANCH   4  23
ATOM     23  C   UNL     1      48.768   7.995  14.077  0.00  0.00    +0.000 C 
BRANCH  23  24
ATOM     24  N   UNL     1      48.673   7.778  15.501  0.00  0.00    +0.000 N 
ATOM     25  C   UNL     1      49.751   7.356  16.234  0.00  0.00    +0.000 C 
ATOM     26  O   UNL     1      50.857   7.187  15.728  0.00  0.00    +0.000 OA
ATOM     27  H   UNL     1      47.740   7.693  15.890  0.00  0.00    +0.000 HD
BRANCH  25  28
ATOM     28  C   UNL     1      49.533   7.172  17.675  0.00  0.00    +0.000 A 
ATOM     29  C   UNL     1      49.611   8.268  18.525  0.00  0.00    +0.000 A 
ATOM     30  S   UNL     1      49.298   7.894  20.159  0.00  0.00    +0.000 S 
ATOM     31  C   UNL     1      49.093   6.246  19.796  0.00  0.00    +0.000 A 
ATOM     32  N   UNL     1      48.828   5.345  20.784  0.00  0.00    +0.000 NA
ATOM     33  C   UNL     1      48.727   4.123  20.376  0.00  0.00    +0.000 A 
ATOM     34  N   UNL     1      48.859   3.724  19.071  0.00  0.00    +0.000 N 
ATOM     35  C   UNL     1      49.100   4.600  18.038  0.00  0.00    +0.000 A 
ATOM     36  O   UNL     1      49.168   4.213  16.880  0.00  0.00    +0.000 OA
ATOM     37  C   UNL     1      49.239   5.984  18.448  0.00  0.00    +0.000 A 
ATOM     38  H   UNL     1      48.757   2.752  18.817  0.00  0.00    +0.000 HD
ENDBRANCH  25  28
ENDBRANCH  23  24
ENDBRANCH   4  23
TORSDOF 8
ENDMDL
MODEL 3
REMARK VINA RESULT:    -7.562      2.308      3.886
REMARK INTER + INTRA:         -12.117
REMARK INTER:                 -10.780
REMARK INTRA:                  -1.337
REMARK UNBOUND:                -1.019
REMARK  Name = 
REMARK  9 active torsions:
REMARK  status: ('A' for Active; 'I' for Inactive)
REMARK    1  A    between atoms: C_1  and  O_2
REMARK    2  A    between atoms: O_2  and  C_3
REMARK    3  A    between atoms: C_3  and  C_5
REMARK    4  A    between atoms: C_5  and  N_6
REMARK    5  A    between atoms: C_5  and  C_15
REMARK    6  A    between atoms: C_7  and  C_9
REMARK    7  A    between atoms: C_18  and  C_19
REMARK    8  A    between atoms: C_19  and  N_20
REMARK    9  A    between atoms: C_21  and  C_23
REMARK                            x       y       z     vdW  Elec       q    Type
REMARK                         _______ _______ _______ _____ _____    ______ ____
ROOT
ATOM      1  C   UNL     1      47.502   5.693  14.365  0.00  0.00    +0.000 A 
ATOM      2  C   UNL     1      48.324   6.220  15.370  0.00  0.00    +0.000 A 
ATOM      3  C   UNL     1      48.614   5.471  16.519  0.00  0.00    +0.000 A 
ATOM      4  C   UNL     1      48.091   4.181  16.683  0.00  0.00    +0.000 A 
ATOM      5  C   UNL     1      47.288   3.646  15.672  0.00  0.00    +0.000 A 
ATOM      6  C   UNL     1      47.005   4.387  14.525  0.00  0.00    +0.000 A 
ENDROOT
BRANCH   1   7
ATOM      7  C   UNL     1      47.105   6.539  13.155  0.00  0.00    +0.000 C 
BRANCH   7   8
ATOM      8  N   UNL     1      46.374   5.693  12.214  0.00  0.00    +0.000 N 
ATOM      9  C   UNL     1      45.366   6.144  11.395  0.00  0.00    +0.000 C 
ATOM     10  O   UNL     1      44.981   7.309  11.384  0.00  0.00    +0.000 OA
ATOM     11  H   UNL     1      46.434   4.683  12.305  0.00  0.00    +0.000 HD
BRANCH   9  12
ATOM     12  C   UNL     1      44.793   5.063  10.441  0.00  0.00    +0.000 C 
ATOM     13  C   UNL     1      44.841   3.666  11.069  0.00  0.00    +0.000 C 
ATOM     14  C   UNL     1      44.235   2.625  10.126  0.00  0.00    +0.000 C 
ATOM     15  C   UNL     1      44.883   2.694   8.747  0.00  0.00    +0.000 C 
ATOM     16  C   UNL     1      44.892   4.120   8.203  0.00  0.00    +0.000 C 
ATOM     17  N   UNL     1      45.516   5.068   9.134  0.00  0.00    +0.000 NA
ATOM     18  H   UNL     1      45.415   6.003   8.733  0.00  0.00    +0.000 HD
ENDBRANCH   9  12
ENDBRANCH   7   8
BRANCH   7  19
ATOM     19  C   UNL     1      48.348   7.180  12.483  0.00  0.00    +0.000 C 
ATOM     20  O   UNL     1      49.422   6.619  12.290  0.00  0.00    +0.000 OA
BRANCH  19  22
ATOM     21  C   UNL     1      47.401   9.260  13.025  0.00  0.00    +0.000 C 
ATOM     22  O   UNL     1      48.073   8.450  12.056  0.00  0.00    +0.000 OA
ENDBRANCH  19  22
ENDBRANCH   7  19
ENDBRANCH   1   7
BRANCH   4  23
ATOM     23  C   UNL     1      48.309   3.404  17.955  0.00  0.00    +0.000 C 
BRANCH  23  24
ATOM     24  N   UNL     1      49.713   3.121  18.139  0.00  0.00    +0.000 N 
ATOM     25  C   UNL     1      50.385   2.260  17.312  0.00  0.00    +0.000 C 
ATOM     26  O   UNL     1      49.840   1.723  16.351  0.00  0.00    +0.000 OA
ATOM     27  H   UNL     1      50.116   3.368  19.037  0.00  0.00    +0.000 HD
BRANCH  25  28
ATOM     28  C   UNL     1      51.811   2.053  17.597  0.00  0.00    +0.000 A 
ATOM     29  C   UNL     1      52.303   0.762  17.731  0.00  0.00    +0.000 A 
ATOM     30  S   UNL     1      53.981   0.692  18.024  0.00  0.00    +0.000 S 
ATOM     31  C   UNL     1      54.103   2.388  18.029  0.00  0.00    +0.000 A 
ATOM     32  N   UNL     1      55.298   2.998  18.262  0.00  0.00    +0.000 NA
ATOM     33  C   UNL     1      55.244   4.289  18.269  0.00  0.00    +0.000 A 
ATOM     34  N   UNL     1      54.106   5.022  18.057  0.00  0.00    +0.000 N 
ATOM     35  C   UNL     1      52.883   4.451  17.792  0.00  0.00    +0.000 A 
ATOM     36  O   UNL     1      51.897   5.138  17.564  0.00  0.00    +0.000 OA
ATOM     37  C   UNL     1      52.888   3.001  17.790  0.00  0.00    +0.000 A 
ATOM     38  H   UNL     1      54.134   6.032  18.065  0.00  0.00    +0.000 HD
ENDBRANCH  25  28
ENDBRANCH  23  24
ENDBRANCH   4  23
TORSDOF 8
ENDMDL
MODEL 4
REMARK VINA RESULT:    -7.485      2.979      4.266
REMARK INTER + INTRA:         -12.005
REMARK INTER:                 -10.908
REMARK INTRA:                  -1.097
REMARK UNBOUND:                -1.019
REMARK  Name = 
REMARK  9 active torsions:
REMARK  status: ('A' for Active; 'I' for Inactive)
REMARK    1  A    between atoms: C_1  and  O_2
REMARK    2  A    between atoms: O_2  and  C_3
REMARK    3  A    between atoms: C_3  and  C_5
REMARK    4  A    between atoms: C_5  and  N_6
REMARK    5  A    between atoms: C_5  and  C_15
REMARK    6  A    between atoms: C_7  and  C_9
REMARK    7  A    between atoms: C_18  and  C_19
REMARK    8  A    between atoms: C_19  and  N_20
REMARK    9  A    between atoms: C_21  and  C_23
REMARK                            x       y       z     vdW  Elec       q    Type
REMARK                         _______ _______ _______ _____ _____    ______ ____
ROOT
ATOM      1  C   UNL     1      45.899   5.123  12.206  0.00  0.00    +0.000 A 
ATOM      2  C   UNL     1      46.287   6.392  11.757  0.00  0.00    +0.000 A 
ATOM      3  C   UNL     1      47.247   7.134  12.459  0.00  0.00    +0.000 A 
ATOM      4  C   UNL     1      47.839   6.621  13.621  0.00  0.00    +0.000 A 
ATOM      5  C   UNL     1      47.468   5.346  14.060  0.00  0.00    +0.000 A 
ATOM      6  C   UNL     1      46.518   4.604  13.358  0.00  0.00    +0.000 A 
ENDROOT
BRANCH   1   7
ATOM      7  C   UNL     1      44.786   4.349  11.501  0.00  0.00    +0.000 C 
BRANCH   7   8
ATOM      8  N   UNL     1      45.277   3.913  10.194  0.00  0.00    +0.000 N 
ATOM      9  C   UNL     1      44.802   2.811   9.522  0.00  0.00    +0.000 C 
ATOM     10  O   UNL     1      43.918   2.085   9.965  0.00  0.00    +0.000 OA
ATOM     11  H   UNL     1      46.156   4.283   9.846  0.00  0.00    +0.000 HD
BRANCH   9  12
ATOM     12  C   UNL     1      45.443   2.597   8.125  0.00  0.00    +0.000 C 
ATOM     13  C   UNL     1      46.404   1.404   8.116  0.00  0.00    +0.000 C 
ATOM     14  C   UNL     1      46.991   1.190   6.721  0.00  0.00    +0.000 C 
ATOM     15  C   UNL     1      47.614   2.476   6.187  0.00  0.00    +0.000 C 
ATOM     16  C   UNL     1      46.651   3.654   6.300  0.00  0.00    +0.000 C 
ATOM     17  N   UNL     1      46.147   3.832   7.668  0.00  0.00    +0.000 NA
ATOM     18  H   UNL     1      45.456   4.586   7.643  0.00  0.00    +0.000 HD
ENDBRANCH   9  12
ENDBRANCH   7   8
BRANCH   7  19
ATOM     19  C   UNL     1      43.504   5.212  11.356  0.00  0.00    +0.000 C 
ATOM     20  O   UNL     1      42.993   5.556  10.294  0.00  0.00    +0.000 OA
BRANCH  19  22
ATOM     21  C   UNL     1      42.928   4.371  13.472  0.00  0.00    +0.000 C 
ATOM     22  O   UNL     1      42.959   5.488  12.580  0.00  0.00    +0.000 OA
ENDBRANCH  19  22
ENDBRANCH   7  19
ENDBRANCH   1   7
BRANCH   4  23
ATOM     23  C   UNL     1      48.795   7.445  14.443  0.00  0.00    +0.000 C 
BRANCH  23  24
ATOM     24  N   UNL     1      48.337   7.536  15.809  0.00  0.00    +0.000 N 
ATOM     25  C   UNL     1      49.036   6.963  16.838  0.00  0.00    +0.000 C 
ATOM     26  O   UNL     1      50.105   6.385  16.657  0.00  0.00    +0.000 OA
ATOM     27  H   UNL     1      47.368   7.803  15.951  0.00  0.00    +0.000 HD
BRANCH  25  28
ATOM     28  C   UNL     1      48.473   7.124  18.185  0.00  0.00    +0.000 A 
ATOM     29  C   UNL     1      48.347   6.016  19.012  0.00  0.00    +0.000 A 
ATOM     30  S   UNL     1      47.711   6.376  20.552  0.00  0.00    +0.000 S 
ATOM     31  C   UNL     1      47.538   8.020  20.153  0.00  0.00    +0.000 A 
ATOM     32  N   UNL     1      47.005   8.899  21.047  0.00  0.00    +0.000 NA
ATOM     33  C   UNL     1      46.901  10.109  20.605  0.00  0.00    +0.000 A 
ATOM     34  N   UNL     1      47.287  10.518  19.355  0.00  0.00    +0.000 N 
ATOM     35  C   UNL     1      47.853   9.672  18.430  0.00  0.00    +0.000 A 
ATOM     36  O   UNL     1      48.227  10.082  17.340  0.00  0.00    +0.000 OA
ATOM     37  C   UNL     1      47.976   8.297  18.873  0.00  0.00    +0.000 A 
ATOM     38  H   UNL     1      47.189  11.483  19.076  0.00  0.00    +0.000 HD
ENDBRANCH  25  28
ENDBRANCH  23  24
ENDBRANCH   4  23
TORSDOF 8
ENDMDL
MODEL 5
REMARK VINA RESULT:    -7.422      2.161      2.814
REMARK INTER + INTRA:         -11.912
REMARK INTER:                 -10.416
REMARK INTRA:                  -1.496
REMARK UNBOUND:                -1.019
REMARK  Name = 
REMARK  9 active torsions:
REMARK  status: ('A' for Active; 'I' for Inactive)
REMARK    1  A    between atoms: C_1  and  O_2
REMARK    2  A    between atoms: O_2  and  C_3
REMARK    3  A    between atoms: C_3  and  C_5
REMARK    4  A    between atoms: C_5  and  N_6
REMARK    5  A    between atoms: C_5  and  C_15
REMARK    6  A    between atoms: C_7  and  C_9
REMARK    7  A    between atoms: C_18  and  C_19
REMARK    8  A    between atoms: C_19  and  N_20
REMARK    9  A    between atoms: C_21  and  C_23
REMARK                            x       y       z     vdW  Elec       q    Type
REMARK                         _______ _______ _______ _____ _____    ______ ____
ROOT
ATOM      1  C   UNL     1      45.660   6.410  11.885  0.00  0.00    +0.000 A 
ATOM      2  C   UNL     1      45.308   7.405  12.808  0.00  0.00    +0.000 A 
ATOM      3  C   UNL     1      46.246   8.364  13.213  0.00  0.00    +0.000 A 
ATOM      4  C   UNL     1      47.551   8.350  12.702  0.00  0.00    +0.000 A 
ATOM      5  C   UNL     1      47.898   7.371  11.766  0.00  0.00    +0.000 A 
ATOM      6  C   UNL     1      46.963   6.420  11.357  0.00  0.00    +0.000 A 
ENDROOT
BRANCH   1   7
ATOM      7  C   UNL     1      44.672   5.305  11.512  0.00  0.00    +0.000 C 
BRANCH   7   8
ATOM      8  N   UNL     1      45.127   4.671  10.275  0.00  0.00    +0.000 N 
ATOM      9  C   UNL     1      44.659   3.464   9.812  0.00  0.00    +0.000 C 
ATOM     10  O   UNL     1      43.814   2.800  10.402  0.00  0.00    +0.000 OA
ATOM     11  H   UNL     1      45.982   4.999   9.835  0.00  0.00    +0.000 HD
BRANCH   9  12
ATOM     12  C   UNL     1      45.254   3.039   8.442  0.00  0.00    +0.000 C 
ATOM     13  C   UNL     1      46.041   1.729   8.546  0.00  0.00    +0.000 C 
ATOM     14  C   UNL     1      46.583   1.311   7.178  0.00  0.00    +0.000 C 
ATOM     15  C   UNL     1      47.373   2.445   6.534  0.00  0.00    +0.000 C 
ATOM     16  C   UNL     1      46.582   3.750   6.535  0.00  0.00    +0.000 C 
ATOM     17  N   UNL     1      46.118   4.119   7.879  0.00  0.00    +0.000 NA
ATOM     18  H   UNL     1      45.537   4.956   7.783  0.00  0.00    +0.000 HD
ENDBRANCH   9  12
ENDBRANCH   7   8
BRANCH   7  19
ATOM     19  C   UNL     1      43.233   5.863  11.358  0.00  0.00    +0.000 C 
ATOM     20  O   UNL     1      42.890   6.743  10.573  0.00  0.00    +0.000 OA
BRANCH  19  22
ATOM     21  C   UNL     1      42.970   4.579  13.307  0.00  0.00    +0.000 C 
ATOM     22  O   UNL     1      42.358   5.193  12.168  0.00  0.00    +0.000 OA
ENDBRANCH  19  22
ENDBRANCH   7  19
ENDBRANCH   1   7
BRANCH   4  23
ATOM     23  C   UNL     1      48.598   9.311  13.202  0.00  0.00    +0.000 C 
BRANCH  23  24
ATOM     24  N   UNL     1      49.225   8.796  14.396  0.00  0.00    +0.000 N 
ATOM     25  C   UNL     1      50.486   8.260  14.369  0.00  0.00    +0.000 C 
ATOM     26  O   UNL     1      51.159   8.233  13.342  0.00  0.00    +0.000 OA
ATOM     27  H   UNL     1      48.618   8.604  15.187  0.00  0.00    +0.000 HD
BRANCH  25  28
ATOM     28  C   UNL     1      51.019   7.771  15.647  0.00  0.00    +0.000 A 
ATOM     29  C   UNL     1      52.202   8.303  16.145  0.00  0.00    +0.000 A 
ATOM     30  S   UNL     1      52.665   7.657  17.652  0.00  0.00    +0.000 S 
ATOM     31  C   UNL     1      51.327   6.607  17.673  0.00  0.00    +0.000 A 
ATOM     32  N   UNL     1      51.145   5.735  18.702  0.00  0.00    +0.000 NA
ATOM     33  C   UNL     1      50.107   4.974  18.577  0.00  0.00    +0.000 A 
ATOM     34  N   UNL     1      49.235   5.014  17.521  0.00  0.00    +0.000 N 
ATOM     35  C   UNL     1      49.365   5.896  16.473  0.00  0.00    +0.000 A 
ATOM     36  O   UNL     1      48.542   5.933  15.569  0.00  0.00    +0.000 OA
ATOM     37  C   UNL     1      50.526   6.760  16.558  0.00  0.00    +0.000 A 
ATOM     38  H   UNL     1      48.435   4.399  17.489  0.00  0.00    +0.000 HD
ENDBRANCH  25  28
ENDBRANCH  23  24
ENDBRANCH   4  23
TORSDOF 8
ENDMDL
MODEL 6
REMARK VINA RESULT:    -7.364      2.252      3.316
REMARK INTER + INTRA:         -11.826
REMARK INTER:                 -10.400
REMARK INTRA:                  -1.427
REMARK UNBOUND:                -1.019
REMARK  Name = 
REMARK  9 active torsions:
REMARK  status: ('A' for Active; 'I' for Inactive)
REMARK    1  A    between atoms: C_1  and  O_2
REMARK    2  A    between atoms: O_2  and  C_3
REMARK    3  A    between atoms: C_3  and  C_5
REMARK    4  A    between atoms: C_5  and  N_6
REMARK    5  A    between atoms: C_5  and  C_15
REMARK    6  A    between atoms: C_7  and  C_9
REMARK    7  A    between atoms: C_18  and  C_19
REMARK    8  A    between atoms: C_19  and  N_20
REMARK    9  A    between atoms: C_21  and  C_23
REMARK                            x       y       z     vdW  Elec       q    Type
REMARK                         _______ _______ _______ _____ _____    ______ ____
ROOT
ATOM      1  C   UNL     1      47.387   6.239  13.959  0.00  0.00    +0.000 A 
ATOM      2  C   UNL     1      46.790   5.007  14.263  0.00  0.00    +0.000 A 
ATOM      3  C   UNL     1      47.133   4.319  15.434  0.00  0.00    +0.000 A 
ATOM      4  C   UNL     1      48.077   4.848  16.326  0.00  0.00    +0.000 A 
ATOM      5  C   UNL     1      48.658   6.086  16.034  0.00  0.00    +0.000 A 
ATOM      6  C   UNL     1      48.312   6.776  14.873  0.00  0.00    +0.000 A 
ENDROOT
BRANCH   1   7
ATOM      7  C   UNL     1      47.089   6.948  12.639  0.00  0.00    +0.000 C 
BRANCH   7   8
ATOM      8  N   UNL     1      46.503   5.982  11.711  0.00  0.00    +0.000 N 
ATOM      9  C   UNL     1      45.246   6.102  11.167  0.00  0.00    +0.000 C 
ATOM     10  O   UNL     1      44.493   7.037  11.416  0.00  0.00    +0.000 OA
ATOM     11  H   UNL     1      46.924   5.062  11.622  0.00  0.00    +0.000 HD
BRANCH   9  12
ATOM     12  C   UNL     1      44.882   4.977  10.161  0.00  0.00    +0.000 C 
ATOM     13  C   UNL     1      44.988   3.588  10.797  0.00  0.00    +0.000 C 
ATOM     14  C   UNL     1      44.587   2.501   9.799  0.00  0.00    +0.000 C 
ATOM     15  C   UNL     1      45.374   2.636   8.499  0.00  0.00    +0.000 C 
ATOM     16  C   UNL     1      45.312   4.059   7.952  0.00  0.00    +0.000 C 
ATOM     17  N   UNL     1      45.741   5.055   8.942  0.00  0.00    +0.000 NA
ATOM     18  H   UNL     1      45.599   5.979   8.526  0.00  0.00    +0.000 HD
ENDBRANCH   9  12
ENDBRANCH   7   8
BRANCH   7  19
ATOM     19  C   UNL     1      48.369   7.591  12.042  0.00  0.00    +0.000 C 
ATOM     20  O   UNL     1      49.369   6.980  11.677  0.00  0.00    +0.000 OA
BRANCH  19  22
ATOM     21  C   UNL     1      46.934   9.432  12.299  0.00  0.00    +0.000 C 
ATOM     22  O   UNL     1      48.218   8.943  11.902  0.00  0.00    +0.000 OA
ENDBRANCH  19  22
ENDBRANCH   7  19
ENDBRANCH   1   7
BRANCH   4  23
ATOM     23  C   UNL     1      48.531   4.074  17.535  0.00  0.00    +0.000 C 
BRANCH  23  24
ATOM     24  N   UNL     1      49.929   3.734  17.421  0.00  0.00    +0.000 N 
ATOM     25  C   UNL     1      50.831   4.071  18.395  0.00  0.00    +0.000 C 
ATOM     26  O   UNL     1      50.488   4.636  19.431  0.00  0.00    +0.000 OA
ATOM     27  H   UNL     1      50.265   3.479  16.497  0.00  0.00    +0.000 HD
BRANCH  25  28
ATOM     28  C   UNL     1      52.225   3.670  18.168  0.00  0.00    +0.000 A 
ATOM     29  C   UNL     1      53.239   4.610  18.300  0.00  0.00    +0.000 A 
ATOM     30  S   UNL     1      54.800   3.978  18.040  0.00  0.00    +0.000 S 
ATOM     31  C   UNL     1      54.175   2.435  17.695  0.00  0.00    +0.000 A 
ATOM     32  N   UNL     1      55.004   1.410  17.352  0.00  0.00    +0.000 NA
ATOM     33  C   UNL     1      54.397   0.301  17.085  0.00  0.00    +0.000 A 
ATOM     34  N   UNL     1      53.038   0.125  17.137  0.00  0.00    +0.000 N 
ATOM     35  C   UNL     1      52.165   1.122  17.503  0.00  0.00    +0.000 A 
ATOM     36  O   UNL     1      50.962   0.916  17.581  0.00  0.00    +0.000 OA
ATOM     37  C   UNL     1      52.798   2.394  17.796  0.00  0.00    +0.000 A 
ATOM     38  H   UNL     1      52.627  -0.773  16.926  0.00  0.00    +0.000 HD
ENDBRANCH  25  28
ENDBRANCH  23  24
ENDBRANCH   4  23
TORSDOF 8
ENDMDL
MODEL 7
REMARK VINA RESULT:    -7.307      2.003      2.764
REMARK INTER + INTRA:         -11.744
REMARK INTER:                 -10.620
REMARK INTRA:                  -1.125
REMARK UNBOUND:                -1.019
REMARK  Name = 
REMARK  9 active torsions:
REMARK  status: ('A' for Active; 'I' for Inactive)
REMARK    1  A    between atoms: C_1  and  O_2
REMARK    2  A    between atoms: O_2  and  C_3
REMARK    3  A    between atoms: C_3  and  C_5
REMARK    4  A    between atoms: C_5  and  N_6
REMARK    5  A    between atoms: C_5  and  C_15
REMARK    6  A    between atoms: C_7  and  C_9
REMARK    7  A    between atoms: C_18  and  C_19
REMARK    8  A    between atoms: C_19  and  N_20
REMARK    9  A    between atoms: C_21  and  C_23
REMARK                            x       y       z     vdW  Elec       q    Type
REMARK                         _______ _______ _______ _____ _____    ______ ____
ROOT
ATOM      1  C   UNL     1      45.899   5.493  12.118  0.00  0.00    +0.000 A 
ATOM      2  C   UNL     1      46.498   5.185  13.347  0.00  0.00    +0.000 A 
ATOM      3  C   UNL     1      47.549   5.967  13.844  0.00  0.00    +0.000 A 
ATOM      4  C   UNL     1      48.019   7.075  13.124  0.00  0.00    +0.000 A 
ATOM      5  C   UNL     1      47.409   7.396  11.908  0.00  0.00    +0.000 A 
ATOM      6  C   UNL     1      46.358   6.623  11.416  0.00  0.00    +0.000 A 
ENDROOT
BRANCH   1   7
ATOM      7  C   UNL     1      44.818   4.589  11.526  0.00  0.00    +0.000 C 
BRANCH   7   8
ATOM      8  N   UNL     1      45.281   4.096  10.230  0.00  0.00    +0.000 N 
ATOM      9  C   UNL     1      44.781   2.975   9.610  0.00  0.00    +0.000 C 
ATOM     10  O   UNL     1      43.896   2.278  10.095  0.00  0.00    +0.000 OA
ATOM     11  H   UNL     1      46.159   4.441   9.853  0.00  0.00    +0.000 HD
BRANCH   9  12
ATOM     12  C   UNL     1      45.395   2.698   8.211  0.00  0.00    +0.000 C 
ATOM     13  C   UNL     1      46.310   1.470   8.224  0.00  0.00    +0.000 C 
ATOM     14  C   UNL     1      46.870   1.195   6.828  0.00  0.00    +0.000 C 
ATOM     15  C   UNL     1      47.535   2.441   6.251  0.00  0.00    +0.000 C 
ATOM     16  C   UNL     1      46.618   3.658   6.343  0.00  0.00    +0.000 C 
ATOM     17  N   UNL     1      46.139   3.893   7.711  0.00  0.00    +0.000 NA
ATOM     18  H   UNL     1      45.477   4.672   7.674  0.00  0.00    +0.000 HD
ENDBRANCH   9  12
ENDBRANCH   7   8
BRANCH   7  19
ATOM     19  C   UNL     1      43.468   5.341  11.388  0.00  0.00    +0.000 C 
ATOM     20  O   UNL     1      43.026   5.827  10.351  0.00  0.00    +0.000 OA
BRANCH  19  22
ATOM     21  C   UNL     1      43.037   4.192  13.390  0.00  0.00    +0.000 C 
ATOM     22  O   UNL     1      42.781   5.336  12.570  0.00  0.00    +0.000 OA
ENDBRANCH  19  22
ENDBRANCH   7  19
ENDBRANCH   1   7
BRANCH   4  23
ATOM     23  C   UNL     1      49.213   7.865  13.593  0.00  0.00    +0.000 C 
BRANCH  23  24
ATOM     24  N   UNL     1      50.039   7.061  14.463  0.00  0.00    +0.000 N 
ATOM     25  C   UNL     1      50.190   7.366  15.790  0.00  0.00    +0.000 C 
ATOM     26  O   UNL     1      49.597   8.305  16.313  0.00  0.00    +0.000 OA
ATOM     27  H   UNL     1      50.700   6.434  14.016  0.00  0.00    +0.000 HD
BRANCH  25  28
ATOM     28  C   UNL     1      51.054   6.474  16.574  0.00  0.00    +0.000 A 
ATOM     29  C   UNL     1      50.499   5.691  17.578  0.00  0.00    +0.000 A 
ATOM     30  S   UNL     1      51.626   4.686  18.369  0.00  0.00    +0.000 S 
ATOM     31  C   UNL     1      52.906   5.295  17.430  0.00  0.00    +0.000 A 
ATOM     32  N   UNL     1      54.182   4.863  17.630  0.00  0.00    +0.000 NA
ATOM     33  C   UNL     1      55.061   5.429  16.872  0.00  0.00    +0.000 A 
ATOM     34  N   UNL     1      54.778   6.382  15.928  0.00  0.00    +0.000 N 
ATOM     35  C   UNL     1      53.503   6.830  15.673  0.00  0.00    +0.000 A 
ATOM     36  O   UNL     1      53.282   7.649  14.792  0.00  0.00    +0.000 OA
ATOM     37  C   UNL     1      52.480   6.235  16.512  0.00  0.00    +0.000 A 
ATOM     38  H   UNL     1      55.512   6.778  15.359  0.00  0.00    +0.000 HD
ENDBRANCH  25  28
ENDBRANCH  23  24
ENDBRANCH   4  23
TORSDOF 8
ENDMDL
MODEL 8
REMARK VINA RESULT:    -7.161      2.358      3.111
REMARK INTER + INTRA:         -11.529
REMARK INTER:                 -10.129
REMARK INTRA:                  -1.399
REMARK UNBOUND:                -1.019
REMARK  Name = 
REMARK  9 active torsions:
REMARK  status: ('A' for Active; 'I' for Inactive)
REMARK    1  A    between atoms: C_1  and  O_2
REMARK    2  A    between atoms: O_2  and  C_3
REMARK    3  A    between atoms: C_3  and  C_5
REMARK    4  A    between atoms: C_5  and  N_6
REMARK    5  A    between atoms: C_5  and  C_15
REMARK    6  A    between atoms: C_7  and  C_9
REMARK    7  A    between atoms: C_18  and  C_19
REMARK    8  A    between atoms: C_19  and  N_20
REMARK    9  A    between atoms: C_21  and  C_23
REMARK                            x       y       z     vdW  Elec       q    Type
REMARK                         _______ _______ _______ _____ _____    ______ ____
ROOT
ATOM      1  C   UNL     1      46.016   7.892  12.233  0.00  0.00    +0.000 A 
ATOM      2  C   UNL     1      46.194   8.808  13.278  0.00  0.00    +0.000 A 
ATOM      3  C   UNL     1      47.451   8.973  13.876  0.00  0.00    +0.000 A 
ATOM      4  C   UNL     1      48.555   8.228  13.438  0.00  0.00    +0.000 A 
ATOM      5  C   UNL     1      48.384   7.328  12.382  0.00  0.00    +0.000 A 
ATOM      6  C   UNL     1      47.136   7.169  11.781  0.00  0.00    +0.000 A 
ENDROOT
BRANCH   1   7
ATOM      7  C   UNL     1      44.631   7.639  11.641  0.00  0.00    +0.000 C 
BRANCH   7   8
ATOM      8  N   UNL     1      44.717   6.509  10.717  0.00  0.00    +0.000 N 
ATOM      9  C   UNL     1      44.014   5.337  10.866  0.00  0.00    +0.000 C 
ATOM     10  O   UNL     1      43.247   5.129  11.800  0.00  0.00    +0.000 OA
ATOM     11  H   UNL     1      45.486   6.468  10.054  0.00  0.00    +0.000 HD
BRANCH   9  12
ATOM     12  C   UNL     1      44.232   4.317   9.716  0.00  0.00    +0.000 C 
ATOM     13  C   UNL     1      44.539   2.914  10.249  0.00  0.00    +0.000 C 
ATOM     14  C   UNL     1      44.710   1.921   9.099  0.00  0.00    +0.000 C 
ATOM     15  C   UNL     1      45.737   2.426   8.090  0.00  0.00    +0.000 C 
ATOM     16  C   UNL     1      45.439   3.859   7.657  0.00  0.00    +0.000 C 
ATOM     17  N   UNL     1      45.320   4.773   8.800  0.00  0.00    +0.000 NA
ATOM     18  H   UNL     1      45.048   5.688   8.433  0.00  0.00    +0.000 HD
ENDBRANCH   9  12
ENDBRANCH   7   8
BRANCH   7  19
ATOM     19  C   UNL     1      44.082   8.903  10.928  0.00  0.00    +0.000 C 
ATOM     20  O   UNL     1      44.756   9.857  10.550  0.00  0.00    +0.000 OA
BRANCH  19  22
ATOM     21  C   UNL     1      42.041  10.043  10.703  0.00  0.00    +0.000 C 
ATOM     22  O   UNL     1      42.737   8.794  10.703  0.00  0.00    +0.000 OA
ENDBRANCH  19  22
ENDBRANCH   7  19
ENDBRANCH   1   7
BRANCH   4  23
ATOM     23  C   UNL     1      49.887   8.318  14.136  0.00  0.00    +0.000 C 
BRANCH  23  24
ATOM     24  N   UNL     1      49.931   7.410  15.257  0.00  0.00    +0.000 N 
ATOM     25  C   UNL     1      49.638   7.827  16.529  0.00  0.00    +0.000 C 
ATOM     26  O   UNL     1      49.280   8.977  16.770  0.00  0.00    +0.000 OA
ATOM     27  H   UNL     1      50.432   6.537  15.121  0.00  0.00    +0.000 HD
BRANCH  25  28
ATOM     28  C   UNL     1      49.715   6.812  17.588  0.00  0.00    +0.000 A 
ATOM     29  C   UNL     1      50.443   7.078  18.740  0.00  0.00    +0.000 A 
ATOM     30  S   UNL     1      50.404   5.816  19.885  0.00  0.00    +0.000 S 
ATOM     31  C   UNL     1      49.450   4.848  18.862  0.00  0.00    +0.000 A 
ATOM     32  N   UNL     1      49.079   3.593  19.241  0.00  0.00    +0.000 NA
ATOM     33  C   UNL     1      48.383   2.956  18.358  0.00  0.00    +0.000 A 
ATOM     34  N   UNL     1      48.020   3.463  17.137  0.00  0.00    +0.000 N 
ATOM     35  C   UNL     1      48.350   4.732  16.723  0.00  0.00    +0.000 A 
ATOM     36  O   UNL     1      47.971   5.167  15.645  0.00  0.00    +0.000 OA
ATOM     37  C   UNL     1      49.147   5.483  17.674  0.00  0.00    +0.000 A 
ATOM     38  H   UNL     1      47.465   2.915  16.496  0.00  0.00    +0.000 HD
ENDBRANCH  25  28
ENDBRANCH  23  24
ENDBRANCH   4  23
TORSDOF 8
ENDMDL
MODEL 9
REMARK VINA RESULT:    -6.826      3.734      4.644
REMARK INTER + INTRA:         -11.037
REMARK INTER:                  -9.933
REMARK INTRA:                  -1.104
REMARK UNBOUND:                -1.019
REMARK  Name = 
REMARK  9 active torsions:
REMARK  status: ('A' for Active; 'I' for Inactive)
REMARK    1  A    between atoms: C_1  and  O_2
REMARK    2  A    between atoms: O_2  and  C_3
REMARK    3  A    between atoms: C_3  and  C_5
REMARK    4  A    between atoms: C_5  and  N_6
REMARK    5  A    between atoms: C_5  and  C_15
REMARK    6  A    between atoms: C_7  and  C_9
REMARK    7  A    between atoms: C_18  and  C_19
REMARK    8  A    between atoms: C_19  and  N_20
REMARK    9  A    between atoms: C_21  and  C_23
REMARK                            x       y       z     vdW  Elec       q    Type
REMARK                         _______ _______ _______ _____ _____    ______ ____
ROOT
ATOM      1  C   UNL     1      45.964   5.069  12.183  0.00  0.00    +0.000 A 
ATOM      2  C   UNL     1      46.477   6.268  11.670  0.00  0.00    +0.000 A 
ATOM      3  C   UNL     1      47.446   6.990  12.380  0.00  0.00    +0.000 A 
ATOM      4  C   UNL     1      47.924   6.525  13.613  0.00  0.00    +0.000 A 
ATOM      5  C   UNL     1      47.429   5.319  14.116  0.00  0.00    +0.000 A 
ATOM      6  C   UNL     1      46.470   4.596  13.408  0.00  0.00    +0.000 A 
ENDROOT
BRANCH   1   7
ATOM      7  C   UNL     1      44.840   4.327  11.461  0.00  0.00    +0.000 C 
BRANCH   7   8
ATOM      8  N   UNL     1      45.334   3.884  10.158  0.00  0.00    +0.000 N 
ATOM      9  C   UNL     1      44.853   2.786   9.485  0.00  0.00    +0.000 C 
ATOM     10  O   UNL     1      43.960   2.067   9.924  0.00  0.00    +0.000 OA
ATOM     11  H   UNL     1      46.218   4.246   9.814  0.00  0.00    +0.000 HD
BRANCH   9  12
ATOM     12  C   UNL     1      45.499   2.564   8.092  0.00  0.00    +0.000 C 
ATOM     13  C   UNL     1      46.428   1.346   8.082  0.00  0.00    +0.000 C 
ATOM     14  C   UNL     1      47.021   1.126   6.689  0.00  0.00    +0.000 C 
ATOM     15  C   UNL     1      47.682   2.399   6.170  0.00  0.00    +0.000 C 
ATOM     16  C   UNL     1      46.749   3.602   6.284  0.00  0.00    +0.000 C 
ATOM     17  N   UNL     1      46.239   3.783   7.648  0.00  0.00    +0.000 NA
ATOM     18  H   UNL     1      45.569   4.556   7.624  0.00  0.00    +0.000 HD
ENDBRANCH   9  12
ENDBRANCH   7   8
BRANCH   7  19
ATOM     19  C   UNL     1      43.581   5.221  11.308  0.00  0.00    +0.000 C 
ATOM     20  O   UNL     1      43.054   5.533  10.243  0.00  0.00    +0.000 OA
BRANCH  19  22
ATOM     21  C   UNL     1      42.928   4.474  13.436  0.00  0.00    +0.000 C 
ATOM     22  O   UNL     1      43.077   5.571  12.530  0.00  0.00    +0.000 OA
ENDBRANCH  19  22
ENDBRANCH   7  19
ENDBRANCH   1   7
BRANCH   4  23
ATOM     23  C   UNL     1      48.889   7.338  14.436  0.00  0.00    +0.000 C 
BRANCH  23  24
ATOM     24  N   UNL     1      50.125   7.535  13.716  0.00  0.00    +0.000 N 
ATOM     25  C   UNL     1      50.451   8.749  13.171  0.00  0.00    +0.000 C 
ATOM     26  O   UNL     1      49.734   9.736  13.307  0.00  0.00    +0.000 OA
ATOM     27  H   UNL     1      50.611   6.700  13.403  0.00  0.00    +0.000 HD
BRANCH  25  28
ATOM     28  C   UNL     1      51.736   8.827  12.463  0.00  0.00    +0.000 A 
ATOM     29  C   UNL     1      51.760   9.208  11.128  0.00  0.00    +0.000 A 
ATOM     30  S   UNL     1      53.328   9.285  10.464  0.00  0.00    +0.000 S 
ATOM     31  C   UNL     1      54.029   8.768  11.924  0.00  0.00    +0.000 A 
ATOM     32  N   UNL     1      55.376   8.591  12.024  0.00  0.00    +0.000 NA
ATOM     33  C   UNL     1      55.772   8.165  13.178  0.00  0.00    +0.000 A 
ATOM     34  N   UNL     1      54.944   7.908  14.240  0.00  0.00    +0.000 N 
ATOM     35  C   UNL     1      53.582   8.097  14.193  0.00  0.00    +0.000 A 
ATOM     36  O   UNL     1      52.880   7.899  15.175  0.00  0.00    +0.000 OA
ATOM     37  C   UNL     1      53.086   8.558  12.911  0.00  0.00    +0.000 A 
ATOM     38  H   UNL     1      55.320   7.587  15.120  0.00  0.00    +0.000 HD
ENDBRANCH  25  28
ENDBRANCH  23  24
ENDBRANCH   4  23
TORSDOF 8
ENDMDL
