MODEL 1
REMARK VINA RESULT:    -7.980      0.000      0.000
REMARK INTER + INTRA:         -10.708
REMARK INTER:                 -10.313
REMARK INTRA:                  -0.395
REMARK UNBOUND:                -0.395
REMARK  Name = 
REMARK  6 active torsions:
REMARK  status: ('A' for Active; 'I' for Inactive)
REMARK    1  A    between atoms: N_1  and  C_2
REMARK    2  A    between atoms: C_2  and  C_3
REMARK    3  A    between atoms: C_6  and  C_7
REMARK    4  A    between atoms: C_7  and  N_8
REMARK    5  A    between atoms: CA_13  and  C_14
REMARK    6  A    between atoms: C_14  and  OXT_16
REMARK                            x       y       z     vdW  Elec       q    Type
REMARK                         _______ _______ _______ _____ _____    ______ ____
ROOT
ATOM      1  N   UNL     1      43.889   5.265  10.246  0.00  0.00    +0.000 N 
ATOM      2  C   UNL     1      44.686   5.746  11.298  0.00  0.00    +0.000 A 
ATOM      3  C   UNL     1      44.846   7.124  11.439  0.00  0.00    +0.000 A 
ATOM      4  C   UNL     1      45.654   7.627  12.462  0.00  0.00    +0.000 A 
ATOM      5  C   UNL     1      46.288   6.744  13.324  0.00  0.00    +0.000 A 
ATOM      6  CA  UNL     1      46.084   5.392  13.111  0.00  0.00    +0.000 A 
ATOM      7  N   UNL     1      45.307   4.875  12.118  0.00  0.00    +0.000 NA
ATOM      8  H   UNL     1      42.974   5.706  10.277  0.00  0.00    +0.000 HD
ENDROOT
BRANCH   6   9
ATOM      9  C   UNL     1      46.719   4.379  14.000  0.00  0.00    +0.000 C 
ATOM     10  O   UNL     1      46.998   3.241  13.676  0.00  0.00    +0.000 OA
BRANCH   9  11
ATOM     11  OXT UNL     1      46.954   4.906  15.229  0.00  0.00    +0.000 OA
ATOM     12  HXT UNL     1      46.457   4.376  15.894  0.00  0.00    +0.000 HD
ENDBRANCH   9  11
ENDBRANCH   6   9
BRANCH   1  13
ATOM     13  C   UNL     1      43.812   3.811  10.204  0.00  0.00    +0.000 C 
BRANCH  13  17
ATOM     14  C   UNL     1      46.640   2.148   7.502  0.00  0.00    +0.000 A 
ATOM     15  C   UNL     1      46.330   3.501   7.383  0.00  0.00    +0.000 A 
ATOM     16  C   UNL     1      45.378   4.052   8.235  0.00  0.00    +0.000 A 
ATOM     17  C   UNL     1      44.762   3.245   9.192  0.00  0.00    +0.000 A 
ATOM     18  C   UNL     1      45.105   1.898   9.212  0.00  0.00    +0.000 A 
ATOM     19  N   UNL     1      46.026   1.335   8.398  0.00  0.00    +0.000 NA
BRANCH  14  20
ATOM     20  C   UNL     1      47.741   1.546   6.655  0.00  0.00    +0.000 C 
BRANCH  20  21
ATOM     21  N   UNL     1      48.716   2.551   6.219  0.00  0.00    +0.000 NA
ATOM     22  H   UNL     1      48.781   2.526   5.204  0.00  0.00    +0.000 HD
ATOM     23  H   UNL     1      49.632   2.265   6.567  0.00  0.00    +0.000 HD
ENDBRANCH  20  21
ENDBRANCH  14  20
ENDBRANCH  13  17
ENDBRANCH   1  13
TORSDOF 6
ENDMDL
MODEL 2
REMARK VINA RESULT:    -7.449      2.083      2.836
REMARK INTER + INTRA:         -10.022
REMARK INTER:                  -9.655
REMARK INTRA:                  -0.367
REMARK UNBOUND:                -0.395
REMARK  Name = 
REMARK  6 active torsions:
REMARK  status: ('A' for Active; 'I' for Inactive)
REMARK    1  A    between atoms: N_1  and  C_2
REMARK    2  A    between atoms: C_2  and  C_3
REMARK    3  A    between atoms: C_6  and  C_7
REMARK    4  A    between atoms: C_7  and  N_8
REMARK    5  A    between atoms: CA_13  and  C_14
REMARK    6  A    between atoms: C_14  and  OXT_16
REMARK                            x       y       z     vdW  Elec       q    Type
REMARK                         _______ _______ _______ _____ _____    ______ ____
ROOT
ATOM      1  N   UNL     1      44.961   2.726  11.530  0.00  0.00    +0.000 N 
ATOM      2  C   UNL     1      45.495   3.842  12.194  0.00  0.00    +0.000 A 
ATOM      3  C   UNL     1      46.182   3.642  13.392  0.00  0.00    +0.000 A 
ATOM      4  C   UNL     1      46.701   4.737  14.085  0.00  0.00    +0.000 A 
ATOM      5  C   UNL     1      46.524   6.014  13.570  0.00  0.00    +0.000 A 
ATOM      6  CA  UNL     1      45.824   6.127  12.382  0.00  0.00    +0.000 A 
ATOM      7  N   UNL     1      45.302   5.076  11.689  0.00  0.00    +0.000 NA
ATOM      8  H   UNL     1      45.687   2.030  11.385  0.00  0.00    +0.000 HD
ENDROOT
BRANCH   6   9
ATOM      9  C   UNL     1      45.602   7.461  11.756  0.00  0.00    +0.000 C 
ATOM     10  O   UNL     1      46.237   8.466  12.009  0.00  0.00    +0.000 OA
BRANCH   9  11
ATOM     11  OXT UNL     1      44.590   7.400  10.852  0.00  0.00    +0.000 OA
ATOM     12  HXT UNL     1      44.499   6.466  10.551  0.00  0.00    +0.000 HD
ENDBRANCH   9  11
ENDBRANCH   6   9
BRANCH   1  13
ATOM     13  C   UNL     1      44.262   3.073  10.300  0.00  0.00    +0.000 C 
BRANCH  13  17
ATOM     14  C   UNL     1      46.646   2.785   6.793  0.00  0.00    +0.000 A 
ATOM     15  C   UNL     1      46.483   1.644   7.576  0.00  0.00    +0.000 A 
ATOM     16  C   UNL     1      45.738   1.731   8.747  0.00  0.00    +0.000 A 
ATOM     17  C   UNL     1      45.163   2.950   9.108  0.00  0.00    +0.000 A 
ATOM     18  C   UNL     1      45.412   4.044   8.287  0.00  0.00    +0.000 A 
ATOM     19  N   UNL     1      46.130   3.990   7.144  0.00  0.00    +0.000 NA
BRANCH  14  20
ATOM     20  C   UNL     1      47.369   2.695   5.466  0.00  0.00    +0.000 C 
BRANCH  20  21
ATOM     21  N   UNL     1      48.549   1.827   5.536  0.00  0.00    +0.000 NA
ATOM     22  H   UNL     1      49.357   2.345   5.199  0.00  0.00    +0.000 HD
ATOM     23  H   UNL     1      48.410   1.062   4.874  0.00  0.00    +0.000 HD
ENDBRANCH  20  21
ENDBRANCH  14  20
ENDBRANCH  13  17
ENDBRANCH   1  13
TORSDOF 6
ENDMDL
MODEL 3
REMARK VINA RESULT:    -6.867      2.660      3.276
REMARK INTER + INTRA:          -9.270
REMARK INTER:                  -8.836
REMARK INTRA:                  -0.434
REMARK UNBOUND:                -0.395
REMARK  Name = 
REMARK  6 active torsions:
REMARK  status: ('A' for Active; 'I' for Inactive)
REMARK    1  A    between atoms: N_1  and  C_2
REMARK    2  A    between atoms: C_2  and  C_3
REMARK    3  A    between atoms: C_6  and  C_7
REMARK    4  A    between atoms: C_7  and  N_8
REMARK    5  A    between atoms: CA_13  and  C_14
REMARK    6  A    between atoms: C_14  and  OXT_16
REMARK                            x       y       z     vdW  Elec       q    Type
REMARK                         _______ _______ _______ _____ _____    ______ ____
ROOT
ATOM      1  N   UNL     1      45.430   4.843  11.766  0.00  0.00    +0.000 N 
ATOM      2  C   UNL     1      45.544   6.217  12.034  0.00  0.00    +0.000 A 
ATOM      3  C   UNL     1      46.443   6.634  13.016  0.00  0.00    +0.000 A 
ATOM      4  C   UNL     1      46.558   7.992  13.319  0.00  0.00    +0.000 A 
ATOM      5  C   UNL     1      45.770   8.910  12.638  0.00  0.00    +0.000 A 
ATOM      6  CA  UNL     1      44.897   8.414  11.686  0.00  0.00    +0.000 A 
ATOM      7  N   UNL     1      44.762   7.094  11.374  0.00  0.00    +0.000 NA
ATOM      8  H   UNL     1      46.347   4.453  11.565  0.00  0.00    +0.000 HD
ENDROOT
BRANCH   6   9
ATOM      9  C   UNL     1      44.027   9.334  10.902  0.00  0.00    +0.000 C 
ATOM     10  O   UNL     1      44.365  10.420  10.473  0.00  0.00    +0.000 OA
BRANCH   9  11
ATOM     11  OXT UNL     1      42.797   8.788  10.722  0.00  0.00    +0.000 OA
ATOM     12  HXT UNL     1      42.621   8.167  11.467  0.00  0.00    +0.000 HD
ENDBRANCH   9  11
ENDBRANCH   6   9
BRANCH   1  13
ATOM     13  C   UNL     1      44.452   4.542  10.729  0.00  0.00    +0.000 C 
BRANCH  13  17
ATOM     14  C   UNL     1      46.417   2.550   7.529  0.00  0.00    +0.000 A 
ATOM     15  C   UNL     1      46.402   3.944   7.530  0.00  0.00    +0.000 A 
ATOM     16  C   UNL     1      45.730   4.610   8.550  0.00  0.00    +0.000 A 
ATOM     17  C   UNL     1      45.095   3.875   9.551  0.00  0.00    +0.000 A 
ATOM     18  C   UNL     1      45.129   2.489   9.447  0.00  0.00    +0.000 A 
ATOM     19  N   UNL     1      45.773   1.815   8.470  0.00  0.00    +0.000 NA
BRANCH  14  20
ATOM     20  C   UNL     1      47.222   1.803   6.488  0.00  0.00    +0.000 C 
BRANCH  20  21
ATOM     21  N   UNL     1      48.587   2.324   6.364  0.00  0.00    +0.000 NA
ATOM     22  H   UNL     1      48.787   2.487   5.380  0.00  0.00    +0.000 HD
ATOM     23  H   UNL     1      49.228   1.588   6.664  0.00  0.00    +0.000 HD
ENDBRANCH  20  21
ENDBRANCH  14  20
ENDBRANCH  13  17
ENDBRANCH   1  13
TORSDOF 6
ENDMDL
MODEL 4
REMARK VINA RESULT:    -6.412      2.818      6.082
REMARK INTER + INTRA:          -8.681
REMARK INTER:                  -8.240
REMARK INTRA:                  -0.442
REMARK UNBOUND:                -0.395
REMARK  Name = 
REMARK  6 active torsions:
REMARK  status: ('A' for Active; 'I' for Inactive)
REMARK    1  A    between atoms: N_1  and  C_2
REMARK    2  A    between atoms: C_2  and  C_3
REMARK    3  A    between atoms: C_6  and  C_7
REMARK    4  A    between atoms: C_7  and  N_8
REMARK    5  A    between atoms: CA_13  and  C_14
REMARK    6  A    between atoms: C_14  and  OXT_16
REMARK                            x       y       z     vdW  Elec       q    Type
REMARK                         _______ _______ _______ _____ _____    ______ ____
ROOT
ATOM      1  N   UNL     1      45.807   6.336  10.103  0.00  0.00    +0.000 N 
ATOM      2  C   UNL     1      45.322   5.028   9.946  0.00  0.00    +0.000 A 
ATOM      3  C   UNL     1      45.475   4.400   8.710  0.00  0.00    +0.000 A 
ATOM      4  C   UNL     1      44.979   3.109   8.522  0.00  0.00    +0.000 A 
ATOM      5  C   UNL     1      44.336   2.468   9.571  0.00  0.00    +0.000 A 
ATOM      6  CA  UNL     1      44.216   3.163  10.762  0.00  0.00    +0.000 A 
ATOM      7  N   UNL     1      44.686   4.425  10.971  0.00  0.00    +0.000 NA
ATOM      8  H   UNL     1      46.785   6.376   9.828  0.00  0.00    +0.000 HD
ENDROOT
BRANCH   6   9
ATOM      9  C   UNL     1      43.550   2.540  11.940  0.00  0.00    +0.000 C 
ATOM     10  O   UNL     1      43.550   2.999  13.066  0.00  0.00    +0.000 OA
BRANCH   9  11
ATOM     11  OXT UNL     1      42.931   1.386  11.582  0.00  0.00    +0.000 OA
ATOM     12  HXT UNL     1      42.755   1.416  10.612  0.00  0.00    +0.000 HD
ENDBRANCH   9  11
ENDBRANCH   6   9
BRANCH   1  13
ATOM     13  C   UNL     1      45.574   6.878  11.434  0.00  0.00    +0.000 C 
BRANCH  13  17
ATOM     14  C   UNL     1      49.087   7.223  13.803  0.00  0.00    +0.000 A 
ATOM     15  C   UNL     1      48.801   8.240  12.894  0.00  0.00    +0.000 A 
ATOM     16  C   UNL     1      47.676   8.123  12.084  0.00  0.00    +0.000 A 
ATOM     17  C   UNL     1      46.855   7.001  12.203  0.00  0.00    +0.000 A 
ATOM     18  C   UNL     1      47.240   6.020  13.110  0.00  0.00    +0.000 A 
ATOM     19  N   UNL     1      48.325   6.106  13.909  0.00  0.00    +0.000 NA
BRANCH  14  20
ATOM     20  C   UNL     1      50.248   7.371  14.763  0.00  0.00    +0.000 C 
BRANCH  20  21
ATOM     21  N   UNL     1      50.185   6.401  15.861  0.00  0.00    +0.000 NA
ATOM     22  H   UNL     1      51.020   5.819  15.832  0.00  0.00    +0.000 HD
ATOM     23  H   UNL     1      49.400   5.775  15.677  0.00  0.00    +0.000 HD
ENDBRANCH  20  21
ENDBRANCH  14  20
ENDBRANCH  13  17
ENDBRANCH   1  13
TORSDOF 6
ENDMDL
MODEL 5
REMARK VINA RESULT:    -6.326      3.861      6.072
REMARK INTER + INTRA:          -8.571
REMARK INTER:                  -8.145
REMARK INTRA:                  -0.426
REMARK UNBOUND:                -0.395
REMARK  Name = 
REMARK  6 active torsions:
REMARK  status: ('A' for Active; 'I' for Inactive)
REMARK    1  A    between atoms: N_1  and  C_2
REMARK    2  A    between atoms: C_2  and  C_3
REMARK    3  A    between atoms: C_6  and  C_7
REMARK    4  A    between atoms: C_7  and  N_8
REMARK    5  A    between atoms: CA_13  and  C_14
REMARK    6  A    between atoms: C_14  and  OXT_16
REMARK                            x       y       z     vdW  Elec       q    Type
REMARK                         _______ _______ _______ _____ _____    ______ ____
ROOT
ATOM      1  N   UNL     1      47.914   6.386  15.536  0.00  0.00    +0.000 N 
ATOM      2  C   UNL     1      48.339   5.569  16.596  0.00  0.00    +0.000 A 
ATOM      3  C   UNL     1      48.209   6.045  17.901  0.00  0.00    +0.000 A 
ATOM      4  C   UNL     1      48.647   5.261  18.971  0.00  0.00    +0.000 A 
ATOM      5  C   UNL     1      49.209   4.018  18.718  0.00  0.00    +0.000 A 
ATOM      6  CA  UNL     1      49.309   3.623  17.396  0.00  0.00    +0.000 A 
ATOM      7  N   UNL     1      48.895   4.370  16.333  0.00  0.00    +0.000 NA
ATOM      8  H   UNL     1      46.953   6.679  15.690  0.00  0.00    +0.000 HD
ENDROOT
BRANCH   6   9
ATOM      9  C   UNL     1      49.888   2.297  17.042  0.00  0.00    +0.000 C 
ATOM     10  O   UNL     1      49.657   1.685  16.017  0.00  0.00    +0.000 OA
BRANCH   9  11
ATOM     11  OXT UNL     1      50.723   1.865  18.022  0.00  0.00    +0.000 OA
ATOM     12  HXT UNL     1      50.418   0.977  18.319  0.00  0.00    +0.000 HD
ENDBRANCH   9  11
ENDBRANCH   6   9
BRANCH   1  13
ATOM     13  C   UNL     1      48.113   5.777  14.228  0.00  0.00    +0.000 C 
BRANCH  13  17
ATOM     14  C   UNL     1      44.582   4.165  12.495  0.00  0.00    +0.000 A 
ATOM     15  C   UNL     1      44.668   5.547  12.655  0.00  0.00    +0.000 A 
ATOM     16  C   UNL     1      45.800   6.087  13.256  0.00  0.00    +0.000 A 
ATOM     17  C   UNL     1      46.827   5.240  13.676  0.00  0.00    +0.000 A 
ATOM     18  C   UNL     1      46.638   3.873  13.511  0.00  0.00    +0.000 A 
ATOM     19  N   UNL     1      45.550   3.320  12.931  0.00  0.00    +0.000 NA
BRANCH  14  20
ATOM     20  C   UNL     1      43.407   3.560  11.758  0.00  0.00    +0.000 C 
BRANCH  20  21
ATOM     21  N   UNL     1      43.329   2.107  11.937  0.00  0.00    +0.000 NA
ATOM     22  H   UNL     1      42.353   1.841  12.042  0.00  0.00    +0.000 HD
ATOM     23  H   UNL     1      43.779   1.880  12.825  0.00  0.00    +0.000 HD
ENDBRANCH  20  21
ENDBRANCH  14  20
ENDBRANCH  13  17
ENDBRANCH   1  13
TORSDOF 6
ENDMDL
MODEL 6
REMARK VINA RESULT:    -6.231      3.910      7.685
REMARK INTER + INTRA:          -8.448
REMARK INTER:                  -8.148
REMARK INTRA:                  -0.300
REMARK UNBOUND:                -0.395
REMARK  Name = 
REMARK  6 active torsions:
REMARK  status: ('A' for Active; 'I' for Inactive)
REMARK    1  A    between atoms: N_1  and  C_2
REMARK    2  A    between atoms: C_2  and  C_3
REMARK    3  A    between atoms: C_6  and  C_7
REMARK    4  A    between atoms: C_7  and  N_8
REMARK    5  A    between atoms: CA_13  and  C_14
REMARK    6  A    between atoms: C_14  and  OXT_16
REMARK                            x       y       z     vdW  Elec       q    Type
REMARK                         _______ _______ _______ _____ _____    ______ ____
ROOT
ATOM      1  N   UNL     1      46.548   5.571  14.041  0.00  0.00    +0.000 N 
ATOM      2  C   UNL     1      45.603   5.480  13.007  0.00  0.00    +0.000 A 
ATOM      3  C   UNL     1      45.084   6.658  12.469  0.00  0.00    +0.000 A 
ATOM      4  C   UNL     1      44.125   6.594  11.456  0.00  0.00    +0.000 A 
ATOM      5  C   UNL     1      43.698   5.354  11.001  0.00  0.00    +0.000 A 
ATOM      6  CA  UNL     1      44.255   4.235  11.593  0.00  0.00    +0.000 A 
ATOM      7  N   UNL     1      45.188   4.268  12.586  0.00  0.00    +0.000 NA
ATOM      8  H   UNL     1      47.316   6.173  13.755  0.00  0.00    +0.000 HD
ENDROOT
BRANCH   6   9
ATOM      9  C   UNL     1      43.860   2.868  11.152  0.00  0.00    +0.000 C 
ATOM     10  O   UNL     1      42.944   2.219  11.621  0.00  0.00    +0.000 OA
BRANCH   9  11
ATOM     11  OXT UNL     1      44.661   2.444  10.141  0.00  0.00    +0.000 OA
ATOM     12  HXT UNL     1      45.426   1.962  10.533  0.00  0.00    +0.000 HD
ENDBRANCH   9  11
ENDBRANCH   6   9
BRANCH   1  13
ATOM     13  C   UNL     1      47.000   4.272  14.520  0.00  0.00    +0.000 C 
BRANCH  13  17
ATOM     14  C   UNL     1      48.613   4.516  18.445  0.00  0.00    +0.000 A 
ATOM     15  C   UNL     1      47.865   3.390  18.108  0.00  0.00    +0.000 A 
ATOM     16  C   UNL     1      47.298   3.313  16.840  0.00  0.00    +0.000 A 
ATOM     17  C   UNL     1      47.496   4.354  15.932  0.00  0.00    +0.000 A 
ATOM     18  C   UNL     1      48.223   5.455  16.369  0.00  0.00    +0.000 A 
ATOM     19  N   UNL     1      48.786   5.558  17.593  0.00  0.00    +0.000 NA
BRANCH  14  20
ATOM     20  C   UNL     1      49.322   4.582  19.781  0.00  0.00    +0.000 C 
BRANCH  20  21
ATOM     21  N   UNL     1      48.541   3.955  20.853  0.00  0.00    +0.000 NA
ATOM     22  H   UNL     1      47.909   3.271  20.441  0.00  0.00    +0.000 HD
ATOM     23  H   UNL     1      47.947   4.675  21.266  0.00  0.00    +0.000 HD
ENDBRANCH  20  21
ENDBRANCH  14  20
ENDBRANCH  13  17
ENDBRANCH   1  13
TORSDOF 6
ENDMDL
MODEL 7
REMARK VINA RESULT:    -6.193      2.765      4.033
REMARK INTER + INTRA:          -8.398
REMARK INTER:                  -8.043
REMARK INTRA:                  -0.355
REMARK UNBOUND:                -0.395
REMARK  Name = 
REMARK  6 active torsions:
REMARK  status: ('A' for Active; 'I' for Inactive)
REMARK    1  A    between atoms: N_1  and  C_2
REMARK    2  A    between atoms: C_2  and  C_3
REMARK    3  A    between atoms: C_6  and  C_7
REMARK    4  A    between atoms: C_7  and  N_8
REMARK    5  A    between atoms: CA_13  and  C_14
REMARK    6  A    between atoms: C_14  and  OXT_16
REMARK                            x       y       z     vdW  Elec       q    Type
REMARK                         _______ _______ _______ _____ _____    ______ ____
ROOT
ATOM      1  N   UNL     1      46.798   5.921  13.721  0.00  0.00    +0.000 N 
ATOM      2  C   UNL     1      47.579   5.737  14.874  0.00  0.00    +0.000 A 
ATOM      3  C   UNL     1      48.637   6.614  15.112  0.00  0.00    +0.000 A 
ATOM      4  C   UNL     1      49.443   6.437  16.238  0.00  0.00    +0.000 A 
ATOM      5  C   UNL     1      49.180   5.386  17.105  0.00  0.00    +0.000 A 
ATOM      6  CA  UNL     1      48.118   4.556  16.793  0.00  0.00    +0.000 A 
ATOM      7  N   UNL     1      47.319   4.702  15.698  0.00  0.00    +0.000 NA
ATOM      8  H   UNL     1      46.453   6.876  13.687  0.00  0.00    +0.000 HD
ENDROOT
BRANCH   6   9
ATOM      9  C   UNL     1      47.762   3.413  17.679  0.00  0.00    +0.000 C 
ATOM     10  O   UNL     1      48.499   2.915  18.508  0.00  0.00    +0.000 OA
BRANCH   9  11
ATOM     11  OXT UNL     1      46.489   3.004  17.440  0.00  0.00    +0.000 OA
ATOM     12  HXT UNL     1      46.040   2.864  18.306  0.00  0.00    +0.000 HD
ENDBRANCH   9  11
ENDBRANCH   6   9
BRANCH   1  13
ATOM     13  C   UNL     1      45.735   4.934  13.586  0.00  0.00    +0.000 C 
BRANCH  13  17
ATOM     14  C   UNL     1      45.060   3.948   9.507  0.00  0.00    +0.000 A 
ATOM     15  C   UNL     1      45.486   5.239   9.812  0.00  0.00    +0.000 A 
ATOM     16  C   UNL     1      45.674   5.589  11.145  0.00  0.00    +0.000 A 
ATOM     17  C   UNL     1      45.443   4.643  12.145  0.00  0.00    +0.000 A 
ATOM     18  C   UNL     1      44.982   3.392  11.749  0.00  0.00    +0.000 A 
ATOM     19  N   UNL     1      44.791   3.024  10.463  0.00  0.00    +0.000 NA
BRANCH  14  20
ATOM     20  C   UNL     1      44.942   3.512   8.062  0.00  0.00    +0.000 C 
BRANCH  20  21
ATOM     21  N   UNL     1      46.072   3.974   7.250  0.00  0.00    +0.000 NA
ATOM     22  H   UNL     1      46.477   4.797   7.690  0.00  0.00    +0.000 HD
ATOM     23  H   UNL     1      45.701   4.289   6.353  0.00  0.00    +0.000 HD
ENDBRANCH  20  21
ENDBRANCH  14  20
ENDBRANCH  13  17
ENDBRANCH   1  13
TORSDOF 6
ENDMDL
MODEL 8
REMARK VINA RESULT:    -6.089      3.273      6.487
REMARK INTER + INTRA:          -8.264
REMARK INTER:                  -7.875
REMARK INTRA:                  -0.389
REMARK UNBOUND:                -0.395
REMARK  Name = 
REMARK  6 active torsions:
REMARK  status: ('A' for Active; 'I' for Inactive)
REMARK    1  A    between atoms: N_1  and  C_2
REMARK    2  A    between atoms: C_2  and  C_3
REMARK    3  A    between atoms: C_6  and  C_7
REMARK    4  A    between atoms: C_7  and  N_8
REMARK    5  A    between atoms: CA_13  and  C_14
REMARK    6  A    between atoms: C_14  and  OXT_16
REMARK                            x       y       z     vdW  Elec       q    Type
REMARK                         _______ _______ _______ _____ _____    ______ ____
ROOT
ATOM      1  N   UNL     1      44.566   6.289  13.023  0.00  0.00    +0.000 N 
ATOM      2  C   UNL     1      44.330   5.182  12.192  0.00  0.00    +0.000 A 
ATOM      3  C   UNL     1      43.683   4.069  12.727  0.00  0.00    +0.000 A 
ATOM      4  C   UNL     1      43.459   2.946  11.928  0.00  0.00    +0.000 A 
ATOM      5  C   UNL     1      43.888   2.954  10.608  0.00  0.00    +0.000 A 
ATOM      6  CA  UNL     1      44.530   4.094  10.156  0.00  0.00    +0.000 A 
ATOM      7  N   UNL     1      44.766   5.200  10.916  0.00  0.00    +0.000 NA
ATOM      8  H   UNL     1      43.696   6.586  13.457  0.00  0.00    +0.000 HD
ENDROOT
BRANCH   6   9
ATOM      9  C   UNL     1      45.009   4.187   8.749  0.00  0.00    +0.000 C 
ATOM     10  O   UNL     1      45.913   4.903   8.364  0.00  0.00    +0.000 OA
BRANCH   9  11
ATOM     11  OXT UNL     1      44.299   3.351   7.948  0.00  0.00    +0.000 OA
ATOM     12  HXT UNL     1      43.339   3.522   8.095  0.00  0.00    +0.000 HD
ENDBRANCH   9  11
ENDBRANCH   6   9
BRANCH   1  13
ATOM     13  C   UNL     1      45.257   7.378  12.345  0.00  0.00    +0.000 C 
BRANCH  13  17
ATOM     14  C   UNL     1      49.167   7.700  13.981  0.00  0.00    +0.000 A 
ATOM     15  C   UNL     1      48.284   8.761  14.168  0.00  0.00    +0.000 A 
ATOM     16  C   UNL     1      47.013   8.688  13.606  0.00  0.00    +0.000 A 
ATOM     17  C   UNL     1      46.647   7.555  12.877  0.00  0.00    +0.000 A 
ATOM     18  C   UNL     1      47.607   6.564  12.709  0.00  0.00    +0.000 A 
ATOM     19  N   UNL     1      48.847   6.607  13.243  0.00  0.00    +0.000 NA
BRANCH  14  20
ATOM     20  C   UNL     1      50.518   7.712  14.662  0.00  0.00    +0.000 C 
BRANCH  20  21
ATOM     21  N   UNL     1      50.673   6.598  15.605  0.00  0.00    +0.000 NA
ATOM     22  H   UNL     1      50.034   5.853  15.338  0.00  0.00    +0.000 HD
ATOM     23  H   UNL     1      50.360   6.922  16.521  0.00  0.00    +0.000 HD
ENDBRANCH  20  21
ENDBRANCH  14  20
ENDBRANCH  13  17
ENDBRANCH   1  13
TORSDOF 6
ENDMDL
MODEL 9
REMARK VINA RESULT:    -5.961      3.214      6.471
REMARK INTER + INTRA:          -8.098
REMARK INTER:                  -7.668
REMARK INTRA:                  -0.430
REMARK UNBOUND:                -0.395
REMARK  Name = 
REMARK  6 active torsions:
REMARK  status: ('A' for Active; 'I' for Inactive)
REMARK    1  A    between atoms: N_1  and  C_2
REMARK    2  A    between atoms: C_2  and  C_3
REMARK    3  A    between atoms: C_6  and  C_7
REMARK    4  A    between atoms: C_7  and  N_8
REMARK    5  A    between atoms: CA_13  and  C_14
REMARK    6  A    between atoms: C_14  and  OXT_16
REMARK                            x       y       z     vdW  Elec       q    Type
REMARK                         _______ _______ _______ _____ _____    ______ ____
ROOT
ATOM      1  N   UNL     1      44.833   5.139  11.350  0.00  0.00    +0.000 N 
ATOM      2  C   UNL     1      44.863   4.128  10.375  0.00  0.00    +0.000 A 
ATOM      3  C   UNL     1      44.179   2.938  10.625  0.00  0.00    +0.000 A 
ATOM      4  C   UNL     1      44.214   1.908   9.683  0.00  0.00    +0.000 A 
ATOM      5  C   UNL     1      44.933   2.084   8.509  0.00  0.00    +0.000 A 
ATOM      6  CA  UNL     1      45.590   3.290   8.342  0.00  0.00    +0.000 A 
ATOM      7  N   UNL     1      45.577   4.309   9.247  0.00  0.00    +0.000 NA
ATOM      8  H   UNL     1      43.870   5.353  11.595  0.00  0.00    +0.000 HD
ENDROOT
BRANCH   6   9
ATOM      9  C   UNL     1      46.372   3.562   7.104  0.00  0.00    +0.000 C 
ATOM     10  O   UNL     1      46.361   2.871   6.104  0.00  0.00    +0.000 OA
BRANCH   9  11
ATOM     11  OXT UNL     1      47.099   4.701   7.241  0.00  0.00    +0.000 OA
ATOM     12  HXT UNL     1      48.043   4.491   7.051  0.00  0.00    +0.000 HD
ENDBRANCH   9  11
ENDBRANCH   6   9
BRANCH   1  13
ATOM     13  C   UNL     1      45.593   6.322  10.970  0.00  0.00    +0.000 C 
BRANCH  13  17
ATOM     14  C   UNL     1      48.787   6.938  13.706  0.00  0.00    +0.000 A 
ATOM     15  C   UNL     1      48.687   7.787  12.606  0.00  0.00    +0.000 A 
ATOM     16  C   UNL     1      47.670   7.575  11.681  0.00  0.00    +0.000 A 
ATOM     17  C   UNL     1      46.769   6.527  11.876  0.00  0.00    +0.000 A 
ATOM     18  C   UNL     1      46.970   5.707  12.981  0.00  0.00    +0.000 A 
ATOM     19  N   UNL     1      47.947   5.889  13.896  0.00  0.00    +0.000 NA
BRANCH  14  20
ATOM     20  C   UNL     1      49.822   7.206  14.777  0.00  0.00    +0.000 C 
BRANCH  20  21
ATOM     21  N   UNL     1      49.738   6.243  15.881  0.00  0.00    +0.000 NA
ATOM     22  H   UNL     1      50.360   6.546  16.627  0.00  0.00    +0.000 HD
ATOM     23  H   UNL     1      50.112   5.354  15.547  0.00  0.00    +0.000 HD
ENDBRANCH  20  21
ENDBRANCH  14  20
ENDBRANCH  13  17
ENDBRANCH   1  13
TORSDOF 6
ENDMDL
