MODEL 1
REMARK VINA RESULT:    -8.641      0.000      0.000
REMARK INTER + INTRA:         -11.157
REMARK INTER:                 -10.661
REMARK INTRA:                  -0.496
REMARK UNBOUND:                -0.496
REMARK  Name = 
REMARK  5 active torsions:
REMARK  status: ('A' for Active; 'I' for Inactive)
REMARK    1  A    between atoms: C_1  and  N_2
REMARK    2  A    between atoms: C_10  and  C_11
REMARK    3  A    between atoms: C_11  and  O_12
REMARK    4  A    between atoms: O_12  and  C_13
REMARK    5  A    between atoms: C_16  and  C_17
REMARK                            x       y       z     vdW  Elec       q    Type
REMARK                         _______ _______ _______ _____ _____    ______ ____
ROOT
ATOM      1  C   UNL     1      49.564   6.019  17.636  0.00  0.00    +0.000 C 
ATOM      2  N   UNL     1      49.102   5.523  16.341  0.00  0.00    +0.000 NA
ATOM      3  C   UNL     1      47.826   4.774  16.490  0.00  0.00    +0.000 C 
ATOM      4  C   UNL     1      47.212   4.324  15.133  0.00  0.00    +0.000 C 
ATOM      5  N   UNL     1      47.047   5.519  14.301  0.00  0.00    +0.000 N 
ATOM      6  C   UNL     1      46.060   5.557  13.329  0.00  0.00    +0.000 A 
ATOM      7  C   UNL     1      45.626   6.793  12.882  0.00  0.00    +0.000 A 
ATOM      8  C   UNL     1      44.585   6.822  11.990  0.00  0.00    +0.000 A 
ATOM      9  N   UNL     1      43.987   5.718  11.528  0.00  0.00    +0.000 NA
ATOM     10  C   UNL     1      44.458   4.547  12.005  0.00  0.00    +0.000 A 
ATOM     11  N   UNL     1      45.462   4.427  12.906  0.00  0.00    +0.000 NA
ATOM     12  C   UNL     1      48.320   6.208  14.044  0.00  0.00    +0.000 C 
ATOM     13  C   UNL     1      48.916   6.652  15.400  0.00  0.00    +0.000 C 
ENDROOT
BRANCH  10  14
ATOM     14  C   UNL     1      43.758   3.292  11.525  0.00  0.00    +0.000 C 
BRANCH  14  15
ATOM     15  O   UNL     1      43.460   3.381  10.124  0.00  0.00    +0.000 OA
BRANCH  15  16
ATOM     16  C   UNL     1      44.445   2.998   9.260  0.00  0.00    +0.000 A 
ATOM     17  C   UNL     1      45.025   1.735   9.173  0.00  0.00    +0.000 A 
ATOM     18  C   UNL     1      46.030   1.497   8.234  0.00  0.00    +0.000 A 
ATOM     19  C   UNL     1      46.427   2.541   7.408  0.00  0.00    +0.000 A 
ATOM     20  N   UNL     1      45.889   3.791   7.460  0.00  0.00    +0.000 NA
ATOM     21  C   UNL     1      44.914   3.979   8.386  0.00  0.00    +0.000 A 
BRANCH  19  22
ATOM     22  C   UNL     1      47.509   2.313   6.396  0.00  0.00    +0.000 C 
ATOM     23  N   UNL     1      47.548   3.216   5.369  0.00  0.00    +0.000 N 
ATOM     24  O   UNL     1      48.304   1.386   6.477  0.00  0.00    +0.000 OA
ATOM     25  H   UNL     1      46.875   3.972   5.336  0.00  0.00    +0.000 HD
ATOM     26  H   UNL     1      48.254   3.123   4.649  0.00  0.00    +0.000 HD
ENDBRANCH  19  22
ENDBRANCH  15  16
ENDBRANCH  14  15
ENDBRANCH  10  14
TORSDOF 4
ENDMDL
MODEL 2
REMARK VINA RESULT:    -7.633      1.559      1.886
REMARK INTER + INTRA:          -9.914
REMARK INTER:                  -9.461
REMARK INTRA:                  -0.452
REMARK UNBOUND:                -0.496
REMARK  Name = 
REMARK  5 active torsions:
REMARK  status: ('A' for Active; 'I' for Inactive)
REMARK    1  A    between atoms: C_1  and  N_2
REMARK    2  A    between atoms: C_10  and  C_11
REMARK    3  A    between atoms: C_11  and  O_12
REMARK    4  A    between atoms: O_12  and  C_13
REMARK    5  A    between atoms: C_16  and  C_17
REMARK                            x       y       z     vdW  Elec       q    Type
REMARK                         _______ _______ _______ _____ _____    ______ ____
ROOT
ATOM      1  C   UNL     1      51.114   8.658  15.132  0.00  0.00    +0.000 C 
ATOM      2  N   UNL     1      50.352   7.922  14.126  0.00  0.00    +0.000 NA
ATOM      3  C   UNL     1      49.346   7.038  14.773  0.00  0.00    +0.000 C 
ATOM      4  C   UNL     1      48.414   6.316  13.757  0.00  0.00    +0.000 C 
ATOM      5  N   UNL     1      47.780   7.345  12.928  0.00  0.00    +0.000 N 
ATOM      6  C   UNL     1      46.540   7.108  12.355  0.00  0.00    +0.000 A 
ATOM      7  C   UNL     1      45.773   8.196  11.975  0.00  0.00    +0.000 A 
ATOM      8  C   UNL     1      44.511   7.954  11.497  0.00  0.00    +0.000 A 
ATOM      9  N   UNL     1      43.999   6.724  11.372  0.00  0.00    +0.000 NA
ATOM     10  C   UNL     1      44.798   5.709  11.762  0.00  0.00    +0.000 A 
ATOM     11  N   UNL     1      46.045   5.858  12.270  0.00  0.00    +0.000 NA
ATOM     12  C   UNL     1      48.758   8.154  12.186  0.00  0.00    +0.000 C 
ATOM     13  C   UNL     1      49.674   8.867  13.208  0.00  0.00    +0.000 C 
ENDROOT
BRANCH  10  14
ATOM     14  C   UNL     1      44.213   4.315  11.669  0.00  0.00    +0.000 C 
BRANCH  14  15
ATOM     15  O   UNL     1      43.713   4.061  10.348  0.00  0.00    +0.000 OA
BRANCH  15  16
ATOM     16  C   UNL     1      44.589   3.513   9.455  0.00  0.00    +0.000 A 
ATOM     17  C   UNL     1      44.987   2.180   9.398  0.00  0.00    +0.000 A 
ATOM     18  C   UNL     1      45.898   1.770   8.422  0.00  0.00    +0.000 A 
ATOM     19  C   UNL     1      46.384   2.716   7.530  0.00  0.00    +0.000 A 
ATOM     20  N   UNL     1      46.023   4.028   7.549  0.00  0.00    +0.000 NA
ATOM     21  C   UNL     1      45.136   4.385   8.513  0.00  0.00    +0.000 A 
BRANCH  19  22
ATOM     22  C   UNL     1      47.367   2.301   6.477  0.00  0.00    +0.000 C 
ATOM     23  N   UNL     1      47.345   3.047   5.330  0.00  0.00    +0.000 N 
ATOM     24  O   UNL     1      48.139   1.362   6.626  0.00  0.00    +0.000 OA
ATOM     25  H   UNL     1      46.695   3.819   5.243  0.00  0.00    +0.000 HD
ATOM     26  H   UNL     1      47.983   2.824   4.576  0.00  0.00    +0.000 HD
ENDBRANCH  19  22
ENDBRANCH  15  16
ENDBRANCH  14  15
ENDBRANCH  10  14
TORSDOF 4
ENDMDL
MODEL 3
REMARK VINA RESULT:    -6.882      2.127      2.677
REMARK INTER + INTRA:          -8.987
REMARK INTER:                  -8.526
REMARK INTRA:                  -0.460
REMARK UNBOUND:                -0.496
REMARK  Name = 
REMARK  5 active torsions:
REMARK  status: ('A' for Active; 'I' for Inactive)
REMARK    1  A    between atoms: C_1  and  N_2
REMARK    2  A    between atoms: C_10  and  C_11
REMARK    3  A    between atoms: C_11  and  O_12
REMARK    4  A    between atoms: O_12  and  C_13
REMARK    5  A    between atoms: C_16  and  C_17
REMARK                            x       y       z     vdW  Elec       q    Type
REMARK                         _______ _______ _______ _____ _____    ______ ____
ROOT
ATOM      1  C   UNL     1      48.515   9.755  14.062  0.00  0.00    +0.000 C 
ATOM      2  N   UNL     1      47.984   8.780  13.112  0.00  0.00    +0.000 NA
ATOM      3  C   UNL     1      47.809   7.454  13.762  0.00  0.00    +0.000 C 
ATOM      4  C   UNL     1      47.130   6.399  12.843  0.00  0.00    +0.000 C 
ATOM      5  N   UNL     1      45.852   6.957  12.393  0.00  0.00    +0.000 N 
ATOM      6  C   UNL     1      44.804   6.112  12.060  0.00  0.00    +0.000 A 
ATOM      7  C   UNL     1      43.518   6.623  12.081  0.00  0.00    +0.000 A 
ATOM      8  C   UNL     1      42.482   5.756  11.842  0.00  0.00    +0.000 A 
ATOM      9  N   UNL     1      42.661   4.456  11.580  0.00  0.00    +0.000 NA
ATOM     10  C   UNL     1      43.939   4.025  11.577  0.00  0.00    +0.000 A 
ATOM     11  N   UNL     1      45.019   4.803  11.828  0.00  0.00    +0.000 NA
ATOM     12  C   UNL     1      46.016   8.210  11.642  0.00  0.00    +0.000 C 
ATOM     13  C   UNL     1      46.687   9.249  12.570  0.00  0.00    +0.000 C 
ENDROOT
BRANCH  10  14
ATOM     14  C   UNL     1      44.152   2.545  11.328  0.00  0.00    +0.000 C 
BRANCH  14  15
ATOM     15  O   UNL     1      43.745   2.191   9.998  0.00  0.00    +0.000 OA
BRANCH  15  16
ATOM     16  C   UNL     1      44.651   2.411   9.000  0.00  0.00    +0.000 A 
ATOM     17  C   UNL     1      44.782   3.572   8.242  0.00  0.00    +0.000 A 
ATOM     18  C   UNL     1      45.761   3.645   7.249  0.00  0.00    +0.000 A 
ATOM     19  C   UNL     1      46.582   2.543   7.046  0.00  0.00    +0.000 A 
ATOM     20  N   UNL     1      46.489   1.389   7.761  0.00  0.00    +0.000 NA
ATOM     21  C   UNL     1      45.525   1.361   8.717  0.00  0.00    +0.000 A 
BRANCH  19  22
ATOM     22  C   UNL     1      47.635   2.594   5.981  0.00  0.00    +0.000 C 
ATOM     23  N   UNL     1      48.919   2.413   6.419  0.00  0.00    +0.000 N 
ATOM     24  O   UNL     1      47.374   2.785   4.800  0.00  0.00    +0.000 OA
ATOM     25  H   UNL     1      49.098   2.256   7.404  0.00  0.00    +0.000 HD
ATOM     26  H   UNL     1      49.682   2.435   5.755  0.00  0.00    +0.000 HD
ENDBRANCH  19  22
ENDBRANCH  15  16
ENDBRANCH  14  15
ENDBRANCH  10  14
TORSDOF 4
ENDMDL
MODEL 4
REMARK VINA RESULT:    -6.719      4.013      8.307
REMARK INTER + INTRA:          -8.786
REMARK INTER:                  -8.308
REMARK INTRA:                  -0.478
REMARK UNBOUND:                -0.496
REMARK  Name = 
REMARK  5 active torsions:
REMARK  status: ('A' for Active; 'I' for Inactive)
REMARK    1  A    between atoms: C_1  and  N_2
REMARK    2  A    between atoms: C_10  and  C_11
REMARK    3  A    between atoms: C_11  and  O_12
REMARK    4  A    between atoms: O_12  and  C_13
REMARK    5  A    between atoms: C_16  and  C_17
REMARK                            x       y       z     vdW  Elec       q    Type
REMARK                         _______ _______ _______ _____ _____    ______ ____
ROOT
ATOM      1  C   UNL     1      44.175   3.165  10.504  0.00  0.00    +0.000 C 
ATOM      2  N   UNL     1      44.609   4.141  11.501  0.00  0.00    +0.000 NA
ATOM      3  C   UNL     1      45.563   3.525  12.460  0.00  0.00    +0.000 C 
ATOM      4  C   UNL     1      46.162   4.539  13.475  0.00  0.00    +0.000 C 
ATOM      5  N   UNL     1      46.785   5.622  12.708  0.00  0.00    +0.000 N 
ATOM      6  C   UNL     1      47.842   6.337  13.249  0.00  0.00    +0.000 A 
ATOM      7  C   UNL     1      48.687   7.013  12.386  0.00  0.00    +0.000 A 
ATOM      8  C   UNL     1      49.782   7.640  12.923  0.00  0.00    +0.000 A 
ATOM      9  N   UNL     1      50.058   7.636  14.232  0.00  0.00    +0.000 NA
ATOM     10  C   UNL     1      49.196   6.957  15.016  0.00  0.00    +0.000 A 
ATOM     11  N   UNL     1      48.106   6.289  14.569  0.00  0.00    +0.000 NA
ATOM     12  C   UNL     1      45.827   6.322  11.841  0.00  0.00    +0.000 C 
ATOM     13  C   UNL     1      45.244   5.303  10.835  0.00  0.00    +0.000 C 
ENDROOT
BRANCH  10  14
ATOM     14  C   UNL     1      49.523   6.906  16.495  0.00  0.00    +0.000 C 
BRANCH  14  15
ATOM     15  O   UNL     1      48.867   5.796  17.122  0.00  0.00    +0.000 OA
BRANCH  15  16
ATOM     16  C   UNL     1      49.590   4.644  17.245  0.00  0.00    +0.000 A 
ATOM     17  C   UNL     1      49.103   3.344  17.121  0.00  0.00    +0.000 A 
ATOM     18  C   UNL     1      49.971   2.262  17.277  0.00  0.00    +0.000 A 
ATOM     19  C   UNL     1      51.308   2.518  17.555  0.00  0.00    +0.000 A 
ATOM     20  N   UNL     1      51.826   3.771  17.685  0.00  0.00    +0.000 NA
ATOM     21  C   UNL     1      50.948   4.794  17.525  0.00  0.00    +0.000 A 
BRANCH  19  22
ATOM     22  C   UNL     1      52.258   1.373  17.733  0.00  0.00    +0.000 C 
ATOM     23  N   UNL     1      51.686   0.193  18.122  0.00  0.00    +0.000 N 
ATOM     24  O   UNL     1      53.464   1.480  17.547  0.00  0.00    +0.000 OA
ATOM     25  H   UNL     1      50.684   0.142  18.264  0.00  0.00    +0.000 HD
ATOM     26  H   UNL     1      52.267  -0.624  18.261  0.00  0.00    +0.000 HD
ENDBRANCH  19  22
ENDBRANCH  15  16
ENDBRANCH  14  15
ENDBRANCH  10  14
TORSDOF 4
ENDMDL
MODEL 5
REMARK VINA RESULT:    -6.580      2.946      5.103
REMARK INTER + INTRA:          -8.614
REMARK INTER:                  -8.163
REMARK INTRA:                  -0.451
REMARK UNBOUND:                -0.496
REMARK  Name = 
REMARK  5 active torsions:
REMARK  status: ('A' for Active; 'I' for Inactive)
REMARK    1  A    between atoms: C_1  and  N_2
REMARK    2  A    between atoms: C_10  and  C_11
REMARK    3  A    between atoms: C_11  and  O_12
REMARK    4  A    between atoms: O_12  and  C_13
REMARK    5  A    between atoms: C_16  and  C_17
REMARK                            x       y       z     vdW  Elec       q    Type
REMARK                         _______ _______ _______ _____ _____    ______ ____
ROOT
ATOM      1  C   UNL     1      48.766   4.482  20.907  0.00  0.00    +0.000 C 
ATOM      2  N   UNL     1      48.951   4.405  19.459  0.00  0.00    +0.000 NA
ATOM      3  C   UNL     1      47.930   5.224  18.754  0.00  0.00    +0.000 C 
ATOM      4  C   UNL     1      48.144   5.288  17.214  0.00  0.00    +0.000 C 
ATOM      5  N   UNL     1      49.501   5.786  16.974  0.00  0.00    +0.000 N 
ATOM      6  C   UNL     1      49.793   6.468  15.803  0.00  0.00    +0.000 A 
ATOM      7  C   UNL     1      50.900   7.299  15.786  0.00  0.00    +0.000 A 
ATOM      8  C   UNL     1      51.127   8.040  14.655  0.00  0.00    +0.000 A 
ATOM      9  N   UNL     1      50.339   7.986  13.575  0.00  0.00    +0.000 NA
ATOM     10  C   UNL     1      49.277   7.158  13.659  0.00  0.00    +0.000 A 
ATOM     11  N   UNL     1      48.963   6.410  14.744  0.00  0.00    +0.000 NA
ATOM     12  C   UNL     1      50.533   4.920  17.564  0.00  0.00    +0.000 C 
ATOM     13  C   UNL     1      50.310   4.870  19.094  0.00  0.00    +0.000 C 
ENDROOT
BRANCH  10  14
ATOM     14  C   UNL     1      48.351   7.123  12.460  0.00  0.00    +0.000 C 
BRANCH  14  15
ATOM     15  O   UNL     1      46.983   7.015  12.878  0.00  0.00    +0.000 OA
BRANCH  15  16
ATOM     16  C   UNL     1      46.245   6.016  12.310  0.00  0.00    +0.000 A 
ATOM     17  C   UNL     1      45.788   5.970  10.995  0.00  0.00    +0.000 A 
ATOM     18  C   UNL     1      45.037   4.876  10.561  0.00  0.00    +0.000 A 
ATOM     19  C   UNL     1      44.765   3.857  11.465  0.00  0.00    +0.000 A 
ATOM     20  N   UNL     1      45.191   3.861  12.759  0.00  0.00    +0.000 NA
ATOM     21  C   UNL     1      45.918   4.943  13.139  0.00  0.00    +0.000 A 
BRANCH  19  22
ATOM     22  C   UNL     1      43.956   2.675  11.025  0.00  0.00    +0.000 C 
ATOM     23  N   UNL     1      44.401   2.050   9.892  0.00  0.00    +0.000 N 
ATOM     24  O   UNL     1      42.964   2.290  11.631  0.00  0.00    +0.000 OA
ATOM     25  H   UNL     1      45.227   2.396   9.417  0.00  0.00    +0.000 HD
ATOM     26  H   UNL     1      43.903   1.244   9.537  0.00  0.00    +0.000 HD
ENDBRANCH  19  22
ENDBRANCH  15  16
ENDBRANCH  14  15
ENDBRANCH  10  14
TORSDOF 4
ENDMDL
MODEL 6
REMARK VINA RESULT:    -6.087      2.668      5.263
REMARK INTER + INTRA:          -8.006
REMARK INTER:                  -7.637
REMARK INTRA:                  -0.369
REMARK UNBOUND:                -0.496
REMARK  Name = 
REMARK  5 active torsions:
REMARK  status: ('A' for Active; 'I' for Inactive)
REMARK    1  A    between atoms: C_1  and  N_2
REMARK    2  A    between atoms: C_10  and  C_11
REMARK    3  A    between atoms: C_11  and  O_12
REMARK    4  A    between atoms: O_12  and  C_13
REMARK    5  A    between atoms: C_16  and  C_17
REMARK                            x       y       z     vdW  Elec       q    Type
REMARK                         _______ _______ _______ _____ _____    ______ ____
ROOT
ATOM      1  C   UNL     1      54.384   4.784  19.997  0.00  0.00    +0.000 C 
ATOM      2  N   UNL     1      53.115   5.282  19.470  0.00  0.00    +0.000 NA
ATOM      3  C   UNL     1      53.020   5.034  18.008  0.00  0.00    +0.000 C 
ATOM      4  C   UNL     1      51.641   5.426  17.402  0.00  0.00    +0.000 C 
ATOM      5  N   UNL     1      50.607   4.701  18.145  0.00  0.00    +0.000 N 
ATOM      6  C   UNL     1      49.403   4.390  17.534  0.00  0.00    +0.000 A 
ATOM      7  C   UNL     1      48.649   3.354  18.057  0.00  0.00    +0.000 A 
ATOM      8  C   UNL     1      47.506   2.993  17.391  0.00  0.00    +0.000 A 
ATOM      9  N   UNL     1      47.087   3.601  16.275  0.00  0.00    +0.000 NA
ATOM     10  C   UNL     1      47.869   4.601  15.818  0.00  0.00    +0.000 A 
ATOM     11  N   UNL     1      49.025   5.005  16.397  0.00  0.00    +0.000 NA
ATOM     12  C   UNL     1      50.609   5.026  19.579  0.00  0.00    +0.000 C 
ATOM     13  C   UNL     1      51.983   4.627  20.167  0.00  0.00    +0.000 C 
ENDROOT
BRANCH  10  14
ATOM     14  C   UNL     1      47.430   5.267  14.529  0.00  0.00    +0.000 C 
BRANCH  14  15
ATOM     15  O   UNL     1      46.018   5.107  14.331  0.00  0.00    +0.000 OA
BRANCH  15  16
ATOM     16  C   UNL     1      45.609   4.779  13.070  0.00  0.00    +0.000 A 
ATOM     17  C   UNL     1      45.149   5.659  12.094  0.00  0.00    +0.000 A 
ATOM     18  C   UNL     1      44.762   5.169  10.846  0.00  0.00    +0.000 A 
ATOM     19  C   UNL     1      44.846   3.802  10.615  0.00  0.00    +0.000 A 
ATOM     20  N   UNL     1      45.288   2.906  11.539  0.00  0.00    +0.000 NA
ATOM     21  C   UNL     1      45.656   3.425  12.739  0.00  0.00    +0.000 A 
BRANCH  19  22
ATOM     22  C   UNL     1      44.429   3.250   9.285  0.00  0.00    +0.000 C 
ATOM     23  N   UNL     1      44.164   4.184   8.321  0.00  0.00    +0.000 N 
ATOM     24  O   UNL     1      44.329   2.049   9.070  0.00  0.00    +0.000 OA
ATOM     25  H   UNL     1      44.260   5.170   8.535  0.00  0.00    +0.000 HD
ATOM     26  H   UNL     1      43.878   3.884   7.398  0.00  0.00    +0.000 HD
ENDBRANCH  19  22
ENDBRANCH  15  16
ENDBRANCH  14  15
ENDBRANCH  10  14
TORSDOF 4
ENDMDL
