MODEL 1
REMARK VINA RESULT:    -7.932      0.000      0.000
REMARK INTER + INTRA:         -10.289
REMARK INTER:                  -9.787
REMARK INTRA:                  -0.502
REMARK UNBOUND:                -0.502
REMARK  Name = 
REMARK  5 active torsions:
REMARK  status: ('A' for Active; 'I' for Inactive)
REMARK    1  A    between atoms: C_1  and  C_2
REMARK    2  A    between atoms: C_2  and  C_3
REMARK    3  A    between atoms: C_2  and  C_14
REMARK    4  A    between atoms: C_3  and  N_4
REMARK    5  A    between atoms: C_8  and  C_9
REMARK                            x       y       z     vdW  Elec       q    Type
REMARK                         _______ _______ _______ _____ _____    ______ ____
ROOT
ATOM      1  N   UNL     1      43.769   4.579   9.686  0.00  0.00    +0.000 N 
ATOM      2  C   UNL     1      44.739   3.892   8.974  0.00  0.00    +0.000 A 
ATOM      3  N   UNL     1      44.850   2.562   9.108  0.00  0.00    +0.000 NA
ATOM      4  C   UNL     1      45.828   1.949   8.414  0.00  0.00    +0.000 A 
ATOM      5  C   UNL     1      46.687   2.608   7.571  0.00  0.00    +0.000 A 
ATOM      6  C   UNL     1      46.499   3.969   7.499  0.00  0.00    +0.000 A 
ATOM      7  N   UNL     1      45.539   4.629   8.188  0.00  0.00    +0.000 NA
ATOM      8  H   UNL     1      44.098   5.534   9.761  0.00  0.00    +0.000 HD
ENDROOT
BRANCH   5   9
ATOM      9  C   UNL     1      47.734   1.861   6.864  0.00  0.00    +0.000 C 
ATOM     10  N   UNL     1      48.635   2.563   6.115  0.00  0.00    +0.000 N 
ATOM     11  O   UNL     1      47.778   0.639   6.921  0.00  0.00    +0.000 OA
ATOM     12  H   UNL     1      48.506   3.525   5.836  0.00  0.00    +0.000 HD
ATOM     13  H   UNL     1      49.271   2.003   5.558  0.00  0.00    +0.000 HD
ENDBRANCH   5   9
BRANCH   1  14
ATOM     14  C   UNL     1      43.429   3.954  10.950  0.00  0.00    +0.000 C 
BRANCH  14  16
ATOM     15  C   UNL     1      42.323   5.983  12.095  0.00  0.00    +0.000 C 
ATOM     16  C   UNL     1      43.454   5.009  12.013  0.00  0.00    +0.000 C 
BRANCH  16  17
ATOM     17  C   UNL     1      44.753   5.410  12.557  0.00  0.00    +0.000 A 
ATOM     18  C   UNL     1      45.565   4.485  13.218  0.00  0.00    +0.000 A 
ATOM     19  C   UNL     1      46.804   4.884  13.724  0.00  0.00    +0.000 A 
ATOM     20  C   UNL     1      47.236   6.200  13.558  0.00  0.00    +0.000 A 
ATOM     21  C   UNL     1      46.429   7.123  12.896  0.00  0.00    +0.000 A 
ATOM     22  C   UNL     1      45.187   6.730  12.406  0.00  0.00    +0.000 A 
ENDBRANCH  16  17
ENDBRANCH  14  16
ENDBRANCH   1  14
TORSDOF 4
ENDMDL
MODEL 2
REMARK VINA RESULT:    -7.829      1.334      2.096
REMARK INTER + INTRA:         -10.161
REMARK INTER:                  -9.753
REMARK INTRA:                  -0.409
REMARK UNBOUND:                -0.502
REMARK  Name = 
REMARK  5 active torsions:
REMARK  status: ('A' for Active; 'I' for Inactive)
REMARK    1  A    between atoms: C_1  and  C_2
REMARK    2  A    between atoms: C_2  and  C_3
REMARK    3  A    between atoms: C_2  and  C_14
REMARK    4  A    between atoms: C_3  and  N_4
REMARK    5  A    between atoms: C_8  and  C_9
REMARK                            x       y       z     vdW  Elec       q    Type
REMARK                         _______ _______ _______ _____ _____    ______ ____
ROOT
ATOM      1  N   UNL     1      44.239   5.140   9.743  0.00  0.00    +0.000 N 
ATOM      2  C   UNL     1      44.925   4.116   9.111  0.00  0.00    +0.000 A 
ATOM      3  N   UNL     1      44.791   2.854   9.544  0.00  0.00    +0.000 NA
ATOM      4  C   UNL     1      45.503   1.902   8.912  0.00  0.00    +0.000 A 
ATOM      5  C   UNL     1      46.328   2.156   7.844  0.00  0.00    +0.000 A 
ATOM      6  C   UNL     1      46.405   3.478   7.472  0.00  0.00    +0.000 A 
ATOM      7  N   UNL     1      45.718   4.470   8.087  0.00  0.00    +0.000 NA
ATOM      8  H   UNL     1      44.758   5.988   9.552  0.00  0.00    +0.000 HD
ENDROOT
BRANCH   5   9
ATOM      9  C   UNL     1      47.078   1.059   7.223  0.00  0.00    +0.000 C 
ATOM     10  N   UNL     1      46.821  -0.217   7.637  0.00  0.00    +0.000 N 
ATOM     11  O   UNL     1      47.934   1.287   6.378  0.00  0.00    +0.000 OA
ATOM     12  H   UNL     1      46.316  -0.443   8.482  0.00  0.00    +0.000 HD
ATOM     13  H   UNL     1      47.436  -0.930   7.262  0.00  0.00    +0.000 HD
ENDBRANCH   5   9
BRANCH   1  14
ATOM     14  C   UNL     1      43.991   4.887  11.150  0.00  0.00    +0.000 C 
BRANCH  14  16
ATOM     15  C   UNL     1      45.687   3.970  12.863  0.00  0.00    +0.000 C 
ATOM     16  C   UNL     1      45.288   5.029  11.885  0.00  0.00    +0.000 C 
BRANCH  16  17
ATOM     17  C   UNL     1      45.840   6.373  12.057  0.00  0.00    +0.000 A 
ATOM     18  C   UNL     1      45.024   7.434  12.458  0.00  0.00    +0.000 A 
ATOM     19  C   UNL     1      45.570   8.708  12.624  0.00  0.00    +0.000 A 
ATOM     20  C   UNL     1      46.932   8.920  12.403  0.00  0.00    +0.000 A 
ATOM     21  C   UNL     1      47.749   7.862  12.008  0.00  0.00    +0.000 A 
ATOM     22  C   UNL     1      47.201   6.595  11.827  0.00  0.00    +0.000 A 
ENDBRANCH  16  17
ENDBRANCH  14  16
ENDBRANCH   1  14
TORSDOF 4
ENDMDL
MODEL 3
REMARK VINA RESULT:    -7.446      2.920      6.203
REMARK INTER + INTRA:          -9.689
REMARK INTER:                  -9.320
REMARK INTRA:                  -0.369
REMARK UNBOUND:                -0.502
REMARK  Name = 
REMARK  5 active torsions:
REMARK  status: ('A' for Active; 'I' for Inactive)
REMARK    1  A    between atoms: C_1  and  C_2
REMARK    2  A    between atoms: C_2  and  C_3
REMARK    3  A    between atoms: C_2  and  C_14
REMARK    4  A    between atoms: C_3  and  N_4
REMARK    5  A    between atoms: C_8  and  C_9
REMARK                            x       y       z     vdW  Elec       q    Type
REMARK                         _______ _______ _______ _____ _____    ______ ____
ROOT
ATOM      1  N   UNL     1      43.792   4.813  10.457  0.00  0.00    +0.000 N 
ATOM      2  C   UNL     1      44.802   5.316  11.260  0.00  0.00    +0.000 A 
ATOM      3  N   UNL     1      45.799   6.027  10.713  0.00  0.00    +0.000 NA
ATOM      4  C   UNL     1      46.769   6.468  11.536  0.00  0.00    +0.000 A 
ATOM      5  C   UNL     1      46.773   6.248  12.891  0.00  0.00    +0.000 A 
ATOM      6  C   UNL     1      45.713   5.508  13.361  0.00  0.00    +0.000 A 
ATOM      7  N   UNL     1      44.722   5.033  12.570  0.00  0.00    +0.000 NA
ATOM      8  H   UNL     1      43.403   4.021  10.955  0.00  0.00    +0.000 HD
ENDROOT
BRANCH   5   9
ATOM      9  C   UNL     1      47.879   6.754  13.711  0.00  0.00    +0.000 C 
ATOM     10  N   UNL     1      47.625   7.775  14.581  0.00  0.00    +0.000 N 
ATOM     11  O   UNL     1      49.007   6.293  13.594  0.00  0.00    +0.000 OA
ATOM     12  H   UNL     1      46.795   8.349  14.548  0.00  0.00    +0.000 HD
ATOM     13  H   UNL     1      48.437   8.166  15.046  0.00  0.00    +0.000 HD
ENDBRANCH   5   9
BRANCH   1  14
ATOM     14  C   UNL     1      44.222   4.522   9.102  0.00  0.00    +0.000 C 
BRANCH  14  16
ATOM     15  C   UNL     1      44.223   2.179  10.180  0.00  0.00    +0.000 C 
ATOM     16  C   UNL     1      44.552   3.063   9.020  0.00  0.00    +0.000 C 
BRANCH  16  17
ATOM     17  C   UNL     1      45.627   2.649   8.118  0.00  0.00    +0.000 A 
ATOM     18  C   UNL     1      46.165   1.362   8.193  0.00  0.00    +0.000 A 
ATOM     19  C   UNL     1      47.186   0.983   7.318  0.00  0.00    +0.000 A 
ATOM     20  C   UNL     1      47.659   1.882   6.362  0.00  0.00    +0.000 A 
ATOM     21  C   UNL     1      47.121   3.165   6.283  0.00  0.00    +0.000 A 
ATOM     22  C   UNL     1      46.114   3.550   7.165  0.00  0.00    +0.000 A 
ENDBRANCH  16  17
ENDBRANCH  14  16
ENDBRANCH   1  14
TORSDOF 4
ENDMDL
MODEL 4
REMARK VINA RESULT:    -7.235      3.303      5.856
REMARK INTER + INTRA:          -9.428
REMARK INTER:                  -8.788
REMARK INTRA:                  -0.640
REMARK UNBOUND:                -0.502
REMARK  Name = 
REMARK  5 active torsions:
REMARK  status: ('A' for Active; 'I' for Inactive)
REMARK    1  A    between atoms: C_1  and  C_2
REMARK    2  A    between atoms: C_2  and  C_3
REMARK    3  A    between atoms: C_2  and  C_14
REMARK    4  A    between atoms: C_3  and  N_4
REMARK    5  A    between atoms: C_8  and  C_9
REMARK                            x       y       z     vdW  Elec       q    Type
REMARK                         _______ _______ _______ _____ _____    ______ ____
ROOT
ATOM      1  N   UNL     1      43.950   5.380  12.247  0.00  0.00    +0.000 N 
ATOM      2  C   UNL     1      45.254   5.792  12.473  0.00  0.00    +0.000 A 
ATOM      3  N   UNL     1      45.891   6.528  11.551  0.00  0.00    +0.000 NA
ATOM      4  C   UNL     1      47.166   6.876  11.810  0.00  0.00    +0.000 A 
ATOM      5  C   UNL     1      47.825   6.539  12.965  0.00  0.00    +0.000 A 
ATOM      6  C   UNL     1      47.093   5.782  13.851  0.00  0.00    +0.000 A 
ATOM      7  N   UNL     1      45.814   5.397  13.627  0.00  0.00    +0.000 NA
ATOM      8  H   UNL     1      43.811   4.557  12.820  0.00  0.00    +0.000 HD
ENDROOT
BRANCH   5   9
ATOM      9  C   UNL     1      49.221   6.949  13.158  0.00  0.00    +0.000 C 
ATOM     10  N   UNL     1      49.964   7.251  12.054  0.00  0.00    +0.000 N 
ATOM     11  O   UNL     1      49.712   6.989  14.279  0.00  0.00    +0.000 OA
ATOM     12  H   UNL     1      49.697   7.006  11.111  0.00  0.00    +0.000 HD
ATOM     13  H   UNL     1      50.949   7.423  12.224  0.00  0.00    +0.000 HD
ENDBRANCH   5   9
BRANCH   1  14
ATOM     14  C   UNL     1      43.636   5.201  10.842  0.00  0.00    +0.000 C 
BRANCH  14  16
ATOM     15  C   UNL     1      43.466   2.726  11.548  0.00  0.00    +0.000 C 
ATOM     16  C   UNL     1      43.800   3.749  10.510  0.00  0.00    +0.000 C 
BRANCH  16  17
ATOM     17  C   UNL     1      44.752   3.385   9.460  0.00  0.00    +0.000 A 
ATOM     18  C   UNL     1      45.341   4.367   8.659  0.00  0.00    +0.000 A 
ATOM     19  C   UNL     1      46.253   4.000   7.667  0.00  0.00    +0.000 A 
ATOM     20  C   UNL     1      46.587   2.658   7.485  0.00  0.00    +0.000 A 
ATOM     21  C   UNL     1      46.005   1.677   8.286  0.00  0.00    +0.000 A 
ATOM     22  C   UNL     1      45.083   2.041   9.265  0.00  0.00    +0.000 A 
ENDBRANCH  16  17
ENDBRANCH  14  16
ENDBRANCH   1  14
TORSDOF 4
ENDMDL
MODEL 5
REMARK VINA RESULT:    -6.532      5.181      7.629
REMARK INTER + INTRA:          -8.561
REMARK INTER:                  -8.211
REMARK INTRA:                  -0.350
REMARK UNBOUND:                -0.502
REMARK  Name = 
REMARK  5 active torsions:
REMARK  status: ('A' for Active; 'I' for Inactive)
REMARK    1  A    between atoms: C_1  and  C_2
REMARK    2  A    between atoms: C_2  and  C_3
REMARK    3  A    between atoms: C_2  and  C_14
REMARK    4  A    between atoms: C_3  and  N_4
REMARK    5  A    between atoms: C_8  and  C_9
REMARK                            x       y       z     vdW  Elec       q    Type
REMARK                         _______ _______ _______ _____ _____    ______ ____
ROOT
ATOM      1  N   UNL     1      47.062   5.069  13.522  0.00  0.00    +0.000 N 
ATOM      2  C   UNL     1      47.414   4.907  14.852  0.00  0.00    +0.000 A 
ATOM      3  N   UNL     1      46.804   3.972  15.595  0.00  0.00    +0.000 NA
ATOM      4  C   UNL     1      47.164   3.876  16.889  0.00  0.00    +0.000 A 
ATOM      5  C   UNL     1      48.129   4.663  17.468  0.00  0.00    +0.000 A 
ATOM      6  C   UNL     1      48.698   5.594  16.630  0.00  0.00    +0.000 A 
ATOM      7  N   UNL     1      48.357   5.735  15.327  0.00  0.00    +0.000 NA
ATOM      8  H   UNL     1      47.313   6.019  13.278  0.00  0.00    +0.000 HD
ENDROOT
BRANCH   5   9
ATOM      9  C   UNL     1      48.450   4.500  18.891  0.00  0.00    +0.000 C 
ATOM     10  N   UNL     1      48.315   3.260  19.446  0.00  0.00    +0.000 N 
ATOM     11  O   UNL     1      48.797   5.459  19.567  0.00  0.00    +0.000 OA
ATOM     12  H   UNL     1      47.809   2.501  19.012  0.00  0.00    +0.000 HD
ATOM     13  H   UNL     1      48.440   3.215  20.451  0.00  0.00    +0.000 HD
ENDBRANCH   5   9
BRANCH   1  14
ATOM     14  C   UNL     1      45.683   4.716  13.242  0.00  0.00    +0.000 C 
BRANCH  14  16
ATOM     15  C   UNL     1      44.523   6.664  12.011  0.00  0.00    +0.000 C 
ATOM     16  C   UNL     1      45.284   5.377  11.958  0.00  0.00    +0.000 C 
BRANCH  16  17
ATOM     17  C   UNL     1      45.148   4.542  10.765  0.00  0.00    +0.000 A 
ATOM     18  C   UNL     1      44.590   3.263  10.849  0.00  0.00    +0.000 A 
ATOM     19  C   UNL     1      44.462   2.483   9.697  0.00  0.00    +0.000 A 
ATOM     20  C   UNL     1      44.877   2.984   8.463  0.00  0.00    +0.000 A 
ATOM     21  C   UNL     1      45.429   4.260   8.376  0.00  0.00    +0.000 A 
ATOM     22  C   UNL     1      45.573   5.032   9.526  0.00  0.00    +0.000 A 
ENDBRANCH  16  17
ENDBRANCH  14  16
ENDBRANCH   1  14
TORSDOF 4
ENDMDL
MODEL 6
REMARK VINA RESULT:    -6.396      4.101      7.003
REMARK INTER + INTRA:          -8.394
REMARK INTER:                  -8.026
REMARK INTRA:                  -0.367
REMARK UNBOUND:                -0.502
REMARK  Name = 
REMARK  5 active torsions:
REMARK  status: ('A' for Active; 'I' for Inactive)
REMARK    1  A    between atoms: C_1  and  C_2
REMARK    2  A    between atoms: C_2  and  C_3
REMARK    3  A    between atoms: C_2  and  C_14
REMARK    4  A    between atoms: C_3  and  N_4
REMARK    5  A    between atoms: C_8  and  C_9
REMARK                            x       y       z     vdW  Elec       q    Type
REMARK                         _______ _______ _______ _____ _____    ______ ____
ROOT
ATOM      1  N   UNL     1      45.331   4.768  12.637  0.00  0.00    +0.000 N 
ATOM      2  C   UNL     1      46.268   5.017  13.627  0.00  0.00    +0.000 A 
ATOM      3  N   UNL     1      47.029   6.120  13.564  0.00  0.00    +0.000 NA
ATOM      4  C   UNL     1      47.943   6.298  14.537  0.00  0.00    +0.000 A 
ATOM      5  C   UNL     1      48.114   5.430  15.586  0.00  0.00    +0.000 A 
ATOM      6  C   UNL     1      47.291   4.327  15.565  0.00  0.00    +0.000 A 
ATOM      7  N   UNL     1      46.368   4.099  14.601  0.00  0.00    +0.000 NA
ATOM      8  H   UNL     1      45.174   3.767  12.643  0.00  0.00    +0.000 HD
ENDROOT
BRANCH   5   9
ATOM      9  C   UNL     1      49.145   5.695  16.595  0.00  0.00    +0.000 C 
ATOM     10  N   UNL     1      48.787   5.653  17.912  0.00  0.00    +0.000 N 
ATOM     11  O   UNL     1      50.288   5.978  16.262  0.00  0.00    +0.000 OA
ATOM     12  H   UNL     1      47.831   5.668  18.236  0.00  0.00    +0.000 HD
ATOM     13  H   UNL     1      49.501   5.949  18.569  0.00  0.00    +0.000 HD
ENDBRANCH   5   9
BRANCH   1  14
ATOM     14  C   UNL     1      45.696   5.316  11.345  0.00  0.00    +0.000 C 
BRANCH  14  16
ATOM     15  C   UNL     1      43.337   4.537  10.651  0.00  0.00    +0.000 C 
ATOM     16  C   UNL     1      44.781   4.728  10.314  0.00  0.00    +0.000 C 
BRANCH  16  17
ATOM     17  C   UNL     1      45.367   3.880   9.275  0.00  0.00    +0.000 A 
ATOM     18  C   UNL     1      46.013   4.446   8.172  0.00  0.00    +0.000 A 
ATOM     19  C   UNL     1      46.572   3.620   7.195  0.00  0.00    +0.000 A 
ATOM     20  C   UNL     1      46.499   2.233   7.325  0.00  0.00    +0.000 A 
ATOM     21  C   UNL     1      45.859   1.667   8.425  0.00  0.00    +0.000 A 
ATOM     22  C   UNL     1      45.287   2.489   9.392  0.00  0.00    +0.000 A 
ENDBRANCH  16  17
ENDBRANCH  14  16
ENDBRANCH   1  14
TORSDOF 4
ENDMDL
MODEL 7
REMARK VINA RESULT:    -6.377      4.533      6.274
REMARK INTER + INTRA:          -8.370
REMARK INTER:                  -8.018
REMARK INTRA:                  -0.352
REMARK UNBOUND:                -0.502
REMARK  Name = 
REMARK  5 active torsions:
REMARK  status: ('A' for Active; 'I' for Inactive)
REMARK    1  A    between atoms: C_1  and  C_2
REMARK    2  A    between atoms: C_2  and  C_3
REMARK    3  A    between atoms: C_2  and  C_14
REMARK    4  A    between atoms: C_3  and  N_4
REMARK    5  A    between atoms: C_8  and  C_9
REMARK                            x       y       z     vdW  Elec       q    Type
REMARK                         _______ _______ _______ _____ _____    ______ ____
ROOT
ATOM      1  N   UNL     1      47.103   4.917  15.201  0.00  0.00    +0.000 N 
ATOM      2  C   UNL     1      46.468   4.900  13.970  0.00  0.00    +0.000 A 
ATOM      3  N   UNL     1      45.756   3.826  13.600  0.00  0.00    +0.000 NA
ATOM      4  C   UNL     1      45.183   3.851  12.382  0.00  0.00    +0.000 A 
ATOM      5  C   UNL     1      45.273   4.919  11.523  0.00  0.00    +0.000 A 
ATOM      6  C   UNL     1      46.025   5.974  11.987  0.00  0.00    +0.000 A 
ATOM      7  N   UNL     1      46.629   5.987  13.199  0.00  0.00    +0.000 NA
ATOM      8  H   UNL     1      47.864   5.580  15.117  0.00  0.00    +0.000 HD
ENDROOT
BRANCH   5   9
ATOM      9  C   UNL     1      44.628   4.855  10.207  0.00  0.00    +0.000 C 
ATOM     10  N   UNL     1      45.413   4.975   9.096  0.00  0.00    +0.000 N 
ATOM     11  O   UNL     1      43.414   4.731  10.110  0.00  0.00    +0.000 OA
ATOM     12  H   UNL     1      46.363   5.318   9.113  0.00  0.00    +0.000 HD
ATOM     13  H   UNL     1      44.917   5.036   8.214  0.00  0.00    +0.000 HD
ENDBRANCH   5   9
BRANCH   1  14
ATOM     14  C   UNL     1      47.496   3.600  15.667  0.00  0.00    +0.000 C 
BRANCH  14  16
ATOM     15  C   UNL     1      47.426   4.748  17.975  0.00  0.00    +0.000 C 
ATOM     16  C   UNL     1      48.037   3.740  17.057  0.00  0.00    +0.000 C 
BRANCH  16  17
ATOM     17  C   UNL     1      49.420   3.329  17.303  0.00  0.00    +0.000 A 
ATOM     18  C   UNL     1      49.834   2.020  17.039  0.00  0.00    +0.000 A 
ATOM     19  C   UNL     1      51.159   1.649  17.273  0.00  0.00    +0.000 A 
ATOM     20  C   UNL     1      52.073   2.585  17.757  0.00  0.00    +0.000 A 
ATOM     21  C   UNL     1      51.664   3.892  18.017  0.00  0.00    +0.000 A 
ATOM     22  C   UNL     1      50.339   4.259  17.799  0.00  0.00    +0.000 A 
ENDBRANCH  16  17
ENDBRANCH  14  16
ENDBRANCH   1  14
TORSDOF 4
ENDMDL
MODEL 8
REMARK VINA RESULT:    -5.878      3.644      5.749
REMARK INTER + INTRA:          -7.754
REMARK INTER:                  -7.263
REMARK INTRA:                  -0.491
REMARK UNBOUND:                -0.502
REMARK  Name = 
REMARK  5 active torsions:
REMARK  status: ('A' for Active; 'I' for Inactive)
REMARK    1  A    between atoms: C_1  and  C_2
REMARK    2  A    between atoms: C_2  and  C_3
REMARK    3  A    between atoms: C_2  and  C_14
REMARK    4  A    between atoms: C_3  and  N_4
REMARK    5  A    between atoms: C_8  and  C_9
REMARK                            x       y       z     vdW  Elec       q    Type
REMARK                         _______ _______ _______ _____ _____    ______ ____
ROOT
ATOM      1  N   UNL     1      47.131   7.148  13.896  0.00  0.00    +0.000 N 
ATOM      2  C   UNL     1      46.308   6.408  13.062  0.00  0.00    +0.000 A 
ATOM      3  N   UNL     1      46.305   5.070  13.144  0.00  0.00    +0.000 NA
ATOM      4  C   UNL     1      45.508   4.399  12.290  0.00  0.00    +0.000 A 
ATOM      5  C   UNL     1      44.694   5.012  11.371  0.00  0.00    +0.000 A 
ATOM      6  C   UNL     1      44.766   6.386  11.359  0.00  0.00    +0.000 A 
ATOM      7  N   UNL     1      45.562   7.102  12.189  0.00  0.00    +0.000 NA
ATOM      8  H   UNL     1      47.284   8.033  13.428  0.00  0.00    +0.000 HD
ENDROOT
BRANCH   5   9
ATOM      9  C   UNL     1      43.867   4.202  10.470  0.00  0.00    +0.000 C 
ATOM     10  N   UNL     1      43.904   4.481   9.133  0.00  0.00    +0.000 N 
ATOM     11  O   UNL     1      43.141   3.321  10.910  0.00  0.00    +0.000 OA
ATOM     12  H   UNL     1      44.284   5.333   8.747  0.00  0.00    +0.000 HD
ATOM     13  H   UNL     1      43.238   3.972   8.562  0.00  0.00    +0.000 HD
ENDBRANCH   5   9
BRANCH   1  14
ATOM     14  C   UNL     1      48.342   6.449  14.282  0.00  0.00    +0.000 C 
BRANCH  14  16
ATOM     15  C   UNL     1      49.168   7.787  16.328  0.00  0.00    +0.000 C 
ATOM     16  C   UNL     1      48.498   6.573  15.767  0.00  0.00    +0.000 C 
BRANCH  16  17
ATOM     17  C   UNL     1      48.512   5.345  16.564  0.00  0.00    +0.000 A 
ATOM     18  C   UNL     1      49.610   5.028  17.368  0.00  0.00    +0.000 A 
ATOM     19  C   UNL     1      49.602   3.856  18.126  0.00  0.00    +0.000 A 
ATOM     20  C   UNL     1      48.494   3.008  18.092  0.00  0.00    +0.000 A 
ATOM     21  C   UNL     1      47.396   3.324  17.295  0.00  0.00    +0.000 A 
ATOM     22  C   UNL     1      47.410   4.485  16.526  0.00  0.00    +0.000 A 
ENDBRANCH  16  17
ENDBRANCH  14  16
ENDBRANCH   1  14
TORSDOF 4
ENDMDL
MODEL 9
REMARK VINA RESULT:    -5.677      5.569      7.882
REMARK INTER + INTRA:          -7.506
REMARK INTER:                  -7.079
REMARK INTRA:                  -0.427
REMARK UNBOUND:                -0.502
REMARK  Name = 
REMARK  5 active torsions:
REMARK  status: ('A' for Active; 'I' for Inactive)
REMARK    1  A    between atoms: C_1  and  C_2
REMARK    2  A    between atoms: C_2  and  C_3
REMARK    3  A    between atoms: C_2  and  C_14
REMARK    4  A    between atoms: C_3  and  N_4
REMARK    5  A    between atoms: C_8  and  C_9
REMARK                            x       y       z     vdW  Elec       q    Type
REMARK                         _______ _______ _______ _____ _____    ______ ____
ROOT
ATOM      1  N   UNL     1      46.372   4.278  14.521  0.00  0.00    +0.000 N 
ATOM      2  C   UNL     1      47.100   4.300  15.699  0.00  0.00    +0.000 A 
ATOM      3  N   UNL     1      48.116   5.164  15.841  0.00  0.00    +0.000 NA
ATOM      4  C   UNL     1      48.808   5.125  16.995  0.00  0.00    +0.000 A 
ATOM      5  C   UNL     1      48.511   4.271  18.028  0.00  0.00    +0.000 A 
ATOM      6  C   UNL     1      47.455   3.420  17.792  0.00  0.00    +0.000 A 
ATOM      7  N   UNL     1      46.740   3.415  16.642  0.00  0.00    +0.000 NA
ATOM      8  H   UNL     1      45.963   3.353  14.460  0.00  0.00    +0.000 HD
ENDROOT
BRANCH   5   9
ATOM      9  C   UNL     1      49.327   4.285  19.248  0.00  0.00    +0.000 C 
ATOM     10  N   UNL     1      48.729   3.956  20.430  0.00  0.00    +0.000 N 
ATOM     11  O   UNL     1      50.505   4.615  19.208  0.00  0.00    +0.000 OA
ATOM     12  H   UNL     1      47.728   3.915  20.562  0.00  0.00    +0.000 HD
ATOM     13  H   UNL     1      49.299   4.085  21.259  0.00  0.00    +0.000 HD
ENDBRANCH   5   9
BRANCH   1  14
ATOM     14  C   UNL     1      47.143   4.676  13.358  0.00  0.00    +0.000 C 
BRANCH  14  16
ATOM     15  C   UNL     1      45.356   5.112  11.550  0.00  0.00    +0.000 C 
ATOM     16  C   UNL     1      46.320   5.642  12.562  0.00  0.00    +0.000 C 
BRANCH  16  17
ATOM     17  C   UNL     1      46.833   7.001  12.383  0.00  0.00    +0.000 A 
ATOM     18  C   UNL     1      48.188   7.224  12.121  0.00  0.00    +0.000 A 
ATOM     19  C   UNL     1      48.657   8.527  11.946  0.00  0.00    +0.000 A 
ATOM     20  C   UNL     1      47.774   9.605  12.019  0.00  0.00    +0.000 A 
ATOM     21  C   UNL     1      46.422   9.385  12.276  0.00  0.00    +0.000 A 
ATOM     22  C   UNL     1      45.956   8.086  12.467  0.00  0.00    +0.000 A 
ENDBRANCH  16  17
ENDBRANCH  14  16
ENDBRANCH   1  14
TORSDOF 4
ENDMDL
