MODEL 1
REMARK VINA RESULT:    -7.634      0.000      0.000
REMARK INTER + INTRA:         -10.146
REMARK INTER:                  -9.642
REMARK INTRA:                  -0.504
REMARK UNBOUND:                -0.504
REMARK  Name = 
REMARK  5 active torsions:
REMARK  status: ('A' for Active; 'I' for Inactive)
REMARK    1  A    between atoms: N_1  and  C_2
REMARK    2  A    between atoms: C_2  and  C_3
REMARK    3  A    between atoms: C_3  and  C_4
REMARK    4  A    between atoms: C_7  and  C_8
REMARK    5  A    between atoms: C_8  and  N_9
REMARK                            x       y       z     vdW  Elec       q    Type
REMARK                         _______ _______ _______ _____ _____    ______ ____
ROOT
ATOM      1  C   UNL     1      45.850   3.168   7.740  0.00  0.00    +0.000 A 
ATOM      2  C   UNL     1      45.451   2.135   8.582  0.00  0.00    +0.000 A 
ATOM      3  C   UNL     1      44.952   2.449   9.845  0.00  0.00    +0.000 A 
ATOM      4  C   UNL     1      44.869   3.784  10.246  0.00  0.00    +0.000 A 
ATOM      5  C   UNL     1      45.310   4.746   9.346  0.00  0.00    +0.000 A 
ATOM      6  N   UNL     1      45.788   4.469   8.111  0.00  0.00    +0.000 NA
ENDROOT
BRANCH   1   7
ATOM      7  C   UNL     1      46.401   2.870   6.369  0.00  0.00    +0.000 C 
BRANCH   7   8
ATOM      8  C   UNL     1      47.364   1.683   6.401  0.00  0.00    +0.000 C 
BRANCH   8   9
ATOM      9  N   UNL     1      48.526   1.922   5.541  0.00  0.00    +0.000 NA
ATOM     10  H   UNL     1      48.398   2.808   5.052  0.00  0.00    +0.000 HD
ATOM     11  H   UNL     1      48.555   1.207   4.813  0.00  0.00    +0.000 HD
ENDBRANCH   8   9
ENDBRANCH   7   8
ENDBRANCH   1   7
BRANCH   4  12
ATOM     12  C   UNL     1      44.334   4.179  11.592  0.00  0.00    +0.000 C 
BRANCH  12  13
ATOM     13  N   UNL     1      45.394   4.394  12.568  0.00  0.00    +0.000 N 
ATOM     14  N   UNL     1      45.985   3.323  13.143  0.00  0.00    +0.000 NA
ATOM     15  C   UNL     1      46.984   3.856  13.851  0.00  0.00    +0.000 A 
ATOM     16  C   UNL     1      47.057   5.259  13.722  0.00  0.00    +0.000 A 
ATOM     17  C   UNL     1      47.902   6.275  14.208  0.00  0.00    +0.000 A 
ATOM     18  C   UNL     1      47.646   7.600  13.839  0.00  0.00    +0.000 A 
ATOM     19  C   UNL     1      46.568   7.916  13.015  0.00  0.00    +0.000 A 
ATOM     20  C   UNL     1      45.717   6.921  12.523  0.00  0.00    +0.000 A 
ATOM     21  C   UNL     1      45.991   5.595  12.890  0.00  0.00    +0.000 A 
ENDBRANCH  12  13
ENDBRANCH   4  12
TORSDOF 5
ENDMDL
MODEL 2
REMARK VINA RESULT:    -7.113      1.400      2.401
REMARK INTER + INTRA:          -9.488
REMARK INTER:                  -8.960
REMARK INTRA:                  -0.528
REMARK UNBOUND:                -0.504
REMARK  Name = 
REMARK  5 active torsions:
REMARK  status: ('A' for Active; 'I' for Inactive)
REMARK    1  A    between atoms: N_1  and  C_2
REMARK    2  A    between atoms: C_2  and  C_3
REMARK    3  A    between atoms: C_3  and  C_4
REMARK    4  A    between atoms: C_7  and  C_8
REMARK    5  A    between atoms: C_8  and  N_9
REMARK                            x       y       z     vdW  Elec       q    Type
REMARK                         _______ _______ _______ _____ _____    ______ ____
ROOT
ATOM      1  C   UNL     1      46.055   2.216   7.839  0.00  0.00    +0.000 A 
ATOM      2  C   UNL     1      46.105   3.601   7.716  0.00  0.00    +0.000 A 
ATOM      3  C   UNL     1      45.365   4.382   8.602  0.00  0.00    +0.000 A 
ATOM      4  C   UNL     1      44.586   3.768   9.585  0.00  0.00    +0.000 A 
ATOM      5  C   UNL     1      44.583   2.380   9.618  0.00  0.00    +0.000 A 
ATOM      6  N   UNL     1      45.300   1.598   8.777  0.00  0.00    +0.000 NA
ENDROOT
BRANCH   1   7
ATOM      7  C   UNL     1      46.835   1.335   6.896  0.00  0.00    +0.000 C 
BRANCH   7   8
ATOM      8  C   UNL     1      48.222   1.913   6.611  0.00  0.00    +0.000 C 
BRANCH   8   9
ATOM      9  N   UNL     1      48.393   2.195   5.183  0.00  0.00    +0.000 NA
ATOM     10  H   UNL     1      47.929   3.076   4.962  0.00  0.00    +0.000 HD
ATOM     11  H   UNL     1      47.906   1.482   4.641  0.00  0.00    +0.000 HD
ENDBRANCH   8   9
ENDBRANCH   7   8
ENDBRANCH   1   7
BRANCH   4  12
ATOM     12  C   UNL     1      43.776   4.561  10.569  0.00  0.00    +0.000 C 
BRANCH  12  13
ATOM     13  N   UNL     1      44.605   5.414  11.410  0.00  0.00    +0.000 N 
ATOM     14  N   UNL     1      44.410   6.752  11.385  0.00  0.00    +0.000 NA
ATOM     15  C   UNL     1      45.210   7.205  12.354  0.00  0.00    +0.000 A 
ATOM     16  C   UNL     1      45.903   6.171  13.019  0.00  0.00    +0.000 A 
ATOM     17  C   UNL     1      46.811   6.092  14.092  0.00  0.00    +0.000 A 
ATOM     18  C   UNL     1      47.293   4.837  14.478  0.00  0.00    +0.000 A 
ATOM     19  C   UNL     1      46.893   3.682  13.808  0.00  0.00    +0.000 A 
ATOM     20  C   UNL     1      45.992   3.741  12.740  0.00  0.00    +0.000 A 
ATOM     21  C   UNL     1      45.507   5.004  12.369  0.00  0.00    +0.000 A 
ENDBRANCH  12  13
ENDBRANCH   4  12
TORSDOF 5
ENDMDL
MODEL 3
REMARK VINA RESULT:    -7.105      1.689      6.810
REMARK INTER + INTRA:          -9.478
REMARK INTER:                  -8.932
REMARK INTRA:                  -0.546
REMARK UNBOUND:                -0.504
REMARK  Name = 
REMARK  5 active torsions:
REMARK  status: ('A' for Active; 'I' for Inactive)
REMARK    1  A    between atoms: N_1  and  C_2
REMARK    2  A    between atoms: C_2  and  C_3
REMARK    3  A    between atoms: C_3  and  C_4
REMARK    4  A    between atoms: C_7  and  C_8
REMARK    5  A    between atoms: C_8  and  N_9
REMARK                            x       y       z     vdW  Elec       q    Type
REMARK                         _______ _______ _______ _____ _____    ______ ____
ROOT
ATOM      1  C   UNL     1      46.584   4.749  13.776  0.00  0.00    +0.000 A 
ATOM      2  C   UNL     1      46.325   5.805  12.908  0.00  0.00    +0.000 A 
ATOM      3  C   UNL     1      45.620   5.553  11.732  0.00  0.00    +0.000 A 
ATOM      4  C   UNL     1      45.195   4.255  11.442  0.00  0.00    +0.000 A 
ATOM      5  C   UNL     1      45.518   3.261  12.357  0.00  0.00    +0.000 A 
ATOM      6  N   UNL     1      46.192   3.481  13.511  0.00  0.00    +0.000 NA
ENDROOT
BRANCH   1   7
ATOM      7  C   UNL     1      47.350   4.978  15.054  0.00  0.00    +0.000 C 
BRANCH   7   8
ATOM      8  C   UNL     1      47.603   3.665  15.796  0.00  0.00    +0.000 C 
BRANCH   8   9
ATOM      9  N   UNL     1      46.619   3.464  16.863  0.00  0.00    +0.000 NA
ATOM     10  H   UNL     1      46.914   2.677  17.441  0.00  0.00    +0.000 HD
ATOM     11  H   UNL     1      45.729   3.185  16.449  0.00  0.00    +0.000 HD
ENDBRANCH   8   9
ENDBRANCH   7   8
ENDBRANCH   1   7
BRANCH   4  12
ATOM     12  C   UNL     1      44.427   3.929  10.194  0.00  0.00    +0.000 C 
BRANCH  12  13
ATOM     13  N   UNL     1      45.283   3.871   9.016  0.00  0.00    +0.000 N 
ATOM     14  N   UNL     1      45.758   5.023   8.491  0.00  0.00    +0.000 NA
ATOM     15  C   UNL     1      46.603   4.613   7.542  0.00  0.00    +0.000 A 
ATOM     16  C   UNL     1      46.695   3.207   7.463  0.00  0.00    +0.000 A 
ATOM     17  C   UNL     1      47.430   2.285   6.694  0.00  0.00    +0.000 A 
ATOM     18  C   UNL     1      47.244   0.917   6.920  0.00  0.00    +0.000 A 
ATOM     19  C   UNL     1      46.340   0.469   7.881  0.00  0.00    +0.000 A 
ATOM     20  C   UNL     1      45.601   1.370   8.655  0.00  0.00    +0.000 A 
ATOM     21  C   UNL     1      45.804   2.739   8.427  0.00  0.00    +0.000 A 
ENDBRANCH  12  13
ENDBRANCH   4  12
TORSDOF 5
ENDMDL
MODEL 4
REMARK VINA RESULT:    -6.536      2.105      6.108
REMARK INTER + INTRA:          -8.760
REMARK INTER:                  -7.978
REMARK INTRA:                  -0.781
REMARK UNBOUND:                -0.504
REMARK  Name = 
REMARK  5 active torsions:
REMARK  status: ('A' for Active; 'I' for Inactive)
REMARK    1  A    between atoms: N_1  and  C_2
REMARK    2  A    between atoms: C_2  and  C_3
REMARK    3  A    between atoms: C_3  and  C_4
REMARK    4  A    between atoms: C_7  and  C_8
REMARK    5  A    between atoms: C_8  and  N_9
REMARK                            x       y       z     vdW  Elec       q    Type
REMARK                         _______ _______ _______ _____ _____    ______ ____
ROOT
ATOM      1  C   UNL     1      46.498   7.147  13.045  0.00  0.00    +0.000 A 
ATOM      2  C   UNL     1      45.706   7.880  12.166  0.00  0.00    +0.000 A 
ATOM      3  C   UNL     1      44.763   7.208  11.390  0.00  0.00    +0.000 A 
ATOM      4  C   UNL     1      44.633   5.823  11.501  0.00  0.00    +0.000 A 
ATOM      5  C   UNL     1      45.480   5.174  12.390  0.00  0.00    +0.000 A 
ATOM      6  N   UNL     1      46.397   5.802  13.162  0.00  0.00    +0.000 NA
ENDROOT
BRANCH   1   7
ATOM      7  C   UNL     1      47.535   7.834  13.896  0.00  0.00    +0.000 C 
BRANCH   7   8
ATOM      8  C   UNL     1      48.782   6.966  14.066  0.00  0.00    +0.000 C 
BRANCH   8   9
ATOM      9  N   UNL     1      49.384   6.645  12.769  0.00  0.00    +0.000 NA
ATOM     10  H   UNL     1      50.327   6.288  12.921  0.00  0.00    +0.000 HD
ATOM     11  H   UNL     1      49.497   7.506  12.232  0.00  0.00    +0.000 HD
ENDBRANCH   8   9
ENDBRANCH   7   8
ENDBRANCH   1   7
BRANCH   4  12
ATOM     12  C   UNL     1      43.629   5.051  10.695  0.00  0.00    +0.000 C 
BRANCH  12  13
ATOM     13  N   UNL     1      44.189   3.827  10.137  0.00  0.00    +0.000 N 
ATOM     14  N   UNL     1      43.679   2.636  10.521  0.00  0.00    +0.000 NA
ATOM     15  C   UNL     1      44.300   1.757   9.731  0.00  0.00    +0.000 A 
ATOM     16  C   UNL     1      45.191   2.371   8.825  0.00  0.00    +0.000 A 
ATOM     17  C   UNL     1      46.042   1.933   7.792  0.00  0.00    +0.000 A 
ATOM     18  C   UNL     1      46.793   2.881   7.089  0.00  0.00    +0.000 A 
ATOM     19  C   UNL     1      46.714   4.235   7.410  0.00  0.00    +0.000 A 
ATOM     20  C   UNL     1      45.875   4.688   8.433  0.00  0.00    +0.000 A 
ATOM     21  C   UNL     1      45.118   3.730   9.123  0.00  0.00    +0.000 A 
ENDBRANCH  12  13
ENDBRANCH   4  12
TORSDOF 5
ENDMDL
MODEL 5
REMARK VINA RESULT:    -6.470      2.475      6.449
REMARK INTER + INTRA:          -8.676
REMARK INTER:                  -8.004
REMARK INTRA:                  -0.671
REMARK UNBOUND:                -0.504
REMARK  Name = 
REMARK  5 active torsions:
REMARK  status: ('A' for Active; 'I' for Inactive)
REMARK    1  A    between atoms: N_1  and  C_2
REMARK    2  A    between atoms: C_2  and  C_3
REMARK    3  A    between atoms: C_3  and  C_4
REMARK    4  A    between atoms: C_7  and  C_8
REMARK    5  A    between atoms: C_8  and  N_9
REMARK                            x       y       z     vdW  Elec       q    Type
REMARK                         _______ _______ _______ _____ _____    ______ ____
ROOT
ATOM      1  C   UNL     1      48.070   6.869  13.825  0.00  0.00    +0.000 A 
ATOM      2  C   UNL     1      47.260   7.885  13.326  0.00  0.00    +0.000 A 
ATOM      3  C   UNL     1      45.973   7.571  12.896  0.00  0.00    +0.000 A 
ATOM      4  C   UNL     1      45.520   6.252  12.966  0.00  0.00    +0.000 A 
ATOM      5  C   UNL     1      46.405   5.302  13.459  0.00  0.00    +0.000 A 
ATOM      6  N   UNL     1      47.657   5.582  13.892  0.00  0.00    +0.000 NA
ENDROOT
BRANCH   1   7
ATOM      7  C   UNL     1      49.471   7.166  14.293  0.00  0.00    +0.000 C 
BRANCH   7   8
ATOM      8  C   UNL     1      49.571   7.122  15.819  0.00  0.00    +0.000 C 
BRANCH   8   9
ATOM      9  N   UNL     1      49.735   5.747  16.298  0.00  0.00    +0.000 NA
ATOM     10  H   UNL     1      50.367   5.251  15.669  0.00  0.00    +0.000 HD
ATOM     11  H   UNL     1      48.841   5.262  16.231  0.00  0.00    +0.000 HD
ENDBRANCH   8   9
ENDBRANCH   7   8
ENDBRANCH   1   7
BRANCH   4  12
ATOM     12  C   UNL     1      44.140   5.859  12.523  0.00  0.00    +0.000 C 
BRANCH  12  13
ATOM     13  N   UNL     1      44.119   4.560  11.864  0.00  0.00    +0.000 N 
ATOM     14  N   UNL     1      43.444   3.541  12.441  0.00  0.00    +0.000 NA
ATOM     15  C   UNL     1      43.501   2.568  11.528  0.00  0.00    +0.000 A 
ATOM     16  C   UNL     1      44.187   2.956  10.359  0.00  0.00    +0.000 A 
ATOM     17  C   UNL     1      44.498   2.354   9.124  0.00  0.00    +0.000 A 
ATOM     18  C   UNL     1      45.219   3.089   8.177  0.00  0.00    +0.000 A 
ATOM     19  C   UNL     1      45.635   4.391   8.450  0.00  0.00    +0.000 A 
ATOM     20  C   UNL     1      45.336   5.005   9.671  0.00  0.00    +0.000 A 
ATOM     21  C   UNL     1      44.604   4.262  10.608  0.00  0.00    +0.000 A 
ENDBRANCH  12  13
ENDBRANCH   4  12
TORSDOF 5
ENDMDL
MODEL 6
REMARK VINA RESULT:    -5.860      2.472      6.467
REMARK INTER + INTRA:          -7.906
REMARK INTER:                  -7.281
REMARK INTRA:                  -0.625
REMARK UNBOUND:                -0.504
REMARK  Name = 
REMARK  5 active torsions:
REMARK  status: ('A' for Active; 'I' for Inactive)
REMARK    1  A    between atoms: N_1  and  C_2
REMARK    2  A    between atoms: C_2  and  C_3
REMARK    3  A    between atoms: C_3  and  C_4
REMARK    4  A    between atoms: C_7  and  C_8
REMARK    5  A    between atoms: C_8  and  N_9
REMARK                            x       y       z     vdW  Elec       q    Type
REMARK                         _______ _______ _______ _____ _____    ______ ____
ROOT
ATOM      1  C   UNL     1      47.584   7.983  13.319  0.00  0.00    +0.000 A 
ATOM      2  C   UNL     1      47.782   6.868  12.510  0.00  0.00    +0.000 A 
ATOM      3  C   UNL     1      46.703   6.358  11.791  0.00  0.00    +0.000 A 
ATOM      4  C   UNL     1      45.449   6.963  11.899  0.00  0.00    +0.000 A 
ATOM      5  C   UNL     1      45.342   8.058  12.746  0.00  0.00    +0.000 A 
ATOM      6  N   UNL     1      46.376   8.580  13.447  0.00  0.00    +0.000 NA
ENDROOT
BRANCH   1   7
ATOM      7  C   UNL     1      48.724   8.561  14.119  0.00  0.00    +0.000 C 
BRANCH   7   8
ATOM      8  C   UNL     1      49.405   9.707  13.371  0.00  0.00    +0.000 C 
BRANCH   8   9
ATOM      9  N   UNL     1      48.443  10.447  12.550  0.00  0.00    +0.000 NA
ATOM     10  H   UNL     1      48.913  11.251  12.134  0.00  0.00    +0.000 HD
ATOM     11  H   UNL     1      47.717  10.833  13.153  0.00  0.00    +0.000 HD
ENDBRANCH   8   9
ENDBRANCH   7   8
ENDBRANCH   1   7
BRANCH   4  12
ATOM     12  C   UNL     1      44.255   6.459  11.142  0.00  0.00    +0.000 C 
BRANCH  12  13
ATOM     13  N   UNL     1      44.282   5.014  10.963  0.00  0.00    +0.000 N 
ATOM     14  N   UNL     1      43.594   4.231  11.825  0.00  0.00    +0.000 NA
ATOM     15  C   UNL     1      43.707   3.009  11.300  0.00  0.00    +0.000 A 
ATOM     16  C   UNL     1      44.442   2.997  10.096  0.00  0.00    +0.000 A 
ATOM     17  C   UNL     1      44.818   2.022   9.153  0.00  0.00    +0.000 A 
ATOM     18  C   UNL     1      45.573   2.413   8.041  0.00  0.00    +0.000 A 
ATOM     19  C   UNL     1      45.959   3.741   7.872  0.00  0.00    +0.000 A 
ATOM     20  C   UNL     1      45.595   4.723   8.799  0.00  0.00    +0.000 A 
ATOM     21  C   UNL     1      44.829   4.321   9.903  0.00  0.00    +0.000 A 
ENDBRANCH  12  13
ENDBRANCH   4  12
TORSDOF 5
ENDMDL
MODEL 7
REMARK VINA RESULT:    -5.711      4.173      7.595
REMARK INTER + INTRA:          -7.718
REMARK INTER:                  -7.003
REMARK INTRA:                  -0.714
REMARK UNBOUND:                -0.504
REMARK  Name = 
REMARK  5 active torsions:
REMARK  status: ('A' for Active; 'I' for Inactive)
REMARK    1  A    between atoms: N_1  and  C_2
REMARK    2  A    between atoms: C_2  and  C_3
REMARK    3  A    between atoms: C_3  and  C_4
REMARK    4  A    between atoms: C_7  and  C_8
REMARK    5  A    between atoms: C_8  and  N_9
REMARK                            x       y       z     vdW  Elec       q    Type
REMARK                         _______ _______ _______ _____ _____    ______ ____
ROOT
ATOM      1  C   UNL     1      50.928   2.888  17.443  0.00  0.00    +0.000 A 
ATOM      2  C   UNL     1      50.559   4.179  17.806  0.00  0.00    +0.000 A 
ATOM      3  C   UNL     1      49.295   4.643  17.450  0.00  0.00    +0.000 A 
ATOM      4  C   UNL     1      48.427   3.816  16.734  0.00  0.00    +0.000 A 
ATOM      5  C   UNL     1      48.890   2.550  16.398  0.00  0.00    +0.000 A 
ATOM      6  N   UNL     1      50.109   2.071  16.741  0.00  0.00    +0.000 NA
ENDROOT
BRANCH   1   7
ATOM      7  C   UNL     1      52.290   2.350  17.803  0.00  0.00    +0.000 C 
BRANCH   7   8
ATOM      8  C   UNL     1      52.424   0.874  17.426  0.00  0.00    +0.000 C 
BRANCH   8   9
ATOM      9  N   UNL     1      51.566   0.034  18.266  0.00  0.00    +0.000 NA
ATOM     10  H   UNL     1      51.935   0.031  19.216  0.00  0.00    +0.000 HD
ATOM     11  H   UNL     1      51.626  -0.932  17.943  0.00  0.00    +0.000 HD
ENDBRANCH   8   9
ENDBRANCH   7   8
ENDBRANCH   1   7
BRANCH   4  12
ATOM     12  C   UNL     1      47.052   4.263  16.331  0.00  0.00    +0.000 C 
BRANCH  12  13
ATOM     13  N   UNL     1      46.971   4.596  14.915  0.00  0.00    +0.000 N 
ATOM     14  N   UNL     1      46.186   3.848  14.108  0.00  0.00    +0.000 NA
ATOM     15  C   UNL     1      46.223   4.498  12.942  0.00  0.00    +0.000 A 
ATOM     16  C   UNL     1      47.007   5.670  12.994  0.00  0.00    +0.000 A 
ATOM     17  C   UNL     1      47.344   6.699  12.095  0.00  0.00    +0.000 A 
ATOM     18  C   UNL     1      48.175   7.735  12.536  0.00  0.00    +0.000 A 
ATOM     19  C   UNL     1      48.673   7.746  13.837  0.00  0.00    +0.000 A 
ATOM     20  C   UNL     1      48.349   6.732  14.744  0.00  0.00    +0.000 A 
ATOM     21  C   UNL     1      47.506   5.705  14.294  0.00  0.00    +0.000 A 
ENDBRANCH  12  13
ENDBRANCH   4  12
TORSDOF 5
ENDMDL
MODEL 8
REMARK VINA RESULT:    -5.595      4.119      7.709
REMARK INTER + INTRA:          -7.571
REMARK INTER:                  -7.320
REMARK INTRA:                  -0.251
REMARK UNBOUND:                -0.504
REMARK  Name = 
REMARK  5 active torsions:
REMARK  status: ('A' for Active; 'I' for Inactive)
REMARK    1  A    between atoms: N_1  and  C_2
REMARK    2  A    between atoms: C_2  and  C_3
REMARK    3  A    between atoms: C_3  and  C_4
REMARK    4  A    between atoms: C_7  and  C_8
REMARK    5  A    between atoms: C_8  and  N_9
REMARK                            x       y       z     vdW  Elec       q    Type
REMARK                         _______ _______ _______ _____ _____    ______ ____
ROOT
ATOM      1  C   UNL     1      50.847   2.865  17.473  0.00  0.00    +0.000 A 
ATOM      2  C   UNL     1      50.406   4.143  17.800  0.00  0.00    +0.000 A 
ATOM      3  C   UNL     1      49.176   4.577  17.310  0.00  0.00    +0.000 A 
ATOM      4  C   UNL     1      48.415   3.733  16.499  0.00  0.00    +0.000 A 
ATOM      5  C   UNL     1      48.946   2.483  16.209  0.00  0.00    +0.000 A 
ATOM      6  N   UNL     1      50.132   2.033  16.680  0.00  0.00    +0.000 NA
ENDROOT
BRANCH   1   7
ATOM      7  C   UNL     1      52.176   2.361  17.977  0.00  0.00    +0.000 C 
BRANCH   7   8
ATOM      8  C   UNL     1      52.440   0.927  17.514  0.00  0.00    +0.000 C 
BRANCH   8   9
ATOM      9  N   UNL     1      51.640  -0.031  18.282  0.00  0.00    +0.000 NA
ATOM     10  H   UNL     1      50.735   0.388  18.493  0.00  0.00    +0.000 HD
ATOM     11  H   UNL     1      52.088  -0.193  19.184  0.00  0.00    +0.000 HD
ENDBRANCH   8   9
ENDBRANCH   7   8
ENDBRANCH   1   7
BRANCH   4  12
ATOM     12  C   UNL     1      47.080   4.147  15.950  0.00  0.00    +0.000 C 
BRANCH  12  13
ATOM     13  N   UNL     1      47.205   5.055  14.817  0.00  0.00    +0.000 N 
ATOM     14  N   UNL     1      48.272   5.883  14.752  0.00  0.00    +0.000 NA
ATOM     15  C   UNL     1      48.156   6.452  13.550  0.00  0.00    +0.000 A 
ATOM     16  C   UNL     1      47.038   5.985  12.829  0.00  0.00    +0.000 A 
ATOM     17  C   UNL     1      46.489   6.219  11.554  0.00  0.00    +0.000 A 
ATOM     18  C   UNL     1      45.326   5.534  11.183  0.00  0.00    +0.000 A 
ATOM     19  C   UNL     1      44.712   4.643  12.061  0.00  0.00    +0.000 A 
ATOM     20  C   UNL     1      45.243   4.398  13.331  0.00  0.00    +0.000 A 
ATOM     21  C   UNL     1      46.414   5.082  13.688  0.00  0.00    +0.000 A 
ENDBRANCH  12  13
ENDBRANCH   4  12
TORSDOF 5
ENDMDL
MODEL 9
REMARK VINA RESULT:    -5.158      2.954      4.941
REMARK INTER + INTRA:          -7.019
REMARK INTER:                  -6.184
REMARK INTRA:                  -0.835
REMARK UNBOUND:                -0.504
REMARK  Name = 
REMARK  5 active torsions:
REMARK  status: ('A' for Active; 'I' for Inactive)
REMARK    1  A    between atoms: N_1  and  C_2
REMARK    2  A    between atoms: C_2  and  C_3
REMARK    3  A    between atoms: C_3  and  C_4
REMARK    4  A    between atoms: C_7  and  C_8
REMARK    5  A    between atoms: C_8  and  N_9
REMARK                            x       y       z     vdW  Elec       q    Type
REMARK                         _______ _______ _______ _____ _____    ______ ____
ROOT
ATOM      1  C   UNL     1      44.657   4.960  11.302  0.00  0.00    +0.000 A 
ATOM      2  C   UNL     1      45.699   4.806  12.212  0.00  0.00    +0.000 A 
ATOM      3  C   UNL     1      46.188   5.931  12.872  0.00  0.00    +0.000 A 
ATOM      4  C   UNL     1      45.636   7.186  12.607  0.00  0.00    +0.000 A 
ATOM      5  C   UNL     1      44.613   7.245  11.669  0.00  0.00    +0.000 A 
ATOM      6  N   UNL     1      44.112   6.167  11.022  0.00  0.00    +0.000 NA
ENDROOT
BRANCH   1   7
ATOM      7  C   UNL     1      44.104   3.768  10.562  0.00  0.00    +0.000 C 
BRANCH   7   8
ATOM      8  C   UNL     1      44.844   3.538   9.243  0.00  0.00    +0.000 C 
BRANCH   8   9
ATOM      9  N   UNL     1      45.215   4.810   8.617  0.00  0.00    +0.000 NA
ATOM     10  H   UNL     1      45.046   5.566   9.279  0.00  0.00    +0.000 HD
ATOM     11  H   UNL     1      44.592   4.988   7.829  0.00  0.00    +0.000 HD
ENDBRANCH   8   9
ENDBRANCH   7   8
ENDBRANCH   1   7
BRANCH   4  12
ATOM     12  C   UNL     1      46.120   8.430  13.295  0.00  0.00    +0.000 C 
BRANCH  12  13
ATOM     13  N   UNL     1      46.964   9.246  12.433  0.00  0.00    +0.000 N 
ATOM     14  N   UNL     1      46.494  10.432  11.984  0.00  0.00    +0.000 NA
ATOM     15  C   UNL     1      47.546  10.973  11.364  0.00  0.00    +0.000 A 
ATOM     16  C   UNL     1      48.696  10.158  11.426  0.00  0.00    +0.000 A 
ATOM     17  C   UNL     1      50.028  10.258  10.983  0.00  0.00    +0.000 A 
ATOM     18  C   UNL     1      50.910   9.205  11.250  0.00  0.00    +0.000 A 
ATOM     19  C   UNL     1      50.477   8.068  11.931  0.00  0.00    +0.000 A 
ATOM     20  C   UNL     1      49.157   7.951  12.378  0.00  0.00    +0.000 A 
ATOM     21  C   UNL     1      48.286   9.019  12.115  0.00  0.00    +0.000 A 
ENDBRANCH  12  13
ENDBRANCH   4  12
TORSDOF 5
ENDMDL
