MODEL 1
REMARK VINA RESULT:    -7.688      0.000      0.000
REMARK INTER + INTRA:         -11.551
REMARK INTER:                 -10.385
REMARK INTRA:                  -1.166
REMARK UNBOUND:                -1.166
REMARK  Name = 
REMARK  8 active torsions:
REMARK  status: ('A' for Active; 'I' for Inactive)
REMARK    1  A    between atoms: C_1  and  C_2
REMARK    2  A    between atoms: C_2  and  N_3
REMARK    3  A    between atoms: C_2  and  C_17
REMARK    4  A    between atoms: C_4  and  C_6
REMARK    5  A    between atoms: N_12  and  C_13
REMARK    6  A    between atoms: C_20  and  C_21
REMARK    7  A    between atoms: C_21  and  N_22
REMARK    8  A    between atoms: C_27  and  C_28
REMARK                            x       y       z     vdW  Elec       q    Type
REMARK                         _______ _______ _______ _____ _____    ______ ____
ROOT
ATOM      1  C   UNL     1      47.251   3.923  16.104  0.00  0.00    +0.000 C 
ATOM      2  C   UNL     1      47.746   4.987  15.117  0.00  0.00    +0.000 C 
ENDROOT
BRANCH   2   3
ATOM      3  C   UNL     1      46.778   5.120  13.942  0.00  0.00    +0.000 A 
ATOM      4  C   UNL     1      47.043   6.024  12.916  0.00  0.00    +0.000 A 
ATOM      5  C   UNL     1      46.152   6.121  11.844  0.00  0.00    +0.000 A 
ATOM      6  C   UNL     1      45.008   5.319  11.811  0.00  0.00    +0.000 A 
ATOM      7  C   UNL     1      44.813   4.462  12.888  0.00  0.00    +0.000 A 
ATOM      8  N   UNL     1      45.660   4.348  13.939  0.00  0.00    +0.000 NA
BRANCH   6   9
ATOM      9  C   UNL     1      44.012   5.367  10.680  0.00  0.00    +0.000 C 
BRANCH   9  10
ATOM     10  N   UNL     1      44.681   5.128   9.419  0.00  0.00    +0.000 N 
ATOM     11  C   UNL     1      44.962   3.806   9.120  0.00  0.00    +0.000 A 
ATOM     12  N   UNL     1      44.192   2.818   9.591  0.00  0.00    +0.000 NA
ATOM     13  C   UNL     1      44.494   1.559   9.226  0.00  0.00    +0.000 A 
ATOM     14  C   UNL     1      45.542   1.245   8.401  0.00  0.00    +0.000 A 
ATOM     15  C   UNL     1      46.285   2.324   7.980  0.00  0.00    +0.000 A 
ATOM     16  N   UNL     1      46.020   3.603   8.328  0.00  0.00    +0.000 NA
ATOM     17  H   UNL     1      45.522   5.667   9.260  0.00  0.00    +0.000 HD
BRANCH  15  18
ATOM     18  C   UNL     1      47.416   2.134   7.117  0.00  0.00    +0.000 C 
ATOM     19  N   UNL     1      48.319   1.935   6.415  0.00  0.00    +0.000 NA
ENDBRANCH  15  18
ENDBRANCH   9  10
ENDBRANCH   6   9
ENDBRANCH   2   3
BRANCH   2  20
ATOM     20  N   UNL     1      47.919   6.252  15.814  0.00  0.00    +0.000 N 
ATOM     21  C   UNL     1      49.047   7.026  15.706  0.00  0.00    +0.000 C 
ATOM     22  O   UNL     1      50.063   6.632  15.139  0.00  0.00    +0.000 OA
ATOM     23  H   UNL     1      47.046   6.713  16.053  0.00  0.00    +0.000 HD
BRANCH  21  24
ATOM     24  C   UNL     1      48.988   8.351  16.338  0.00  0.00    +0.000 A 
ATOM     25  C   UNL     1      49.231   9.504  15.602  0.00  0.00    +0.000 A 
ATOM     26  S   UNL     1      49.038  10.942  16.507  0.00  0.00    +0.000 S 
ATOM     27  C   UNL     1      48.600  10.071  17.902  0.00  0.00    +0.000 A 
ATOM     28  N   UNL     1      48.233  10.707  19.050  0.00  0.00    +0.000 NA
ATOM     29  C   UNL     1      47.891   9.913  20.011  0.00  0.00    +0.000 A 
ATOM     30  N   UNL     1      47.905   8.533  19.960  0.00  0.00    +0.000 N 
ATOM     31  C   UNL     1      47.553   7.727  21.106  0.00  0.00    +0.000 C 
ATOM     32  C   UNL     1      48.351   7.860  18.835  0.00  0.00    +0.000 A 
ATOM     33  O   UNL     1      48.522   6.648  18.817  0.00  0.00    +0.000 OA
ATOM     34  C   UNL     1      48.662   8.708  17.698  0.00  0.00    +0.000 A 
ENDBRANCH  21  24
ENDBRANCH   2  20
TORSDOF 6
ENDMDL
MODEL 2
REMARK VINA RESULT:    -7.585      2.021      2.927
REMARK INTER + INTRA:         -11.411
REMARK INTER:                 -10.374
REMARK INTRA:                  -1.037
REMARK UNBOUND:                -1.166
REMARK  Name = 
REMARK  8 active torsions:
REMARK  status: ('A' for Active; 'I' for Inactive)
REMARK    1  A    between atoms: C_1  and  C_2
REMARK    2  A    between atoms: C_2  and  N_3
REMARK    3  A    between atoms: C_2  and  C_17
REMARK    4  A    between atoms: C_4  and  C_6
REMARK    5  A    between atoms: N_12  and  C_13
REMARK    6  A    between atoms: C_20  and  C_21
REMARK    7  A    between atoms: C_21  and  N_22
REMARK    8  A    between atoms: C_27  and  C_28
REMARK                            x       y       z     vdW  Elec       q    Type
REMARK                         _______ _______ _______ _____ _____    ______ ____
ROOT
ATOM      1  C   UNL     1      49.410   7.382  13.065  0.00  0.00    +0.000 C 
ATOM      2  C   UNL     1      48.120   7.808  13.775  0.00  0.00    +0.000 C 
ENDROOT
BRANCH   2   3
ATOM      3  C   UNL     1      46.905   7.159  13.114  0.00  0.00    +0.000 A 
ATOM      4  C   UNL     1      45.940   7.949  12.493  0.00  0.00    +0.000 A 
ATOM      5  C   UNL     1      44.843   7.335  11.885  0.00  0.00    +0.000 A 
ATOM      6  C   UNL     1      44.720   5.943  11.904  0.00  0.00    +0.000 A 
ATOM      7  C   UNL     1      45.719   5.237  12.564  0.00  0.00    +0.000 A 
ATOM      8  N   UNL     1      46.793   5.806  13.162  0.00  0.00    +0.000 NA
BRANCH   6   9
ATOM      9  C   UNL     1      43.568   5.217  11.257  0.00  0.00    +0.000 C 
BRANCH   9  10
ATOM     10  N   UNL     1      43.772   5.137   9.826  0.00  0.00    +0.000 N 
ATOM     11  C   UNL     1      44.411   3.998   9.366  0.00  0.00    +0.000 A 
ATOM     12  N   UNL     1      44.306   2.838  10.027  0.00  0.00    +0.000 NA
ATOM     13  C   UNL     1      44.914   1.759   9.503  0.00  0.00    +0.000 A 
ATOM     14  C   UNL     1      45.627   1.792   8.333  0.00  0.00    +0.000 A 
ATOM     15  C   UNL     1      45.692   3.028   7.733  0.00  0.00    +0.000 A 
ATOM     16  N   UNL     1      45.101   4.139   8.230  0.00  0.00    +0.000 NA
ATOM     17  H   UNL     1      44.223   5.937   9.401  0.00  0.00    +0.000 HD
BRANCH  15  18
ATOM     18  C   UNL     1      46.414   3.203   6.505  0.00  0.00    +0.000 C 
ATOM     19  N   UNL     1      47.025   3.307   5.523  0.00  0.00    +0.000 NA
ENDBRANCH  15  18
ENDBRANCH   9  10
ENDBRANCH   6   9
ENDBRANCH   2   3
BRANCH   2  20
ATOM     20  N   UNL     1      48.208   7.468  15.186  0.00  0.00    +0.000 N 
ATOM     21  C   UNL     1      48.659   8.339  16.146  0.00  0.00    +0.000 C 
ATOM     22  O   UNL     1      49.174   9.418  15.865  0.00  0.00    +0.000 OA
ATOM     23  H   UNL     1      47.568   6.732  15.473  0.00  0.00    +0.000 HD
BRANCH  21  24
ATOM     24  C   UNL     1      48.521   7.896  17.540  0.00  0.00    +0.000 A 
ATOM     25  C   UNL     1      48.086   8.771  18.527  0.00  0.00    +0.000 A 
ATOM     26  S   UNL     1      47.923   8.038  20.064  0.00  0.00    +0.000 S 
ATOM     27  C   UNL     1      48.403   6.523  19.453  0.00  0.00    +0.000 A 
ATOM     28  N   UNL     1      48.419   5.412  20.241  0.00  0.00    +0.000 NA
ATOM     29  C   UNL     1      48.769   4.329  19.628  0.00  0.00    +0.000 A 
ATOM     30  N   UNL     1      49.139   4.240  18.300  0.00  0.00    +0.000 N 
ATOM     31  C   UNL     1      49.565   2.990  17.713  0.00  0.00    +0.000 C 
ATOM     32  C   UNL     1      49.211   5.365  17.496  0.00  0.00    +0.000 A 
ATOM     33  O   UNL     1      49.684   5.339  16.367  0.00  0.00    +0.000 OA
ATOM     34  C   UNL     1      48.742   6.592  18.117  0.00  0.00    +0.000 A 
ENDBRANCH  21  24
ENDBRANCH   2  20
TORSDOF 6
ENDMDL
MODEL 3
REMARK VINA RESULT:    -7.502      2.283      3.447
REMARK INTER + INTRA:         -11.300
REMARK INTER:                 -10.029
REMARK INTRA:                  -1.272
REMARK UNBOUND:                -1.166
REMARK  Name = 
REMARK  8 active torsions:
REMARK  status: ('A' for Active; 'I' for Inactive)
REMARK    1  A    between atoms: C_1  and  C_2
REMARK    2  A    between atoms: C_2  and  N_3
REMARK    3  A    between atoms: C_2  and  C_17
REMARK    4  A    between atoms: C_4  and  C_6
REMARK    5  A    between atoms: N_12  and  C_13
REMARK    6  A    between atoms: C_20  and  C_21
REMARK    7  A    between atoms: C_21  and  N_22
REMARK    8  A    between atoms: C_27  and  C_28
REMARK                            x       y       z     vdW  Elec       q    Type
REMARK                         _______ _______ _______ _____ _____    ______ ____
ROOT
ATOM      1  C   UNL     1      50.482   8.478  13.139  0.00  0.00    +0.000 C 
ATOM      2  C   UNL     1      49.261   8.639  14.051  0.00  0.00    +0.000 C 
ENDROOT
BRANCH   2   3
ATOM      3  C   UNL     1      48.037   7.966  13.432  0.00  0.00    +0.000 A 
ATOM      4  C   UNL     1      48.149   6.702  12.857  0.00  0.00    +0.000 A 
ATOM      5  C   UNL     1      47.015   6.099  12.307  0.00  0.00    +0.000 A 
ATOM      6  C   UNL     1      45.786   6.764  12.334  0.00  0.00    +0.000 A 
ATOM      7  C   UNL     1      45.773   8.030  12.908  0.00  0.00    +0.000 A 
ATOM      8  N   UNL     1      46.856   8.638  13.448  0.00  0.00    +0.000 NA
BRANCH   6   9
ATOM      9  C   UNL     1      44.523   6.166  11.769  0.00  0.00    +0.000 C 
BRANCH   9  10
ATOM     10  N   UNL     1      44.641   6.020  10.333  0.00  0.00    +0.000 N 
ATOM     11  C   UNL     1      44.775   4.725   9.862  0.00  0.00    +0.000 A 
ATOM     12  N   UNL     1      44.245   3.694  10.533  0.00  0.00    +0.000 NA
ATOM     13  C   UNL     1      44.372   2.466   9.998  0.00  0.00    +0.000 A 
ATOM     14  C   UNL     1      45.010   2.225   8.809  0.00  0.00    +0.000 A 
ATOM     15  C   UNL     1      45.533   3.343   8.201  0.00  0.00    +0.000 A 
ATOM     16  N   UNL     1      45.434   4.593   8.708  0.00  0.00    +0.000 NA
ATOM     17  H   UNL     1      45.355   6.585   9.892  0.00  0.00    +0.000 HD
BRANCH  15  18
ATOM     18  C   UNL     1      46.233   3.230   6.953  0.00  0.00    +0.000 C 
ATOM     19  N   UNL     1      46.774   3.174   5.927  0.00  0.00    +0.000 NA
ENDBRANCH  15  18
ENDBRANCH   9  10
ENDBRANCH   6   9
ENDBRANCH   2   3
BRANCH   2  20
ATOM     20  N   UNL     1      49.563   8.096  15.367  0.00  0.00    +0.000 N 
ATOM     21  C   UNL     1      48.881   8.448  16.504  0.00  0.00    +0.000 C 
ATOM     22  O   UNL     1      48.069   9.369  16.525  0.00  0.00    +0.000 OA
ATOM     23  H   UNL     1      50.010   7.183  15.342  0.00  0.00    +0.000 HD
BRANCH  21  24
ATOM     24  C   UNL     1      49.199   7.679  17.715  0.00  0.00    +0.000 A 
ATOM     25  C   UNL     1      49.699   8.308  18.848  0.00  0.00    +0.000 A 
ATOM     26  S   UNL     1      49.930   7.246  20.170  0.00  0.00    +0.000 S 
ATOM     27  C   UNL     1      49.345   5.920  19.277  0.00  0.00    +0.000 A 
ATOM     28  N   UNL     1      49.210   4.688  19.843  0.00  0.00    +0.000 NA
ATOM     29  C   UNL     1      48.718   3.791  19.053  0.00  0.00    +0.000 A 
ATOM     30  N   UNL     1      48.369   3.987  17.731  0.00  0.00    +0.000 N 
ATOM     31  C   UNL     1      47.873   2.907  16.909  0.00  0.00    +0.000 C 
ATOM     32  C   UNL     1      48.572   5.205  17.106  0.00  0.00    +0.000 A 
ATOM     33  O   UNL     1      48.420   5.362  15.901  0.00  0.00    +0.000 OA
ATOM     34  C   UNL     1      49.040   6.269  17.978  0.00  0.00    +0.000 A 
ENDBRANCH  21  24
ENDBRANCH   2  20
TORSDOF 6
ENDMDL
MODEL 4
REMARK VINA RESULT:    -7.176      1.658      2.827
REMARK INTER + INTRA:         -10.859
REMARK INTER:                  -9.902
REMARK INTRA:                  -0.957
REMARK UNBOUND:                -1.166
REMARK  Name = 
REMARK  8 active torsions:
REMARK  status: ('A' for Active; 'I' for Inactive)
REMARK    1  A    between atoms: C_1  and  C_2
REMARK    2  A    between atoms: C_2  and  N_3
REMARK    3  A    between atoms: C_2  and  C_17
REMARK    4  A    between atoms: C_4  and  C_6
REMARK    5  A    between atoms: N_12  and  C_13
REMARK    6  A    between atoms: C_20  and  C_21
REMARK    7  A    between atoms: C_21  and  N_22
REMARK    8  A    between atoms: C_27  and  C_28
REMARK                            x       y       z     vdW  Elec       q    Type
REMARK                         _______ _______ _______ _____ _____    ______ ____
ROOT
ATOM      1  C   UNL     1      47.136   3.998  16.078  0.00  0.00    +0.000 C 
ATOM      2  C   UNL     1      47.664   4.966  15.013  0.00  0.00    +0.000 C 
ENDROOT
BRANCH   2   3
ATOM      3  C   UNL     1      46.684   5.063  13.844  0.00  0.00    +0.000 A 
ATOM      4  C   UNL     1      46.791   6.106  12.926  0.00  0.00    +0.000 A 
ATOM      5  C   UNL     1      45.892   6.169  11.858  0.00  0.00    +0.000 A 
ATOM      6  C   UNL     1      44.900   5.195  11.720  0.00  0.00    +0.000 A 
ATOM      7  C   UNL     1      44.856   4.205  12.694  0.00  0.00    +0.000 A 
ATOM      8  N   UNL     1      45.712   4.119  13.739  0.00  0.00    +0.000 NA
BRANCH   6   9
ATOM      9  C   UNL     1      43.907   5.199  10.585  0.00  0.00    +0.000 C 
BRANCH   9  10
ATOM     10  N   UNL     1      44.592   5.000   9.325  0.00  0.00    +0.000 N 
ATOM     11  C   UNL     1      44.935   3.694   9.019  0.00  0.00    +0.000 A 
ATOM     12  N   UNL     1      44.208   2.668   9.480  0.00  0.00    +0.000 NA
ATOM     13  C   UNL     1      44.569   1.427   9.108  0.00  0.00    +0.000 A 
ATOM     14  C   UNL     1      45.634   1.167   8.286  0.00  0.00    +0.000 A 
ATOM     15  C   UNL     1      46.328   2.282   7.875  0.00  0.00    +0.000 A 
ATOM     16  N   UNL     1      46.004   3.545   8.230  0.00  0.00    +0.000 NA
ATOM     17  H   UNL     1      45.409   5.578   9.174  0.00  0.00    +0.000 HD
BRANCH  15  18
ATOM     18  C   UNL     1      47.471   2.149   7.016  0.00  0.00    +0.000 C 
ATOM     19  N   UNL     1      48.404   2.001   6.341  0.00  0.00    +0.000 NA
ENDBRANCH  15  18
ENDBRANCH   9  10
ENDBRANCH   6   9
ENDBRANCH   2   3
BRANCH   2  20
ATOM     20  N   UNL     1      47.907   6.266  15.618  0.00  0.00    +0.000 N 
ATOM     21  C   UNL     1      49.126   6.652  16.116  0.00  0.00    +0.000 C 
ATOM     22  O   UNL     1      50.065   5.868  16.236  0.00  0.00    +0.000 OA
ATOM     23  H   UNL     1      47.270   6.993  15.301  0.00  0.00    +0.000 HD
BRANCH  21  24
ATOM     24  C   UNL     1      49.242   8.056  16.533  0.00  0.00    +0.000 A 
ATOM     25  C   UNL     1      48.488   8.551  17.589  0.00  0.00    +0.000 A 
ATOM     26  S   UNL     1      48.827  10.186  17.960  0.00  0.00    +0.000 S 
ATOM     27  C   UNL     1      50.011  10.274  16.740  0.00  0.00    +0.000 A 
ATOM     28  N   UNL     1      50.756  11.400  16.554  0.00  0.00    +0.000 NA
ATOM     29  C   UNL     1      51.640  11.304  15.615  0.00  0.00    +0.000 A 
ATOM     30  N   UNL     1      51.843  10.199  14.811  0.00  0.00    +0.000 N 
ATOM     31  C   UNL     1      52.824  10.203  13.751  0.00  0.00    +0.000 C 
ATOM     32  C   UNL     1      51.048   9.072  14.923  0.00  0.00    +0.000 A 
ATOM     33  O   UNL     1      51.101   8.145  14.125  0.00  0.00    +0.000 OA
ATOM     34  C   UNL     1      50.099   9.099  16.023  0.00  0.00    +0.000 A 
ENDBRANCH  21  24
ENDBRANCH   2  20
TORSDOF 6
ENDMDL
MODEL 5
REMARK VINA RESULT:    -7.123      5.185      9.009
REMARK INTER + INTRA:         -10.787
REMARK INTER:                  -9.658
REMARK INTRA:                  -1.129
REMARK UNBOUND:                -1.166
REMARK  Name = 
REMARK  8 active torsions:
REMARK  status: ('A' for Active; 'I' for Inactive)
REMARK    1  A    between atoms: C_1  and  C_2
REMARK    2  A    between atoms: C_2  and  N_3
REMARK    3  A    between atoms: C_2  and  C_17
REMARK    4  A    between atoms: C_4  and  C_6
REMARK    5  A    between atoms: N_12  and  C_13
REMARK    6  A    between atoms: C_20  and  C_21
REMARK    7  A    between atoms: C_21  and  N_22
REMARK    8  A    between atoms: C_27  and  C_28
REMARK                            x       y       z     vdW  Elec       q    Type
REMARK                         _______ _______ _______ _____ _____    ______ ____
ROOT
ATOM      1  C   UNL     1      45.603   8.933  13.183  0.00  0.00    +0.000 C 
ATOM      2  C   UNL     1      46.201   8.274  11.935  0.00  0.00    +0.000 C 
ENDROOT
BRANCH   2   3
ATOM      3  C   UNL     1      47.724   8.391  11.945  0.00  0.00    +0.000 A 
ATOM      4  C   UNL     1      48.512   7.264  12.171  0.00  0.00    +0.000 A 
ATOM      5  C   UNL     1      49.903   7.391  12.164  0.00  0.00    +0.000 A 
ATOM      6  C   UNL     1      50.491   8.638  11.935  0.00  0.00    +0.000 A 
ATOM      7  C   UNL     1      49.628   9.710  11.740  0.00  0.00    +0.000 A 
ATOM      8  N   UNL     1      48.277   9.615  11.742  0.00  0.00    +0.000 NA
BRANCH   6   9
ATOM      9  C   UNL     1      51.984   8.840  11.902  0.00  0.00    +0.000 C 
BRANCH   9  10
ATOM     10  N   UNL     1      52.623   7.726  11.235  0.00  0.00    +0.000 N 
ATOM     11  C   UNL     1      52.787   7.850   9.866  0.00  0.00    +0.000 A 
ATOM     12  N   UNL     1      52.927   9.055   9.298  0.00  0.00    +0.000 NA
ATOM     13  C   UNL     1      53.127   9.103   7.969  0.00  0.00    +0.000 A 
ATOM     14  C   UNL     1      53.196   7.987   7.177  0.00  0.00    +0.000 A 
ATOM     15  C   UNL     1      53.027   6.797   7.846  0.00  0.00    +0.000 A 
ATOM     16  N   UNL     1      52.817   6.704   9.179  0.00  0.00    +0.000 NA
ATOM     17  H   UNL     1      52.221   6.816  11.417  0.00  0.00    +0.000 HD
BRANCH  15  18
ATOM     18  C   UNL     1      53.070   5.551   7.134  0.00  0.00    +0.000 C 
ATOM     19  N   UNL     1      53.078   4.525   6.591  0.00  0.00    +0.000 NA
ENDBRANCH  15  18
ENDBRANCH   9  10
ENDBRANCH   6   9
ENDBRANCH   2   3
BRANCH   2  20
ATOM     20  N   UNL     1      45.770   6.886  11.866  0.00  0.00    +0.000 N 
ATOM     21  C   UNL     1      44.540   6.499  11.398  0.00  0.00    +0.000 C 
ATOM     22  O   UNL     1      43.647   7.305  11.151  0.00  0.00    +0.000 OA
ATOM     23  H   UNL     1      46.536   6.221  11.801  0.00  0.00    +0.000 HD
BRANCH  21  24
ATOM     24  C   UNL     1      44.333   5.053  11.235  0.00  0.00    +0.000 A 
ATOM     25  C   UNL     1      43.596   4.330  12.164  0.00  0.00    +0.000 A 
ATOM     26  S   UNL     1      43.411   2.680  11.750  0.00  0.00    +0.000 S 
ATOM     27  C   UNL     1      44.289   2.888  10.305  0.00  0.00    +0.000 A 
ATOM     28  N   UNL     1      44.453   1.864   9.421  0.00  0.00    +0.000 NA
ATOM     29  C   UNL     1      45.108   2.184   8.354  0.00  0.00    +0.000 A 
ATOM     30  N   UNL     1      45.650   3.425   8.083  0.00  0.00    +0.000 N 
ATOM     31  C   UNL     1      46.413   3.674   6.881  0.00  0.00    +0.000 C 
ATOM     32  C   UNL     1      45.569   4.460   8.998  0.00  0.00    +0.000 A 
ATOM     33  O   UNL     1      46.172   5.517   8.854  0.00  0.00    +0.000 OA
ATOM     34  C   UNL     1      44.766   4.176  10.174  0.00  0.00    +0.000 A 
ENDBRANCH  21  24
ENDBRANCH   2  20
TORSDOF 6
ENDMDL
MODEL 6
REMARK VINA RESULT:    -7.008      3.193      4.383
REMARK INTER + INTRA:         -10.632
REMARK INTER:                  -9.478
REMARK INTRA:                  -1.153
REMARK UNBOUND:                -1.166
REMARK  Name = 
REMARK  8 active torsions:
REMARK  status: ('A' for Active; 'I' for Inactive)
REMARK    1  A    between atoms: C_1  and  C_2
REMARK    2  A    between atoms: C_2  and  N_3
REMARK    3  A    between atoms: C_2  and  C_17
REMARK    4  A    between atoms: C_4  and  C_6
REMARK    5  A    between atoms: N_12  and  C_13
REMARK    6  A    between atoms: C_20  and  C_21
REMARK    7  A    between atoms: C_21  and  N_22
REMARK    8  A    between atoms: C_27  and  C_28
REMARK                            x       y       z     vdW  Elec       q    Type
REMARK                         _______ _______ _______ _____ _____    ______ ____
ROOT
ATOM      1  C   UNL     1      51.397   8.362  11.618  0.00  0.00    +0.000 C 
ATOM      2  C   UNL     1      50.578   8.532  12.903  0.00  0.00    +0.000 C 
ENDROOT
BRANCH   2   3
ATOM      3  C   UNL     1      49.092   8.305  12.625  0.00  0.00    +0.000 A 
ATOM      4  C   UNL     1      48.591   7.011  12.511  0.00  0.00    +0.000 A 
ATOM      5  C   UNL     1      47.227   6.826  12.269  0.00  0.00    +0.000 A 
ATOM      6  C   UNL     1      46.383   7.932  12.141  0.00  0.00    +0.000 A 
ATOM      7  C   UNL     1      46.974   9.185  12.248  0.00  0.00    +0.000 A 
ATOM      8  N   UNL     1      48.291   9.394  12.482  0.00  0.00    +0.000 NA
BRANCH   6   9
ATOM      9  C   UNL     1      44.902   7.802  11.891  0.00  0.00    +0.000 C 
BRANCH   9  10
ATOM     10  N   UNL     1      44.661   6.885  10.797  0.00  0.00    +0.000 N 
ATOM     11  C   UNL     1      44.295   5.598  11.151  0.00  0.00    +0.000 A 
ATOM     12  N   UNL     1      43.637   5.361  12.293  0.00  0.00    +0.000 NA
ATOM     13  C   UNL     1      43.272   4.094  12.556  0.00  0.00    +0.000 A 
ATOM     14  C   UNL     1      43.539   3.044  11.716  0.00  0.00    +0.000 A 
ATOM     15  C   UNL     1      44.231   3.382  10.576  0.00  0.00    +0.000 A 
ATOM     16  N   UNL     1      44.622   4.641  10.277  0.00  0.00    +0.000 NA
ATOM     17  H   UNL     1      45.400   6.819  10.109  0.00  0.00    +0.000 HD
BRANCH  15  18
ATOM     18  C   UNL     1      44.580   2.375   9.614  0.00  0.00    +0.000 C 
ATOM     19  N   UNL     1      44.818   1.550   8.833  0.00  0.00    +0.000 NA
ENDBRANCH  15  18
ENDBRANCH   9  10
ENDBRANCH   6   9
ENDBRANCH   2   3
BRANCH   2  20
ATOM     20  N   UNL     1      51.077   7.621  13.921  0.00  0.00    +0.000 N 
ATOM     21  C   UNL     1      50.964   7.857  15.268  0.00  0.00    +0.000 C 
ATOM     22  O   UNL     1      50.575   8.932  15.716  0.00  0.00    +0.000 OA
ATOM     23  H   UNL     1      51.147   6.655  13.611  0.00  0.00    +0.000 HD
BRANCH  21  24
ATOM     24  C   UNL     1      51.366   6.757  16.156  0.00  0.00    +0.000 A 
ATOM     25  C   UNL     1      52.688   6.611  16.556  0.00  0.00    +0.000 A 
ATOM     26  S   UNL     1      52.929   5.315  17.646  0.00  0.00    +0.000 S 
ATOM     27  C   UNL     1      51.271   4.927  17.638  0.00  0.00    +0.000 A 
ATOM     28  N   UNL     1      50.770   3.934  18.426  0.00  0.00    +0.000 NA
ATOM     29  C   UNL     1      49.490   3.782  18.339  0.00  0.00    +0.000 A 
ATOM     30  N   UNL     1      48.647   4.504  17.517  0.00  0.00    +0.000 N 
ATOM     31  C   UNL     1      47.231   4.226  17.451  0.00  0.00    +0.000 C 
ATOM     32  C   UNL     1      49.138   5.461  16.646  0.00  0.00    +0.000 A 
ATOM     33  O   UNL     1      48.439   6.002  15.798  0.00  0.00    +0.000 OA
ATOM     34  C   UNL     1      50.560   5.730  16.771  0.00  0.00    +0.000 A 
ENDBRANCH  21  24
ENDBRANCH   2  20
TORSDOF 6
ENDMDL
MODEL 7
REMARK VINA RESULT:    -6.978      2.735      3.512
REMARK INTER + INTRA:         -10.591
REMARK INTER:                  -9.535
REMARK INTRA:                  -1.056
REMARK UNBOUND:                -1.166
REMARK  Name = 
REMARK  8 active torsions:
REMARK  status: ('A' for Active; 'I' for Inactive)
REMARK    1  A    between atoms: C_1  and  C_2
REMARK    2  A    between atoms: C_2  and  N_3
REMARK    3  A    between atoms: C_2  and  C_17
REMARK    4  A    between atoms: C_4  and  C_6
REMARK    5  A    between atoms: N_12  and  C_13
REMARK    6  A    between atoms: C_20  and  C_21
REMARK    7  A    between atoms: C_21  and  N_22
REMARK    8  A    between atoms: C_27  and  C_28
REMARK                            x       y       z     vdW  Elec       q    Type
REMARK                         _______ _______ _______ _____ _____    ______ ____
ROOT
ATOM      1  C   UNL     1      46.997   9.643  12.604  0.00  0.00    +0.000 C 
ATOM      2  C   UNL     1      46.842   8.467  13.575  0.00  0.00    +0.000 C 
ENDROOT
BRANCH   2   3
ATOM      3  C   UNL     1      46.098   7.313  12.905  0.00  0.00    +0.000 A 
ATOM      4  C   UNL     1      46.451   5.995  13.187  0.00  0.00    +0.000 A 
ATOM      5  C   UNL     1      45.750   4.954  12.572  0.00  0.00    +0.000 A 
ATOM      6  C   UNL     1      44.710   5.240  11.684  0.00  0.00    +0.000 A 
ATOM      7  C   UNL     1      44.442   6.583  11.446  0.00  0.00    +0.000 A 
ATOM      8  N   UNL     1      45.105   7.611  12.027  0.00  0.00    +0.000 NA
BRANCH   6   9
ATOM      9  C   UNL     1      43.907   4.165  10.997  0.00  0.00    +0.000 C 
BRANCH   9  10
ATOM     10  N   UNL     1      44.723   2.988  10.793  0.00  0.00    +0.000 N 
ATOM     11  C   UNL     1      45.320   2.869   9.550  0.00  0.00    +0.000 A 
ATOM     12  N   UNL     1      45.639   3.956   8.836  0.00  0.00    +0.000 NA
ATOM     13  C   UNL     1      46.258   3.772   7.656  0.00  0.00    +0.000 A 
ATOM     14  C   UNL     1      46.575   2.535   7.157  0.00  0.00    +0.000 A 
ATOM     15  C   UNL     1      46.195   1.479   7.953  0.00  0.00    +0.000 A 
ATOM     16  N   UNL     1      45.566   1.620   9.142  0.00  0.00    +0.000 NA
ATOM     17  H   UNL     1      44.280   2.104  11.009  0.00  0.00    +0.000 HD
BRANCH  15  18
ATOM     18  C   UNL     1      46.461   0.129   7.544  0.00  0.00    +0.000 C 
ATOM     19  N   UNL     1      46.711  -0.947   7.188  0.00  0.00    +0.000 NA
ENDBRANCH  15  18
ENDBRANCH   9  10
ENDBRANCH   6   9
ENDBRANCH   2   3
BRANCH   2  20
ATOM     20  N   UNL     1      48.154   8.055  14.050  0.00  0.00    +0.000 N 
ATOM     21  C   UNL     1      48.689   8.468  15.244  0.00  0.00    +0.000 C 
ATOM     22  O   UNL     1      48.170   9.346  15.929  0.00  0.00    +0.000 OA
ATOM     23  H   UNL     1      48.470   7.168  13.668  0.00  0.00    +0.000 HD
BRANCH  21  24
ATOM     24  C   UNL     1      49.946   7.824  15.650  0.00  0.00    +0.000 A 
ATOM     25  C   UNL     1      51.164   8.472  15.491  0.00  0.00    +0.000 A 
ATOM     26  S   UNL     1      52.493   7.580  16.095  0.00  0.00    +0.000 S 
ATOM     27  C   UNL     1      51.479   6.313  16.610  0.00  0.00    +0.000 A 
ATOM     28  N   UNL     1      51.975   5.236  17.283  0.00  0.00    +0.000 NA
ATOM     29  C   UNL     1      51.080   4.376  17.642  0.00  0.00    +0.000 A 
ATOM     30  N   UNL     1      49.728   4.461  17.372  0.00  0.00    +0.000 N 
ATOM     31  C   UNL     1      48.808   3.421  17.772  0.00  0.00    +0.000 C 
ATOM     32  C   UNL     1      49.208   5.501  16.621  0.00  0.00    +0.000 A 
ATOM     33  O   UNL     1      48.046   5.519  16.236  0.00  0.00    +0.000 OA
ATOM     34  C   UNL     1      50.162   6.539  16.271  0.00  0.00    +0.000 A 
ENDBRANCH  21  24
ENDBRANCH   2  20
TORSDOF 6
ENDMDL
MODEL 8
REMARK VINA RESULT:    -6.254      2.845      3.849
REMARK INTER + INTRA:          -9.613
REMARK INTER:                  -8.535
REMARK INTRA:                  -1.078
REMARK UNBOUND:                -1.166
REMARK  Name = 
REMARK  8 active torsions:
REMARK  status: ('A' for Active; 'I' for Inactive)
REMARK    1  A    between atoms: C_1  and  C_2
REMARK    2  A    between atoms: C_2  and  N_3
REMARK    3  A    between atoms: C_2  and  C_17
REMARK    4  A    between atoms: C_4  and  C_6
REMARK    5  A    between atoms: N_12  and  C_13
REMARK    6  A    between atoms: C_20  and  C_21
REMARK    7  A    between atoms: C_21  and  N_22
REMARK    8  A    between atoms: C_27  and  C_28
REMARK                            x       y       z     vdW  Elec       q    Type
REMARK                         _______ _______ _______ _____ _____    ______ ____
ROOT
ATOM      1  C   UNL     1      48.741  10.885  11.125  0.00  0.00    +0.000 C 
ATOM      2  C   UNL     1      48.337  10.142  12.404  0.00  0.00    +0.000 C 
ENDROOT
BRANCH   2   3
ATOM      3  C   UNL     1      47.337   9.031  12.084  0.00  0.00    +0.000 A 
ATOM      4  C   UNL     1      47.773   7.714  11.956  0.00  0.00    +0.000 A 
ATOM      5  C   UNL     1      46.841   6.711  11.676  0.00  0.00    +0.000 A 
ATOM      6  C   UNL     1      45.490   7.035  11.524  0.00  0.00    +0.000 A 
ATOM      7  C   UNL     1      45.150   8.377  11.648  0.00  0.00    +0.000 A 
ATOM      8  N   UNL     1      46.032   9.368  11.919  0.00  0.00    +0.000 NA
BRANCH   6   9
ATOM      9  C   UNL     1      44.432   6.000  11.233  0.00  0.00    +0.000 C 
BRANCH   9  10
ATOM     10  N   UNL     1      44.401   5.706   9.816  0.00  0.00    +0.000 N 
ATOM     11  C   UNL     1      44.872   4.459   9.443  0.00  0.00    +0.000 A 
ATOM     12  N   UNL     1      44.785   3.416  10.278  0.00  0.00    +0.000 NA
ATOM     13  C   UNL     1      45.220   2.221   9.837  0.00  0.00    +0.000 A 
ATOM     14  C   UNL     1      45.740   2.025   8.585  0.00  0.00    +0.000 A 
ATOM     15  C   UNL     1      45.802   3.157   7.804  0.00  0.00    +0.000 A 
ATOM     16  N   UNL     1      45.382   4.376   8.211  0.00  0.00    +0.000 NA
ATOM     17  H   UNL     1      44.838   6.394   9.216  0.00  0.00    +0.000 HD
BRANCH  15  18
ATOM     18  C   UNL     1      46.332   3.092   6.472  0.00  0.00    +0.000 C 
ATOM     19  N   UNL     1      46.768   2.994   5.400  0.00  0.00    +0.000 NA
ENDBRANCH  15  18
ENDBRANCH   9  10
ENDBRANCH   6   9
ENDBRANCH   2   3
BRANCH   2  20
ATOM     20  N   UNL     1      49.526   9.621  13.059  0.00  0.00    +0.000 N 
ATOM     21  C   UNL     1      49.671   9.558  14.422  0.00  0.00    +0.000 C 
ATOM     22  O   UNL     1      48.874  10.085  15.193  0.00  0.00    +0.000 OA
ATOM     23  H   UNL     1      50.052   8.962  12.492  0.00  0.00    +0.000 HD
BRANCH  21  24
ATOM     24  C   UNL     1      50.859   8.848  14.916  0.00  0.00    +0.000 A 
ATOM     25  C   UNL     1      52.131   9.377  14.740  0.00  0.00    +0.000 A 
ATOM     26  S   UNL     1      53.366   8.432  15.453  0.00  0.00    +0.000 S 
ATOM     27  C   UNL     1      52.237   7.301  16.041  0.00  0.00    +0.000 A 
ATOM     28  N   UNL     1      52.624   6.247  16.813  0.00  0.00    +0.000 NA
ATOM     29  C   UNL     1      51.651   5.498  17.216  0.00  0.00    +0.000 A 
ATOM     30  N   UNL     1      50.317   5.672  16.901  0.00  0.00    +0.000 N 
ATOM     31  C   UNL     1      49.304   4.749  17.358  0.00  0.00    +0.000 C 
ATOM     32  C   UNL     1      49.905   6.684  16.052  0.00  0.00    +0.000 A 
ATOM     33  O   UNL     1      48.757   6.766  15.633  0.00  0.00    +0.000 OA
ATOM     34  C   UNL     1      50.951   7.606  15.646  0.00  0.00    +0.000 A 
ENDBRANCH  21  24
ENDBRANCH   2  20
TORSDOF 6
ENDMDL
MODEL 9
REMARK VINA RESULT:    -6.212      4.533      6.489
REMARK INTER + INTRA:          -9.557
REMARK INTER:                  -8.560
REMARK INTRA:                  -0.996
REMARK UNBOUND:                -1.166
REMARK  Name = 
REMARK  8 active torsions:
REMARK  status: ('A' for Active; 'I' for Inactive)
REMARK    1  A    between atoms: C_1  and  C_2
REMARK    2  A    between atoms: C_2  and  N_3
REMARK    3  A    between atoms: C_2  and  C_17
REMARK    4  A    between atoms: C_4  and  C_6
REMARK    5  A    between atoms: N_12  and  C_13
REMARK    6  A    between atoms: C_20  and  C_21
REMARK    7  A    between atoms: C_21  and  N_22
REMARK    8  A    between atoms: C_27  and  C_28
REMARK                            x       y       z     vdW  Elec       q    Type
REMARK                         _______ _______ _______ _____ _____    ______ ____
ROOT
ATOM      1  C   UNL     1      48.967   9.607  14.827  0.00  0.00    +0.000 C 
ATOM      2  C   UNL     1      49.295   8.581  13.736  0.00  0.00    +0.000 C 
ENDROOT
BRANCH   2   3
ATOM      3  C   UNL     1      48.018   7.920  13.220  0.00  0.00    +0.000 A 
ATOM      4  C   UNL     1      46.858   8.674  13.052  0.00  0.00    +0.000 A 
ATOM      5  C   UNL     1      45.704   8.053  12.567  0.00  0.00    +0.000 A 
ATOM      6  C   UNL     1      45.720   6.690  12.259  0.00  0.00    +0.000 A 
ATOM      7  C   UNL     1      46.914   6.013  12.478  0.00  0.00    +0.000 A 
ATOM      8  N   UNL     1      48.046   6.589  12.947  0.00  0.00    +0.000 NA
BRANCH   6   9
ATOM      9  C   UNL     1      44.514   5.963  11.722  0.00  0.00    +0.000 C 
BRANCH   9  10
ATOM     10  N   UNL     1      44.602   5.849  10.282  0.00  0.00    +0.000 N 
ATOM     11  C   UNL     1      44.790   4.571   9.783  0.00  0.00    +0.000 A 
ATOM     12  N   UNL     1      44.332   3.502  10.446  0.00  0.00    +0.000 NA
ATOM     13  C   UNL     1      44.508   2.293   9.885  0.00  0.00    +0.000 A 
ATOM     14  C   UNL     1      45.127   2.107   8.676  0.00  0.00    +0.000 A 
ATOM     15  C   UNL     1      45.576   3.261   8.077  0.00  0.00    +0.000 A 
ATOM     16  N   UNL     1      45.426   4.494   8.610  0.00  0.00    +0.000 NA
ATOM     17  H   UNL     1      45.275   6.458   9.834  0.00  0.00    +0.000 HD
BRANCH  15  18
ATOM     18  C   UNL     1      46.249   3.207   6.810  0.00  0.00    +0.000 C 
ATOM     19  N   UNL     1      46.764   3.129   5.773  0.00  0.00    +0.000 NA
ENDBRANCH  15  18
ENDBRANCH   9  10
ENDBRANCH   6   9
ENDBRANCH   2   3
BRANCH   2  20
ATOM     20  N   UNL     1      50.033   9.231  12.665  0.00  0.00    +0.000 N 
ATOM     21  C   UNL     1      51.385   9.083  12.481  0.00  0.00    +0.000 C 
ATOM     22  O   UNL     1      52.103   8.520  13.303  0.00  0.00    +0.000 OA
ATOM     23  H   UNL     1      49.465   9.461  11.854  0.00  0.00    +0.000 HD
BRANCH  21  24
ATOM     24  C   UNL     1      51.941   9.668  11.253  0.00  0.00    +0.000 A 
ATOM     25  C   UNL     1      52.037  11.045  11.098  0.00  0.00    +0.000 A 
ATOM     26  S   UNL     1      52.779  11.516   9.631  0.00  0.00    +0.000 S 
ATOM     27  C   UNL     1      53.019   9.894   9.169  0.00  0.00    +0.000 A 
ATOM     28  N   UNL     1      53.677   9.574   8.020  0.00  0.00    +0.000 NA
ATOM     29  C   UNL     1      53.815   8.304   7.823  0.00  0.00    +0.000 A 
ATOM     30  N   UNL     1      53.334   7.305   8.646  0.00  0.00    +0.000 N 
ATOM     31  C   UNL     1      53.494   5.908   8.315  0.00  0.00    +0.000 C 
ATOM     32  C   UNL     1      52.592   7.599   9.776  0.00  0.00    +0.000 A 
ATOM     33  O   UNL     1      52.022   6.738  10.434  0.00  0.00    +0.000 OA
ATOM     34  C   UNL     1      52.486   9.014  10.087  0.00  0.00    +0.000 A 
ENDBRANCH  21  24
ENDBRANCH   2  20
TORSDOF 6
ENDMDL
