MODEL 1
REMARK VINA RESULT:    -8.342      0.000      0.000
REMARK INTER + INTRA:         -11.177
REMARK INTER:                 -10.292
REMARK INTRA:                  -0.885
REMARK UNBOUND:                -0.885
REMARK  Name = 
REMARK  4 active torsions:
REMARK  status: ('A' for Active; 'I' for Inactive)
REMARK    1  A    between atoms: C_2  and  C_4
REMARK    2  A    between atoms: N_8  and  C_9
REMARK    3  A    between atoms: C_9  and  C_10
REMARK    4  A    between atoms: C_14  and  C_15
REMARK                            x       y       z     vdW  Elec       q    Type
REMARK                         _______ _______ _______ _____ _____    ______ ____
ROOT
ATOM      1  C   UNL     1      43.730   4.986  11.377  0.00  0.00    +0.000 C 
ATOM      2  C   UNL     1      42.373   5.337  11.973  0.00  0.00    +0.000 C 
ATOM      3  C   UNL     1      42.983   6.223  10.937  0.00  0.00    +0.000 C 
ENDROOT
BRANCH   1   8
ATOM      4  C   UNL     1      46.395   2.737   7.627  0.00  0.00    +0.000 A 
ATOM      5  C   UNL     1      45.949   1.843   8.568  0.00  0.00    +0.000 A 
ATOM      6  N   UNL     1      45.116   2.185   9.576  0.00  0.00    +0.000 NA
ATOM      7  C   UNL     1      44.743   3.474   9.657  0.00  0.00    +0.000 A 
ATOM      8  N   UNL     1      43.747   3.735  10.597  0.00  0.00    +0.000 N 
ATOM      9  N   UNL     1      45.201   4.436   8.838  0.00  0.00    +0.000 NA
ATOM     10  C   UNL     1      46.019   4.043   7.831  0.00  0.00    +0.000 A 
ATOM     11  H   UNL     1      43.706   2.885  11.154  0.00  0.00    +0.000 HD
BRANCH   4  13
ATOM     12  N   UNL     1      47.138   3.165   5.358  0.00  0.00    +0.000 N 
ATOM     13  C   UNL     1      47.191   2.350   6.457  0.00  0.00    +0.000 C 
ATOM     14  O   UNL     1      47.920   1.369   6.487  0.00  0.00    +0.000 OA
ATOM     15  H   UNL     1      47.798   2.951   4.620  0.00  0.00    +0.000 HD
ATOM     16  H   UNL     1      46.771   4.100   5.381  0.00  0.00    +0.000 HD
ENDBRANCH   4  13
ENDBRANCH   1   8
BRANCH   1  17
ATOM     17  C   UNL     1      44.976   5.106  12.247  0.00  0.00    +0.000 A 
ATOM     18  C   UNL     1      45.457   4.002  12.968  0.00  0.00    +0.000 A 
ATOM     19  C   UNL     1      46.724   4.010  13.539  0.00  0.00    +0.000 A 
ATOM     20  C   UNL     1      47.545   5.124  13.382  0.00  0.00    +0.000 A 
ATOM     21  C   UNL     1      47.113   6.261  12.677  0.00  0.00    +0.000 A 
ATOM     22  C   UNL     1      45.802   6.249  12.167  0.00  0.00    +0.000 A 
BRANCH  21  23
ATOM     23  C   UNL     1      48.053   7.365  12.376  0.00  0.00    +0.000 A 
ATOM     24  C   UNL     1      49.434   7.120  12.309  0.00  0.00    +0.000 A 
ATOM     25  C   UNL     1      50.303   8.156  12.002  0.00  0.00    +0.000 A 
ATOM     26  N   UNL     1      49.902   9.415  11.747  0.00  0.00    +0.000 NA
ATOM     27  C   UNL     1      48.573   9.641  11.799  0.00  0.00    +0.000 A 
ATOM     28  C   UNL     1      47.627   8.670  12.104  0.00  0.00    +0.000 A 
ENDBRANCH  21  23
ENDBRANCH   1  17
TORSDOF 4
ENDMDL
MODEL 2
REMARK VINA RESULT:    -8.332      2.086      3.227
REMARK INTER + INTRA:         -11.165
REMARK INTER:                 -10.893
REMARK INTRA:                  -0.272
REMARK UNBOUND:                -0.885
REMARK  Name = 
REMARK  4 active torsions:
REMARK  status: ('A' for Active; 'I' for Inactive)
REMARK    1  A    between atoms: C_2  and  C_4
REMARK    2  A    between atoms: N_8  and  C_9
REMARK    3  A    between atoms: C_9  and  C_10
REMARK    4  A    between atoms: C_14  and  C_15
REMARK                            x       y       z     vdW  Elec       q    Type
REMARK                         _______ _______ _______ _____ _____    ______ ____
ROOT
ATOM      1  C   UNL     1      43.921   4.916  11.406  0.00  0.00    +0.000 C 
ATOM      2  C   UNL     1      42.792   5.037  12.421  0.00  0.00    +0.000 C 
ATOM      3  C   UNL     1      42.863   5.986  11.271  0.00  0.00    +0.000 C 
ENDROOT
BRANCH   1   8
ATOM      4  C   UNL     1      46.415   2.684   7.531  0.00  0.00    +0.000 A 
ATOM      5  C   UNL     1      46.020   1.787   8.492  0.00  0.00    +0.000 A 
ATOM      6  N   UNL     1      45.234   2.124   9.538  0.00  0.00    +0.000 NA
ATOM      7  C   UNL     1      44.859   3.411   9.638  0.00  0.00    +0.000 A 
ATOM      8  N   UNL     1      43.908   3.666  10.625  0.00  0.00    +0.000 N 
ATOM      9  N   UNL     1      45.271   4.376   8.799  0.00  0.00    +0.000 NA
ATOM     10  C   UNL     1      46.043   3.988   7.754  0.00  0.00    +0.000 A 
ATOM     11  H   UNL     1      43.898   2.816  11.183  0.00  0.00    +0.000 HD
BRANCH   4  13
ATOM     12  N   UNL     1      47.062   3.128   5.235  0.00  0.00    +0.000 N 
ATOM     13  C   UNL     1      47.156   2.302   6.324  0.00  0.00    +0.000 C 
ATOM     14  O   UNL     1      47.877   1.315   6.313  0.00  0.00    +0.000 OA
ATOM     15  H   UNL     1      47.687   2.916   4.468  0.00  0.00    +0.000 HD
ATOM     16  H   UNL     1      46.705   4.066   5.284  0.00  0.00    +0.000 HD
ENDBRANCH   4  13
ENDBRANCH   1   8
BRANCH   1  17
ATOM     17  C   UNL     1      45.339   5.283  11.828  0.00  0.00    +0.000 A 
ATOM     18  C   UNL     1      46.024   6.338  11.206  0.00  0.00    +0.000 A 
ATOM     19  C   UNL     1      47.190   6.862  11.749  0.00  0.00    +0.000 A 
ATOM     20  C   UNL     1      47.686   6.347  12.944  0.00  0.00    +0.000 A 
ATOM     21  C   UNL     1      47.048   5.285  13.608  0.00  0.00    +0.000 A 
ATOM     22  C   UNL     1      45.906   4.732  12.999  0.00  0.00    +0.000 A 
BRANCH  21  23
ATOM     23  C   UNL     1      47.489   4.862  14.957  0.00  0.00    +0.000 A 
ATOM     24  C   UNL     1      48.236   5.735  15.763  0.00  0.00    +0.000 A 
ATOM     25  C   UNL     1      48.624   5.339  17.034  0.00  0.00    +0.000 A 
ATOM     26  N   UNL     1      48.316   4.143  17.567  0.00  0.00    +0.000 NA
ATOM     27  C   UNL     1      47.586   3.312  16.794  0.00  0.00    +0.000 A 
ATOM     28  C   UNL     1      47.159   3.618  15.508  0.00  0.00    +0.000 A 
ENDBRANCH  21  23
ENDBRANCH   1  17
TORSDOF 4
ENDMDL
MODEL 3
REMARK VINA RESULT:    -6.478      4.372      8.250
REMARK INTER + INTRA:          -8.878
REMARK INTER:                  -8.112
REMARK INTRA:                  -0.766
REMARK UNBOUND:                -0.885
REMARK  Name = 
REMARK  4 active torsions:
REMARK  status: ('A' for Active; 'I' for Inactive)
REMARK    1  A    between atoms: C_2  and  C_4
REMARK    2  A    between atoms: N_8  and  C_9
REMARK    3  A    between atoms: C_9  and  C_10
REMARK    4  A    between atoms: C_14  and  C_15
REMARK                            x       y       z     vdW  Elec       q    Type
REMARK                         _______ _______ _______ _____ _____    ______ ____
ROOT
ATOM      1  C   UNL     1      48.858   7.924  12.580  0.00  0.00    +0.000 C 
ATOM      2  C   UNL     1      49.769   8.172  11.384  0.00  0.00    +0.000 C 
ATOM      3  C   UNL     1      49.442   9.292  12.315  0.00  0.00    +0.000 C 
ENDROOT
BRANCH   1   8
ATOM      4  C   UNL     1      48.644   6.999  17.612  0.00  0.00    +0.000 A 
ATOM      5  C   UNL     1      48.740   5.851  16.866  0.00  0.00    +0.000 A 
ATOM      6  N   UNL     1      48.943   5.852  15.530  0.00  0.00    +0.000 NA
ATOM      7  C   UNL     1      49.020   7.047  14.919  0.00  0.00    +0.000 A 
ATOM      8  N   UNL     1      49.409   6.993  13.581  0.00  0.00    +0.000 N 
ATOM      9  N   UNL     1      48.846   8.219  15.550  0.00  0.00    +0.000 NA
ATOM     10  C   UNL     1      48.664   8.171  16.893  0.00  0.00    +0.000 A 
ATOM     11  H   UNL     1      49.324   6.009  13.339  0.00  0.00    +0.000 HD
BRANCH   4  13
ATOM     12  N   UNL     1      47.587   6.235  19.657  0.00  0.00    +0.000 N 
ATOM     13  C   UNL     1      48.557   7.009  19.076  0.00  0.00    +0.000 C 
ATOM     14  O   UNL     1      49.360   7.636  19.751  0.00  0.00    +0.000 OA
ATOM     15  H   UNL     1      47.637   6.153  20.665  0.00  0.00    +0.000 HD
ATOM     16  H   UNL     1      47.090   5.513  19.167  0.00  0.00    +0.000 HD
ENDBRANCH   4  13
ENDBRANCH   1   8
BRANCH   1  17
ATOM     17  C   UNL     1      47.377   7.657  12.341  0.00  0.00    +0.000 A 
ATOM     18  C   UNL     1      46.433   8.690  12.459  0.00  0.00    +0.000 A 
ATOM     19  C   UNL     1      45.136   8.539  11.985  0.00  0.00    +0.000 A 
ATOM     20  C   UNL     1      44.762   7.351  11.362  0.00  0.00    +0.000 A 
ATOM     21  C   UNL     1      45.662   6.280  11.222  0.00  0.00    +0.000 A 
ATOM     22  C   UNL     1      46.948   6.438  11.771  0.00  0.00    +0.000 A 
BRANCH  21  23
ATOM     23  C   UNL     1      45.303   5.093  10.413  0.00  0.00    +0.000 A 
ATOM     24  C   UNL     1      44.547   4.054  10.977  0.00  0.00    +0.000 A 
ATOM     25  C   UNL     1      44.197   2.958  10.204  0.00  0.00    +0.000 A 
ATOM     26  N   UNL     1      44.532   2.823   8.908  0.00  0.00    +0.000 NA
ATOM     27  C   UNL     1      45.246   3.831   8.366  0.00  0.00    +0.000 A 
ATOM     28  C   UNL     1      45.650   4.964   9.063  0.00  0.00    +0.000 A 
ENDBRANCH  21  23
ENDBRANCH   1  17
TORSDOF 4
ENDMDL
MODEL 4
REMARK VINA RESULT:    -6.458      4.458      7.918
REMARK INTER + INTRA:          -8.853
REMARK INTER:                  -9.637
REMARK INTRA:                   0.784
REMARK UNBOUND:                -0.885
REMARK  Name = 
REMARK  4 active torsions:
REMARK  status: ('A' for Active; 'I' for Inactive)
REMARK    1  A    between atoms: C_2  and  C_4
REMARK    2  A    between atoms: N_8  and  C_9
REMARK    3  A    between atoms: C_9  and  C_10
REMARK    4  A    between atoms: C_14  and  C_15
REMARK                            x       y       z     vdW  Elec       q    Type
REMARK                         _______ _______ _______ _____ _____    ______ ____
ROOT
ATOM      1  C   UNL     1      46.344   5.209  13.285  0.00  0.00    +0.000 C 
ATOM      2  C   UNL     1      47.587   5.997  12.895  0.00  0.00    +0.000 C 
ATOM      3  C   UNL     1      46.483   6.670  13.641  0.00  0.00    +0.000 C 
ENDROOT
BRANCH   1   8
ATOM      4  C   UNL     1      48.394   4.446  17.914  0.00  0.00    +0.000 A 
ATOM      5  C   UNL     1      47.300   3.650  17.683  0.00  0.00    +0.000 A 
ATOM      6  N   UNL     1      46.677   3.581  16.486  0.00  0.00    +0.000 NA
ATOM      7  C   UNL     1      47.150   4.361  15.498  0.00  0.00    +0.000 A 
ATOM      8  N   UNL     1      46.590   4.118  14.244  0.00  0.00    +0.000 N 
ATOM      9  N   UNL     1      48.155   5.238  15.657  0.00  0.00    +0.000 NA
ATOM     10  C   UNL     1      48.762   5.259  16.869  0.00  0.00    +0.000 A 
ATOM     11  H   UNL     1      45.781   3.536  14.444  0.00  0.00    +0.000 HD
BRANCH   4  13
ATOM     12  N   UNL     1      48.560   3.861  20.263  0.00  0.00    +0.000 N 
ATOM     13  C   UNL     1      49.156   4.429  19.168  0.00  0.00    +0.000 C 
ATOM     14  O   UNL     1      50.302   4.851  19.215  0.00  0.00    +0.000 OA
ATOM     15  H   UNL     1      49.155   3.739  21.073  0.00  0.00    +0.000 HD
ATOM     16  H   UNL     1      47.745   3.277  20.206  0.00  0.00    +0.000 HD
ENDBRANCH   4  13
ENDBRANCH   1   8
BRANCH   1  17
ATOM     17  C   UNL     1      45.372   4.770  12.195  0.00  0.00    +0.000 A 
ATOM     18  C   UNL     1      44.099   5.351  12.092  0.00  0.00    +0.000 A 
ATOM     19  C   UNL     1      43.313   5.170  10.960  0.00  0.00    +0.000 A 
ATOM     20  C   UNL     1      43.799   4.415   9.896  0.00  0.00    +0.000 A 
ATOM     21  C   UNL     1      45.063   3.803   9.946  0.00  0.00    +0.000 A 
ATOM     22  C   UNL     1      45.808   3.949  11.131  0.00  0.00    +0.000 A 
BRANCH  21  23
ATOM     23  C   UNL     1      45.633   3.147   8.747  0.00  0.00    +0.000 A 
ATOM     24  C   UNL     1      46.012   3.913   7.634  0.00  0.00    +0.000 A 
ATOM     25  C   UNL     1      46.567   3.291   6.526  0.00  0.00    +0.000 A 
ATOM     26  N   UNL     1      46.783   1.966   6.445  0.00  0.00    +0.000 NA
ATOM     27  C   UNL     1      46.430   1.236   7.523  0.00  0.00    +0.000 A 
ATOM     28  C   UNL     1      45.862   1.768   8.675  0.00  0.00    +0.000 A 
ENDBRANCH  21  23
ENDBRANCH   1  17
TORSDOF 4
ENDMDL
MODEL 5
REMARK VINA RESULT:    -6.196      3.767      6.195
REMARK INTER + INTRA:          -8.530
REMARK INTER:                  -7.768
REMARK INTRA:                  -0.762
REMARK UNBOUND:                -0.885
REMARK  Name = 
REMARK  4 active torsions:
REMARK  status: ('A' for Active; 'I' for Inactive)
REMARK    1  A    between atoms: C_2  and  C_4
REMARK    2  A    between atoms: N_8  and  C_9
REMARK    3  A    between atoms: C_9  and  C_10
REMARK    4  A    between atoms: C_14  and  C_15
REMARK                            x       y       z     vdW  Elec       q    Type
REMARK                         _______ _______ _______ _____ _____    ______ ____
ROOT
ATOM      1  C   UNL     1      48.371   8.323  12.607  0.00  0.00    +0.000 C 
ATOM      2  C   UNL     1      49.121   9.354  11.773  0.00  0.00    +0.000 C 
ATOM      3  C   UNL     1      49.415   7.900  11.600  0.00  0.00    +0.000 C 
ENDROOT
BRANCH   1   8
ATOM      4  C   UNL     1      44.598   4.883  12.214  0.00  0.00    +0.000 A 
ATOM      5  C   UNL     1      44.183   6.061  12.785  0.00  0.00    +0.000 A 
ATOM      6  N   UNL     1      44.969   7.157  12.871  0.00  0.00    +0.000 NA
ATOM      7  C   UNL     1      46.222   7.057  12.394  0.00  0.00    +0.000 A 
ATOM      8  N   UNL     1      46.923   8.261  12.341  0.00  0.00    +0.000 N 
ATOM      9  N   UNL     1      46.744   5.921  11.902  0.00  0.00    +0.000 NA
ATOM     10  C   UNL     1      45.915   4.853  11.818  0.00  0.00    +0.000 A 
ATOM     11  H   UNL     1      46.360   8.899  12.899  0.00  0.00    +0.000 HD
BRANCH   4  13
ATOM     12  N   UNL     1      44.040   2.558  12.619  0.00  0.00    +0.000 N 
ATOM     13  C   UNL     1      43.713   3.734  11.997  0.00  0.00    +0.000 C 
ATOM     14  O   UNL     1      42.691   3.841  11.337  0.00  0.00    +0.000 OA
ATOM     15  H   UNL     1      43.345   1.824  12.565  0.00  0.00    +0.000 HD
ATOM     16  H   UNL     1      44.708   2.496  13.367  0.00  0.00    +0.000 HD
ENDBRANCH   4  13
ENDBRANCH   1   8
BRANCH   1  17
ATOM     17  C   UNL     1      48.659   8.227  14.101  0.00  0.00    +0.000 A 
ATOM     18  C   UNL     1      48.378   9.304  14.956  0.00  0.00    +0.000 A 
ATOM     19  C   UNL     1      48.372   9.147  16.337  0.00  0.00    +0.000 A 
ATOM     20  C   UNL     1      48.631   7.895  16.890  0.00  0.00    +0.000 A 
ATOM     21  C   UNL     1      48.926   6.782  16.083  0.00  0.00    +0.000 A 
ATOM     22  C   UNL     1      48.989   6.988  14.692  0.00  0.00    +0.000 A 
BRANCH  21  23
ATOM     23  C   UNL     1      49.032   5.428  16.673  0.00  0.00    +0.000 A 
ATOM     24  C   UNL     1      47.964   4.524  16.567  0.00  0.00    +0.000 A 
ATOM     25  C   UNL     1      48.083   3.251  17.102  0.00  0.00    +0.000 A 
ATOM     26  N   UNL     1      49.188   2.804  17.725  0.00  0.00    +0.000 NA
ATOM     27  C   UNL     1      50.217   3.672  17.812  0.00  0.00    +0.000 A 
ATOM     28  C   UNL     1      50.189   4.969  17.314  0.00  0.00    +0.000 A 
ENDBRANCH  21  23
ENDBRANCH   1  17
TORSDOF 4
ENDMDL
MODEL 6
REMARK VINA RESULT:    -5.982      4.013      5.943
REMARK INTER + INTRA:          -8.267
REMARK INTER:                  -7.968
REMARK INTRA:                  -0.299
REMARK UNBOUND:                -0.885
REMARK  Name = 
REMARK  4 active torsions:
REMARK  status: ('A' for Active; 'I' for Inactive)
REMARK    1  A    between atoms: C_2  and  C_4
REMARK    2  A    between atoms: N_8  and  C_9
REMARK    3  A    between atoms: C_9  and  C_10
REMARK    4  A    between atoms: C_14  and  C_15
REMARK                            x       y       z     vdW  Elec       q    Type
REMARK                         _______ _______ _______ _____ _____    ______ ____
ROOT
ATOM      1  C   UNL     1      47.991   8.147  13.411  0.00  0.00    +0.000 C 
ATOM      2  C   UNL     1      47.883   9.665  13.342  0.00  0.00    +0.000 C 
ATOM      3  C   UNL     1      48.336   8.896  12.145  0.00  0.00    +0.000 C 
ENDROOT
BRANCH   1   8
ATOM      4  C   UNL     1      44.942   4.777  11.051  0.00  0.00    +0.000 A 
ATOM      5  C   UNL     1      44.946   4.622  12.415  0.00  0.00    +0.000 A 
ATOM      6  N   UNL     1      45.571   5.478  13.254  0.00  0.00    +0.000 NA
ATOM      7  C   UNL     1      46.238   6.506  12.701  0.00  0.00    +0.000 A 
ATOM      8  N   UNL     1      46.707   7.453  13.612  0.00  0.00    +0.000 N 
ATOM      9  N   UNL     1      46.366   6.686  11.376  0.00  0.00    +0.000 NA
ATOM     10  C   UNL     1      45.708   5.815  10.574  0.00  0.00    +0.000 A 
ATOM     11  H   UNL     1      46.605   6.997  14.515  0.00  0.00    +0.000 HD
BRANCH   4  13
ATOM     12  N   UNL     1      44.088   4.311   8.829  0.00  0.00    +0.000 N 
ATOM     13  C   UNL     1      44.159   3.931  10.143  0.00  0.00    +0.000 C 
ATOM     14  O   UNL     1      43.643   2.895  10.535  0.00  0.00    +0.000 OA
ATOM     15  H   UNL     1      43.660   3.642   8.201  0.00  0.00    +0.000 HD
ATOM     16  H   UNL     1      44.701   4.992   8.417  0.00  0.00    +0.000 HD
ENDBRANCH   4  13
ENDBRANCH   1   8
BRANCH   1  17
ATOM     17  C   UNL     1      49.091   7.520  14.260  0.00  0.00    +0.000 A 
ATOM     18  C   UNL     1      50.426   7.929  14.122  0.00  0.00    +0.000 A 
ATOM     19  C   UNL     1      51.389   7.578  15.060  0.00  0.00    +0.000 A 
ATOM     20  C   UNL     1      51.026   6.822  16.172  0.00  0.00    +0.000 A 
ATOM     21  C   UNL     1      49.706   6.378  16.359  0.00  0.00    +0.000 A 
ATOM     22  C   UNL     1      48.768   6.693  15.358  0.00  0.00    +0.000 A 
BRANCH  21  23
ATOM     23  C   UNL     1      49.301   5.722  17.624  0.00  0.00    +0.000 A 
ATOM     24  C   UNL     1      49.042   4.343  17.654  0.00  0.00    +0.000 A 
ATOM     25  C   UNL     1      48.688   3.734  18.848  0.00  0.00    +0.000 A 
ATOM     26  N   UNL     1      48.582   4.392  20.017  0.00  0.00    +0.000 NA
ATOM     27  C   UNL     1      48.847   5.715  19.985  0.00  0.00    +0.000 A 
ATOM     28  C   UNL     1      49.201   6.413  18.837  0.00  0.00    +0.000 A 
ENDBRANCH  21  23
ENDBRANCH   1  17
TORSDOF 4
ENDMDL
MODEL 7
REMARK VINA RESULT:    -5.918      2.960      4.258
REMARK INTER + INTRA:          -8.187
REMARK INTER:                  -7.378
REMARK INTRA:                  -0.809
REMARK UNBOUND:                -0.885
REMARK  Name = 
REMARK  4 active torsions:
REMARK  status: ('A' for Active; 'I' for Inactive)
REMARK    1  A    between atoms: C_2  and  C_4
REMARK    2  A    between atoms: N_8  and  C_9
REMARK    3  A    between atoms: C_9  and  C_10
REMARK    4  A    between atoms: C_14  and  C_15
REMARK                            x       y       z     vdW  Elec       q    Type
REMARK                         _______ _______ _______ _____ _____    ______ ____
ROOT
ATOM      1  C   UNL     1      45.840   7.856  12.337  0.00  0.00    +0.000 C 
ATOM      2  C   UNL     1      45.199   9.104  12.932  0.00  0.00    +0.000 C 
ATOM      3  C   UNL     1      45.365   8.986  11.453  0.00  0.00    +0.000 C 
ENDROOT
BRANCH   1   8
ATOM      4  C   UNL     1      45.084   3.290  10.145  0.00  0.00    +0.000 A 
ATOM      5  C   UNL     1      45.066   3.228  11.516  0.00  0.00    +0.000 A 
ATOM      6  N   UNL     1      45.112   4.324  12.306  0.00  0.00    +0.000 NA
ATOM      7  C   UNL     1      45.209   5.519  11.697  0.00  0.00    +0.000 A 
ATOM      8  N   UNL     1      45.069   6.617  12.545  0.00  0.00    +0.000 N 
ATOM      9  N   UNL     1      45.325   5.672  10.368  0.00  0.00    +0.000 NA
ATOM     10  C   UNL     1      45.256   4.547   9.614  0.00  0.00    +0.000 A 
ATOM     11  H   UNL     1      45.145   6.220  13.478  0.00  0.00    +0.000 HD
BRANCH   4  13
ATOM     12  N   UNL     1      45.957   1.748   8.488  0.00  0.00    +0.000 N 
ATOM     13  C   UNL     1      44.903   2.120   9.280  0.00  0.00    +0.000 C 
ATOM     14  O   UNL     1      43.870   1.466   9.312  0.00  0.00    +0.000 OA
ATOM     15  H   UNL     1      45.855   0.863   8.007  0.00  0.00    +0.000 HD
ATOM     16  H   UNL     1      46.893   2.087   8.622  0.00  0.00    +0.000 HD
ENDBRANCH   4  13
ENDBRANCH   1   8
BRANCH   1  17
ATOM     17  C   UNL     1      47.330   7.616  12.548  0.00  0.00    +0.000 A 
ATOM     18  C   UNL     1      48.276   8.140  11.653  0.00  0.00    +0.000 A 
ATOM     19  C   UNL     1      49.628   8.169  11.969  0.00  0.00    +0.000 A 
ATOM     20  C   UNL     1      50.060   7.688  13.202  0.00  0.00    +0.000 A 
ATOM     21  C   UNL     1      49.159   7.143  14.134  0.00  0.00    +0.000 A 
ATOM     22  C   UNL     1      47.805   7.067  13.759  0.00  0.00    +0.000 A 
BRANCH  21  23
ATOM     23  C   UNL     1      49.608   6.792  15.501  0.00  0.00    +0.000 A 
ATOM     24  C   UNL     1      48.723   6.173  16.399  0.00  0.00    +0.000 A 
ATOM     25  C   UNL     1      49.160   5.826  17.668  0.00  0.00    +0.000 A 
ATOM     26  N   UNL     1      50.414   6.039  18.108  0.00  0.00    +0.000 NA
ATOM     27  C   UNL     1      51.264   6.620  17.237  0.00  0.00    +0.000 A 
ATOM     28  C   UNL     1      50.916   7.010  15.949  0.00  0.00    +0.000 A 
ENDBRANCH  21  23
ENDBRANCH   1  17
TORSDOF 4
ENDMDL
MODEL 8
REMARK VINA RESULT:    -5.701      3.924      7.578
REMARK INTER + INTRA:          -7.919
REMARK INTER:                  -8.152
REMARK INTRA:                   0.233
REMARK UNBOUND:                -0.885
REMARK  Name = 
REMARK  4 active torsions:
REMARK  status: ('A' for Active; 'I' for Inactive)
REMARK    1  A    between atoms: C_2  and  C_4
REMARK    2  A    between atoms: N_8  and  C_9
REMARK    3  A    between atoms: C_9  and  C_10
REMARK    4  A    between atoms: C_14  and  C_15
REMARK                            x       y       z     vdW  Elec       q    Type
REMARK                         _______ _______ _______ _____ _____    ______ ____
ROOT
ATOM      1  C   UNL     1      47.855   7.533  12.951  0.00  0.00    +0.000 C 
ATOM      2  C   UNL     1      49.112   7.069  12.225  0.00  0.00    +0.000 C 
ATOM      3  C   UNL     1      48.592   8.451  12.004  0.00  0.00    +0.000 C 
ENDROOT
BRANCH   1   8
ATOM      4  C   UNL     1      48.685   4.479  16.977  0.00  0.00    +0.000 A 
ATOM      5  C   UNL     1      49.278   5.710  17.115  0.00  0.00    +0.000 A 
ATOM      6  N   UNL     1      49.087   6.724  16.242  0.00  0.00    +0.000 NA
ATOM      7  C   UNL     1      48.298   6.484  15.180  0.00  0.00    +0.000 A 
ATOM      8  N   UNL     1      47.991   7.609  14.416  0.00  0.00    +0.000 N 
ATOM      9  N   UNL     1      47.751   5.286  14.914  0.00  0.00    +0.000 NA
ATOM     10  C   UNL     1      47.954   4.304  15.825  0.00  0.00    +0.000 A 
ATOM     11  H   UNL     1      48.641   8.317  14.748  0.00  0.00    +0.000 HD
BRANCH   4  13
ATOM     12  N   UNL     1      48.029   3.556  19.121  0.00  0.00    +0.000 N 
ATOM     13  C   UNL     1      48.781   3.418  17.984  0.00  0.00    +0.000 C 
ATOM     14  O   UNL     1      49.459   2.421  17.787  0.00  0.00    +0.000 OA
ATOM     15  H   UNL     1      48.008   2.750  19.734  0.00  0.00    +0.000 HD
ATOM     16  H   UNL     1      47.272   4.211  19.207  0.00  0.00    +0.000 HD
ENDBRANCH   4  13
ENDBRANCH   1   8
BRANCH   1  17
ATOM     17  C   UNL     1      46.509   6.938  12.556  0.00  0.00    +0.000 A 
ATOM     18  C   UNL     1      45.314   7.625  12.819  0.00  0.00    +0.000 A 
ATOM     19  C   UNL     1      44.115   7.240  12.232  0.00  0.00    +0.000 A 
ATOM     20  C   UNL     1      44.093   6.163  11.350  0.00  0.00    +0.000 A 
ATOM     21  C   UNL     1      45.257   5.432  11.054  0.00  0.00    +0.000 A 
ATOM     22  C   UNL     1      46.442   5.805  11.715  0.00  0.00    +0.000 A 
BRANCH  21  23
ATOM     23  C   UNL     1      45.252   4.401   9.991  0.00  0.00    +0.000 A 
ATOM     24  C   UNL     1      45.787   4.687   8.725  0.00  0.00    +0.000 A 
ATOM     25  C   UNL     1      45.799   3.708   7.744  0.00  0.00    +0.000 A 
ATOM     26  N   UNL     1      45.329   2.460   7.931  0.00  0.00    +0.000 NA
ATOM     27  C   UNL     1      44.830   2.186   9.154  0.00  0.00    +0.000 A 
ATOM     28  C   UNL     1      44.768   3.103  10.196  0.00  0.00    +0.000 A 
ENDBRANCH  21  23
ENDBRANCH   1  17
TORSDOF 4
ENDMDL
MODEL 9
REMARK VINA RESULT:    -5.498      2.931      4.531
REMARK INTER + INTRA:          -7.669
REMARK INTER:                  -6.979
REMARK INTRA:                  -0.690
REMARK UNBOUND:                -0.885
REMARK  Name = 
REMARK  4 active torsions:
REMARK  status: ('A' for Active; 'I' for Inactive)
REMARK    1  A    between atoms: C_2  and  C_4
REMARK    2  A    between atoms: N_8  and  C_9
REMARK    3  A    between atoms: C_9  and  C_10
REMARK    4  A    between atoms: C_14  and  C_15
REMARK                            x       y       z     vdW  Elec       q    Type
REMARK                         _______ _______ _______ _____ _____    ______ ____
ROOT
ATOM      1  C   UNL     1      45.950   9.211  12.216  0.00  0.00    +0.000 C 
ATOM      2  C   UNL     1      45.463  10.652  12.145  0.00  0.00    +0.000 C 
ATOM      3  C   UNL     1      45.833   9.929  10.892  0.00  0.00    +0.000 C 
ENDROOT
BRANCH   1   8
ATOM      4  C   UNL     1      44.458   4.370  11.467  0.00  0.00    +0.000 A 
ATOM      5  C   UNL     1      44.347   4.761  12.779  0.00  0.00    +0.000 A 
ATOM      6  N   UNL     1      44.557   6.030  13.191  0.00  0.00    +0.000 NA
ATOM      7  C   UNL     1      44.918   6.930  12.260  0.00  0.00    +0.000 A 
ATOM      8  N   UNL     1      44.943   8.251  12.704  0.00  0.00    +0.000 N 
ATOM      9  N   UNL     1      45.140   6.621  10.972  0.00  0.00    +0.000 NA
ATOM     10  C   UNL     1      44.900   5.340  10.599  0.00  0.00    +0.000 A 
ATOM     11  H   UNL     1      44.886   8.172  13.717  0.00  0.00    +0.000 HD
BRANCH   4  13
ATOM     12  N   UNL     1      44.964   2.423  10.112  0.00  0.00    +0.000 N 
ATOM     13  C   UNL     1      44.105   3.028  10.991  0.00  0.00    +0.000 C 
ATOM     14  O   UNL     1      43.113   2.450  11.411  0.00  0.00    +0.000 OA
ATOM     15  H   UNL     1      44.769   1.450   9.907  0.00  0.00    +0.000 HD
ATOM     16  H   UNL     1      45.903   2.742   9.950  0.00  0.00    +0.000 HD
ENDBRANCH   4  13
ENDBRANCH   1   8
BRANCH   1  17
ATOM     17  C   UNL     1      47.320   8.920  12.818  0.00  0.00    +0.000 A 
ATOM     18  C   UNL     1      47.438   8.276  14.059  0.00  0.00    +0.000 A 
ATOM     19  C   UNL     1      48.653   7.761  14.492  0.00  0.00    +0.000 A 
ATOM     20  C   UNL     1      49.777   7.866  13.677  0.00  0.00    +0.000 A 
ATOM     21  C   UNL     1      49.721   8.508  12.427  0.00  0.00    +0.000 A 
ATOM     22  C   UNL     1      48.492   9.077  12.046  0.00  0.00    +0.000 A 
BRANCH  21  23
ATOM     23  C   UNL     1      50.877   8.464  11.503  0.00  0.00    +0.000 A 
ATOM     24  C   UNL     1      51.097   7.336  10.697  0.00  0.00    +0.000 A 
ATOM     25  C   UNL     1      52.169   7.315   9.818  0.00  0.00    +0.000 A 
ATOM     26  N   UNL     1      53.032   8.337   9.671  0.00  0.00    +0.000 NA
ATOM     27  C   UNL     1      52.808   9.424  10.437  0.00  0.00    +0.000 A 
ATOM     28  C   UNL     1      51.767   9.534  11.351  0.00  0.00    +0.000 A 
ENDBRANCH  21  23
ENDBRANCH   1  17
TORSDOF 4
ENDMDL
