MODEL 1
REMARK VINA RESULT:    -7.394      0.000      0.000
REMARK INTER + INTRA:         -11.968
REMARK INTER:                 -10.636
REMARK INTRA:                  -1.332
REMARK UNBOUND:                -1.332
REMARK  Name = 
REMARK  8 active torsions:
REMARK  status: ('A' for Active; 'I' for Inactive)
REMARK    1  A    between atoms: N_1  and  C_2
REMARK    2  A    between atoms: C_2  and  C_3
REMARK    3  A    between atoms: C_3  and  N_4
REMARK    4  A    between atoms: C_3  and  C_17
REMARK    5  A    between atoms: C_5  and  C_7
REMARK    6  A    between atoms: C_20  and  C_21
REMARK    7  A    between atoms: C_21  and  N_22
REMARK    8  A    between atoms: C_23  and  C_25
REMARK                            x       y       z     vdW  Elec       q    Type
REMARK                         _______ _______ _______ _____ _____    ______ ____
ROOT
ATOM      1  C   UNL     1      47.134   7.836  13.631  0.00  0.00    +0.000 C 
ENDROOT
BRANCH   1   2
ATOM      2  C   UNL     1      46.201   6.909  12.844  0.00  0.00    +0.000 A 
ATOM      3  C   UNL     1      46.304   5.518  13.025  0.00  0.00    +0.000 A 
ATOM      4  C   UNL     1      45.516   4.620  12.288  0.00  0.00    +0.000 A 
ATOM      5  C   UNL     1      44.581   5.083  11.356  0.00  0.00    +0.000 A 
ATOM      6  C   UNL     1      44.425   6.469  11.218  0.00  0.00    +0.000 A 
ATOM      7  C   UNL     1      45.231   7.368  11.941  0.00  0.00    +0.000 A 
BRANCH   5   8
ATOM      8  C   UNL     1      43.796   4.128  10.488  0.00  0.00    +0.000 C 
BRANCH   8   9
ATOM      9  N   UNL     1      44.603   3.190   9.752  0.00  0.00    +0.000 N 
ATOM     10  C   UNL     1      45.352   3.587   8.666  0.00  0.00    +0.000 C 
ATOM     11  O   UNL     1      45.372   4.737   8.241  0.00  0.00    +0.000 OA
ATOM     12  H   UNL     1      44.659   2.210  10.016  0.00  0.00    +0.000 HD
BRANCH  10  13
ATOM     13  C   UNL     1      46.119   2.496   8.061  0.00  0.00    +0.000 A 
ATOM     14  C   UNL     1      47.051   2.613   7.043  0.00  0.00    +0.000 A 
ATOM     15  N   UNL     1      47.468   1.341   6.775  0.00  0.00    +0.000 N 
ATOM     16  C   UNL     1      46.794   0.499   7.616  0.00  0.00    +0.000 A 
ATOM     17  N   UNL     1      45.990   1.162   8.418  0.00  0.00    +0.000 NA
ATOM     18  H   UNL     1      48.141   1.065   6.073  0.00  0.00    +0.000 HD
ENDBRANCH  10  13
ENDBRANCH   8   9
ENDBRANCH   5   8
ENDBRANCH   1   2
BRANCH   1  19
ATOM     19  N   UNL     1      48.112   7.064  14.408  0.00  0.00    +0.000 N 
ATOM     20  C   UNL     1      48.639   7.537  15.595  0.00  0.00    +0.000 C 
ATOM     21  O   UNL     1      48.286   8.599  16.093  0.00  0.00    +0.000 OA
ATOM     22  H   UNL     1      48.530   6.254  13.968  0.00  0.00    +0.000 HD
BRANCH  20  23
ATOM     23  C   UNL     1      49.607   6.664  16.272  0.00  0.00    +0.000 A 
ATOM     24  C   UNL     1      50.902   7.109  16.506  0.00  0.00    +0.000 A 
ATOM     25  S   UNL     1      51.890   5.967  17.302  0.00  0.00    +0.000 S 
ATOM     26  C   UNL     1      50.636   4.817  17.321  0.00  0.00    +0.000 A 
ATOM     27  N   UNL     1      50.830   3.574  17.840  0.00  0.00    +0.000 NA
ATOM     28  C   UNL     1      49.808   2.795  17.750  0.00  0.00    +0.000 A 
ATOM     29  N   UNL     1      48.601   3.147  17.197  0.00  0.00    +0.000 N 
ATOM     30  C   UNL     1      48.346   4.401  16.699  0.00  0.00    +0.000 A 
ATOM     31  O   UNL     1      47.237   4.709  16.269  0.00  0.00    +0.000 OA
ATOM     32  C   UNL     1      49.473   5.310  16.752  0.00  0.00    +0.000 A 
ATOM     33  H   UNL     1      47.838   2.489  17.165  0.00  0.00    +0.000 HD
ENDBRANCH  20  23
ENDBRANCH   1  19
BRANCH   1  34
ATOM     34  C   UNL     1      47.824   8.951  12.778  0.00  0.00    +0.000 C 
BRANCH  34  35
ATOM     35  N   UNL     1      47.896  10.266  13.436  0.00  0.00    +0.000 NA
ATOM     36  H   UNL     1      47.459  10.207  14.356  0.00  0.00    +0.000 HD
ATOM     37  H   UNL     1      47.350  10.945  12.906  0.00  0.00    +0.000 HD
ENDBRANCH  34  35
ENDBRANCH   1  34
TORSDOF 8
ENDMDL
MODEL 2
REMARK VINA RESULT:    -7.357      2.799      3.754
REMARK INTER + INTRA:         -11.914
REMARK INTER:                 -10.480
REMARK INTRA:                  -1.434
REMARK UNBOUND:                -1.332
REMARK  Name = 
REMARK  8 active torsions:
REMARK  status: ('A' for Active; 'I' for Inactive)
REMARK    1  A    between atoms: N_1  and  C_2
REMARK    2  A    between atoms: C_2  and  C_3
REMARK    3  A    between atoms: C_3  and  N_4
REMARK    4  A    between atoms: C_3  and  C_17
REMARK    5  A    between atoms: C_5  and  C_7
REMARK    6  A    between atoms: C_20  and  C_21
REMARK    7  A    between atoms: C_21  and  N_22
REMARK    8  A    between atoms: C_23  and  C_25
REMARK                            x       y       z     vdW  Elec       q    Type
REMARK                         _______ _______ _______ _____ _____    ______ ____
ROOT
ATOM      1  C   UNL     1      47.849   4.555  15.382  0.00  0.00    +0.000 C 
ENDROOT
BRANCH   1   2
ATOM      2  C   UNL     1      46.947   4.651  14.148  0.00  0.00    +0.000 A 
ATOM      3  C   UNL     1      46.367   3.480  13.630  0.00  0.00    +0.000 A 
ATOM      4  C   UNL     1      45.579   3.500  12.468  0.00  0.00    +0.000 A 
ATOM      5  C   UNL     1      45.328   4.700  11.792  0.00  0.00    +0.000 A 
ATOM      6  C   UNL     1      45.847   5.881  12.340  0.00  0.00    +0.000 A 
ATOM      7  C   UNL     1      46.653   5.856  13.492  0.00  0.00    +0.000 A 
BRANCH   5   8
ATOM      8  C   UNL     1      44.564   4.723  10.490  0.00  0.00    +0.000 C 
BRANCH   8   9
ATOM      9  N   UNL     1      45.315   4.270   9.348  0.00  0.00    +0.000 N 
ATOM     10  C   UNL     1      45.212   2.973   8.892  0.00  0.00    +0.000 C 
ATOM     11  O   UNL     1      44.506   2.123   9.423  0.00  0.00    +0.000 OA
ATOM     12  H   UNL     1      45.933   4.890   8.832  0.00  0.00    +0.000 HD
BRANCH  10  13
ATOM     13  C   UNL     1      46.036   2.707   7.712  0.00  0.00    +0.000 A 
ATOM     14  C   UNL     1      46.813   1.581   7.490  0.00  0.00    +0.000 A 
ATOM     15  N   UNL     1      47.434   1.792   6.292  0.00  0.00    +0.000 N 
ATOM     16  C   UNL     1      47.030   3.012   5.825  0.00  0.00    +0.000 A 
ATOM     17  N   UNL     1      46.173   3.580   6.644  0.00  0.00    +0.000 NA
ATOM     18  H   UNL     1      48.086   1.168   5.836  0.00  0.00    +0.000 HD
ENDBRANCH  10  13
ENDBRANCH   8   9
ENDBRANCH   5   8
ENDBRANCH   1   2
BRANCH   1  19
ATOM     19  N   UNL     1      47.759   5.773  16.198  0.00  0.00    +0.000 N 
ATOM     20  C   UNL     1      48.860   6.574  16.438  0.00  0.00    +0.000 C 
ATOM     21  O   UNL     1      49.958   6.346  15.947  0.00  0.00    +0.000 OA
ATOM     22  H   UNL     1      46.912   5.922  16.731  0.00  0.00    +0.000 HD
BRANCH  20  23
ATOM     23  C   UNL     1      48.630   7.764  17.269  0.00  0.00    +0.000 A 
ATOM     24  C   UNL     1      48.922   9.028  16.773  0.00  0.00    +0.000 A 
ATOM     25  S   UNL     1      48.592  10.292  17.872  0.00  0.00    +0.000 S 
ATOM     26  C   UNL     1      48.090   9.192  19.068  0.00  0.00    +0.000 A 
ATOM     27  N   UNL     1      47.702   9.623  20.300  0.00  0.00    +0.000 NA
ATOM     28  C   UNL     1      47.388   8.678  21.119  0.00  0.00    +0.000 A 
ATOM     29  N   UNL     1      47.416   7.339  20.816  0.00  0.00    +0.000 N 
ATOM     30  C   UNL     1      47.762   6.860  19.576  0.00  0.00    +0.000 A 
ATOM     31  O   UNL     1      47.715   5.660  19.314  0.00  0.00    +0.000 OA
ATOM     32  C   UNL     1      48.149   7.881  18.624  0.00  0.00    +0.000 A 
ATOM     33  H   UNL     1      47.151   6.650  21.504  0.00  0.00    +0.000 HD
ENDBRANCH  20  23
ENDBRANCH   1  19
BRANCH   1  34
ATOM     34  C   UNL     1      47.648   3.266  16.246  0.00  0.00    +0.000 C 
BRANCH  34  35
ATOM     35  N   UNL     1      46.706   3.422  17.366  0.00  0.00    +0.000 NA
ATOM     36  H   UNL     1      47.111   4.048  18.063  0.00  0.00    +0.000 HD
ATOM     37  H   UNL     1      46.578   2.525  17.833  0.00  0.00    +0.000 HD
ENDBRANCH  34  35
ENDBRANCH   1  34
TORSDOF 8
ENDMDL
MODEL 3
REMARK VINA RESULT:    -7.123      1.809      1.993
REMARK INTER + INTRA:         -11.578
REMARK INTER:                 -10.098
REMARK INTRA:                  -1.480
REMARK UNBOUND:                -1.332
REMARK  Name = 
REMARK  8 active torsions:
REMARK  status: ('A' for Active; 'I' for Inactive)
REMARK    1  A    between atoms: N_1  and  C_2
REMARK    2  A    between atoms: C_2  and  C_3
REMARK    3  A    between atoms: C_3  and  N_4
REMARK    4  A    between atoms: C_3  and  C_17
REMARK    5  A    between atoms: C_5  and  C_7
REMARK    6  A    between atoms: C_20  and  C_21
REMARK    7  A    between atoms: C_21  and  N_22
REMARK    8  A    between atoms: C_23  and  C_25
REMARK                            x       y       z     vdW  Elec       q    Type
REMARK                         _______ _______ _______ _____ _____    ______ ____
ROOT
ATOM      1  C   UNL     1      47.792   7.618  13.918  0.00  0.00    +0.000 C 
ENDROOT
BRANCH   1   2
ATOM      2  C   UNL     1      46.832   6.721  13.131  0.00  0.00    +0.000 A 
ATOM      3  C   UNL     1      46.548   5.431  13.614  0.00  0.00    +0.000 A 
ATOM      4  C   UNL     1      45.722   4.545  12.905  0.00  0.00    +0.000 A 
ATOM      5  C   UNL     1      45.133   4.926  11.694  0.00  0.00    +0.000 A 
ATOM      6  C   UNL     1      45.358   6.232  11.239  0.00  0.00    +0.000 A 
ATOM      7  C   UNL     1      46.203   7.112  11.940  0.00  0.00    +0.000 A 
BRANCH   5   8
ATOM      8  C   UNL     1      44.322   3.952  10.873  0.00  0.00    +0.000 C 
BRANCH   8   9
ATOM      9  N   UNL     1      45.104   3.063  10.055  0.00  0.00    +0.000 N 
ATOM     10  C   UNL     1      45.412   3.377   8.748  0.00  0.00    +0.000 C 
ATOM     11  O   UNL     1      45.033   4.402   8.191  0.00  0.00    +0.000 OA
ATOM     12  H   UNL     1      45.469   2.185  10.413  0.00  0.00    +0.000 HD
BRANCH  10  13
ATOM     13  C   UNL     1      46.230   2.360   8.084  0.00  0.00    +0.000 A 
ATOM     14  C   UNL     1      47.242   2.591   7.167  0.00  0.00    +0.000 A 
ATOM     15  N   UNL     1      47.685   1.356   6.787  0.00  0.00    +0.000 N 
ATOM     16  C   UNL     1      46.948   0.425   7.466  0.00  0.00    +0.000 A 
ATOM     17  N   UNL     1      46.078   0.995   8.271  0.00  0.00    +0.000 NA
ATOM     18  H   UNL     1      48.414   1.161   6.115  0.00  0.00    +0.000 HD
ENDBRANCH  10  13
ENDBRANCH   8   9
ENDBRANCH   5   8
ENDBRANCH   1   2
BRANCH   1  19
ATOM     19  N   UNL     1      48.156   7.004  15.202  0.00  0.00    +0.000 N 
ATOM     20  C   UNL     1      48.340   7.759  16.346  0.00  0.00    +0.000 C 
ATOM     21  O   UNL     1      48.163   8.970  16.369  0.00  0.00    +0.000 OA
ATOM     22  H   UNL     1      48.445   6.035  15.195  0.00  0.00    +0.000 HD
BRANCH  20  23
ATOM     23  C   UNL     1      48.700   7.018  17.562  0.00  0.00    +0.000 A 
ATOM     24  C   UNL     1      47.883   7.079  18.684  0.00  0.00    +0.000 A 
ATOM     25  S   UNL     1      48.452   6.158  20.003  0.00  0.00    +0.000 S 
ATOM     26  C   UNL     1      49.838   5.681  19.139  0.00  0.00    +0.000 A 
ATOM     27  N   UNL     1      50.788   4.893  19.714  0.00  0.00    +0.000 NA
ATOM     28  C   UNL     1      51.802   4.645  18.958  0.00  0.00    +0.000 A 
ATOM     29  N   UNL     1      51.949   5.104  17.672  0.00  0.00    +0.000 N 
ATOM     30  C   UNL     1      51.000   5.866  17.037  0.00  0.00    +0.000 A 
ATOM     31  O   UNL     1      51.130   6.208  15.864  0.00  0.00    +0.000 OA
ATOM     32  C   UNL     1      49.850   6.196  17.853  0.00  0.00    +0.000 A 
ATOM     33  H   UNL     1      52.768   4.866  17.132  0.00  0.00    +0.000 HD
ENDBRANCH  20  23
ENDBRANCH   1  19
BRANCH   1  34
ATOM     34  C   UNL     1      49.057   8.085  13.123  0.00  0.00    +0.000 C 
BRANCH  34  35
ATOM     35  N   UNL     1      50.220   7.191  13.244  0.00  0.00    +0.000 NA
ATOM     36  H   UNL     1      51.073   7.723  13.075  0.00  0.00    +0.000 HD
ATOM     37  H   UNL     1      50.181   6.478  12.516  0.00  0.00    +0.000 HD
ENDBRANCH  34  35
ENDBRANCH   1  34
TORSDOF 8
ENDMDL
MODEL 4
REMARK VINA RESULT:    -6.881      1.957      2.766
REMARK INTER + INTRA:         -11.230
REMARK INTER:                  -9.748
REMARK INTRA:                  -1.481
REMARK UNBOUND:                -1.332
REMARK  Name = 
REMARK  8 active torsions:
REMARK  status: ('A' for Active; 'I' for Inactive)
REMARK    1  A    between atoms: N_1  and  C_2
REMARK    2  A    between atoms: C_2  and  C_3
REMARK    3  A    between atoms: C_3  and  N_4
REMARK    4  A    between atoms: C_3  and  C_17
REMARK    5  A    between atoms: C_5  and  C_7
REMARK    6  A    between atoms: C_20  and  C_21
REMARK    7  A    between atoms: C_21  and  N_22
REMARK    8  A    between atoms: C_23  and  C_25
REMARK                            x       y       z     vdW  Elec       q    Type
REMARK                         _______ _______ _______ _____ _____    ______ ____
ROOT
ATOM      1  C   UNL     1      46.879   8.153  13.379  0.00  0.00    +0.000 C 
ENDROOT
BRANCH   1   2
ATOM      2  C   UNL     1      46.063   6.994  12.798  0.00  0.00    +0.000 A 
ATOM      3  C   UNL     1      46.250   5.698  13.311  0.00  0.00    +0.000 A 
ATOM      4  C   UNL     1      45.572   4.591  12.777  0.00  0.00    +0.000 A 
ATOM      5  C   UNL     1      44.668   4.744  11.720  0.00  0.00    +0.000 A 
ATOM      6  C   UNL     1      44.427   6.041  11.247  0.00  0.00    +0.000 A 
ATOM      7  C   UNL     1      45.122   7.147  11.768  0.00  0.00    +0.000 A 
BRANCH   5   8
ATOM      8  C   UNL     1      44.006   3.551  11.073  0.00  0.00    +0.000 C 
BRANCH   8   9
ATOM      9  N   UNL     1      44.868   2.782  10.214  0.00  0.00    +0.000 N 
ATOM     10  C   UNL     1      45.031   3.108   8.885  0.00  0.00    +0.000 C 
ATOM     11  O   UNL     1      44.452   4.042   8.341  0.00  0.00    +0.000 OA
ATOM     12  H   UNL     1      45.396   1.985  10.559  0.00  0.00    +0.000 HD
BRANCH  10  13
ATOM     13  C   UNL     1      45.961   2.223   8.180  0.00  0.00    +0.000 A 
ATOM     14  C   UNL     1      46.917   2.605   7.254  0.00  0.00    +0.000 A 
ATOM     15  N   UNL     1      47.507   1.448   6.833  0.00  0.00    +0.000 N 
ATOM     16  C   UNL     1      46.909   0.413   7.497  0.00  0.00    +0.000 A 
ATOM     17  N   UNL     1      45.989   0.845   8.331  0.00  0.00    +0.000 NA
ATOM     18  H   UNL     1      48.243   1.366   6.145  0.00  0.00    +0.000 HD
ENDBRANCH  10  13
ENDBRANCH   8   9
ENDBRANCH   5   8
ENDBRANCH   1   2
BRANCH   1  19
ATOM     19  N   UNL     1      48.131   7.669  13.976  0.00  0.00    +0.000 N 
ATOM     20  C   UNL     1      48.595   8.147  15.188  0.00  0.00    +0.000 C 
ATOM     21  O   UNL     1      47.969   8.960  15.856  0.00  0.00    +0.000 OA
ATOM     22  H   UNL     1      48.742   7.107  13.398  0.00  0.00    +0.000 HD
BRANCH  20  23
ATOM     23  C   UNL     1      49.860   7.577  15.670  0.00  0.00    +0.000 A 
ATOM     24  C   UNL     1      49.896   6.872  16.867  0.00  0.00    +0.000 A 
ATOM     25  S   UNL     1      51.444   6.279  17.272  0.00  0.00    +0.000 S 
ATOM     26  C   UNL     1      52.134   6.984  15.885  0.00  0.00    +0.000 A 
ATOM     27  N   UNL     1      53.469   6.885  15.638  0.00  0.00    +0.000 NA
ATOM     28  C   UNL     1      53.859   7.501  14.575  0.00  0.00    +0.000 A 
ATOM     29  N   UNL     1      53.034   8.200  13.728  0.00  0.00    +0.000 N 
ATOM     30  C   UNL     1      51.677   8.292  13.915  0.00  0.00    +0.000 A 
ATOM     31  O   UNL     1      50.954   8.869  13.106  0.00  0.00    +0.000 OA
ATOM     32  C   UNL     1      51.189   7.638  15.112  0.00  0.00    +0.000 A 
ATOM     33  H   UNL     1      53.405   8.654  12.908  0.00  0.00    +0.000 HD
ENDBRANCH  20  23
ENDBRANCH   1  19
BRANCH   1  34
ATOM     34  C   UNL     1      47.131   9.341  12.392  0.00  0.00    +0.000 C 
BRANCH  34  35
ATOM     35  N   UNL     1      48.447   9.319  11.733  0.00  0.00    +0.000 NA
ATOM     36  H   UNL     1      48.703  10.268  11.459  0.00  0.00    +0.000 HD
ATOM     37  H   UNL     1      48.389   8.780  10.870  0.00  0.00    +0.000 HD
ENDBRANCH  34  35
ENDBRANCH   1  34
TORSDOF 8
ENDMDL
MODEL 5
REMARK VINA RESULT:    -6.782      3.527      4.038
REMARK INTER + INTRA:         -11.087
REMARK INTER:                  -9.940
REMARK INTRA:                  -1.147
REMARK UNBOUND:                -1.332
REMARK  Name = 
REMARK  8 active torsions:
REMARK  status: ('A' for Active; 'I' for Inactive)
REMARK    1  A    between atoms: N_1  and  C_2
REMARK    2  A    between atoms: C_2  and  C_3
REMARK    3  A    between atoms: C_3  and  N_4
REMARK    4  A    between atoms: C_3  and  C_17
REMARK    5  A    between atoms: C_5  and  C_7
REMARK    6  A    between atoms: C_20  and  C_21
REMARK    7  A    between atoms: C_21  and  N_22
REMARK    8  A    between atoms: C_23  and  C_25
REMARK                            x       y       z     vdW  Elec       q    Type
REMARK                         _______ _______ _______ _____ _____    ______ ____
ROOT
ATOM      1  C   UNL     1      45.626   8.912  12.788  0.00  0.00    +0.000 C 
ENDROOT
BRANCH   1   2
ATOM      2  C   UNL     1      45.336   7.477  12.338  0.00  0.00    +0.000 A 
ATOM      3  C   UNL     1      44.326   7.247  11.387  0.00  0.00    +0.000 A 
ATOM      4  C   UNL     1      43.978   5.950  10.981  0.00  0.00    +0.000 A 
ATOM      5  C   UNL     1      44.645   4.833  11.499  0.00  0.00    +0.000 A 
ATOM      6  C   UNL     1      45.698   5.056  12.396  0.00  0.00    +0.000 A 
ATOM      7  C   UNL     1      46.031   6.356  12.818  0.00  0.00    +0.000 A 
BRANCH   5   8
ATOM      8  C   UNL     1      44.217   3.428  11.145  0.00  0.00    +0.000 C 
BRANCH   8   9
ATOM      9  N   UNL     1      45.095   2.750  10.227  0.00  0.00    +0.000 N 
ATOM     10  C   UNL     1      45.117   3.072   8.887  0.00  0.00    +0.000 C 
ATOM     11  O   UNL     1      44.395   3.926   8.384  0.00  0.00    +0.000 OA
ATOM     12  H   UNL     1      45.736   2.024  10.536  0.00  0.00    +0.000 HD
BRANCH  10  13
ATOM     13  C   UNL     1      46.086   2.289   8.118  0.00  0.00    +0.000 A 
ATOM     14  C   UNL     1      46.994   2.782   7.196  0.00  0.00    +0.000 A 
ATOM     15  N   UNL     1      47.649   1.690   6.702  0.00  0.00    +0.000 N 
ATOM     16  C   UNL     1      47.135   0.584   7.321  0.00  0.00    +0.000 A 
ATOM     17  N   UNL     1      46.208   0.910   8.195  0.00  0.00    +0.000 NA
ATOM     18  H   UNL     1      48.373   1.692   5.997  0.00  0.00    +0.000 HD
ENDBRANCH  10  13
ENDBRANCH   8   9
ENDBRANCH   5   8
ENDBRANCH   1   2
BRANCH   1  19
ATOM     19  N   UNL     1      47.050   9.236  12.634  0.00  0.00    +0.000 N 
ATOM     20  C   UNL     1      47.922   9.224  13.707  0.00  0.00    +0.000 C 
ATOM     21  O   UNL     1      47.573   8.897  14.834  0.00  0.00    +0.000 OA
ATOM     22  H   UNL     1      47.348   9.643  11.757  0.00  0.00    +0.000 HD
BRANCH  20  23
ATOM     23  C   UNL     1      49.320   9.568  13.413  0.00  0.00    +0.000 A 
ATOM     24  C   UNL     1      49.879  10.726  13.938  0.00  0.00    +0.000 A 
ATOM     25  S   UNL     1      51.510  10.966  13.496  0.00  0.00    +0.000 S 
ATOM     26  C   UNL     1      51.515   9.554  12.548  0.00  0.00    +0.000 A 
ATOM     27  N   UNL     1      52.621   9.184  11.846  0.00  0.00    +0.000 NA
ATOM     28  C   UNL     1      52.470   8.116  11.139  0.00  0.00    +0.000 A 
ATOM     29  N   UNL     1      51.315   7.377  11.078  0.00  0.00    +0.000 N 
ATOM     30  C   UNL     1      50.189   7.688  11.799  0.00  0.00    +0.000 A 
ATOM     31  O   UNL     1      49.190   6.971  11.774  0.00  0.00    +0.000 OA
ATOM     32  C   UNL     1      50.297   8.896  12.592  0.00  0.00    +0.000 A 
ATOM     33  H   UNL     1      51.266   6.545  10.508  0.00  0.00    +0.000 HD
ENDBRANCH  20  23
ENDBRANCH   1  19
BRANCH   1  34
ATOM     34  C   UNL     1      44.712  10.003  12.138  0.00  0.00    +0.000 C 
BRANCH  34  35
ATOM     35  N   UNL     1      45.287  11.358  12.132  0.00  0.00    +0.000 NA
ATOM     36  H   UNL     1      45.845  11.491  12.976  0.00  0.00    +0.000 HD
ATOM     37  H   UNL     1      44.538  12.048  12.175  0.00  0.00    +0.000 HD
ENDBRANCH  34  35
ENDBRANCH   1  34
TORSDOF 8
ENDMDL
MODEL 6
REMARK VINA RESULT:    -6.599      3.555      8.272
REMARK INTER + INTRA:         -10.823
REMARK INTER:                  -9.594
REMARK INTRA:                  -1.229
REMARK UNBOUND:                -1.332
REMARK  Name = 
REMARK  8 active torsions:
REMARK  status: ('A' for Active; 'I' for Inactive)
REMARK    1  A    between atoms: N_1  and  C_2
REMARK    2  A    between atoms: C_2  and  C_3
REMARK    3  A    between atoms: C_3  and  N_4
REMARK    4  A    between atoms: C_3  and  C_17
REMARK    5  A    between atoms: C_5  and  C_7
REMARK    6  A    between atoms: C_20  and  C_21
REMARK    7  A    between atoms: C_21  and  N_22
REMARK    8  A    between atoms: C_23  and  C_25
REMARK                            x       y       z     vdW  Elec       q    Type
REMARK                         _______ _______ _______ _____ _____    ______ ____
ROOT
ATOM      1  C   UNL     1      48.508   7.475  14.358  0.00  0.00    +0.000 C 
ENDROOT
BRANCH   1   2
ATOM      2  C   UNL     1      49.025   6.549  15.463  0.00  0.00    +0.000 A 
ATOM      3  C   UNL     1      48.206   5.500  15.918  0.00  0.00    +0.000 A 
ATOM      4  C   UNL     1      48.605   4.657  16.967  0.00  0.00    +0.000 A 
ATOM      5  C   UNL     1      49.849   4.822  17.588  0.00  0.00    +0.000 A 
ATOM      6  C   UNL     1      50.698   5.822  17.096  0.00  0.00    +0.000 A 
ATOM      7  C   UNL     1      50.289   6.680  16.059  0.00  0.00    +0.000 A 
BRANCH   5   8
ATOM      8  C   UNL     1      50.249   3.985  18.780  0.00  0.00    +0.000 C 
BRANCH   8   9
ATOM      9  N   UNL     1      51.488   3.271  18.618  0.00  0.00    +0.000 N 
ATOM     10  C   UNL     1      51.562   2.131  17.847  0.00  0.00    +0.000 C 
ATOM     11  O   UNL     1      50.598   1.640  17.270  0.00  0.00    +0.000 OA
ATOM     12  H   UNL     1      52.351   3.587  19.053  0.00  0.00    +0.000 HD
BRANCH  10  13
ATOM     13  C   UNL     1      52.908   1.556  17.788  0.00  0.00    +0.000 A 
ATOM     14  C   UNL     1      54.061   2.205  17.378  0.00  0.00    +0.000 A 
ATOM     15  N   UNL     1      55.054   1.271  17.444  0.00  0.00    +0.000 N 
ATOM     16  C   UNL     1      54.495   0.102  17.881  0.00  0.00    +0.000 A 
ATOM     17  N   UNL     1      53.209   0.244  18.119  0.00  0.00    +0.000 NA
ATOM     18  H   UNL     1      56.025   1.409  17.201  0.00  0.00    +0.000 HD
ENDBRANCH  10  13
ENDBRANCH   8   9
ENDBRANCH   5   8
ENDBRANCH   1   2
BRANCH   1  19
ATOM     19  N   UNL     1      47.238   6.983  13.809  0.00  0.00    +0.000 N 
ATOM     20  C   UNL     1      47.010   6.912  12.447  0.00  0.00    +0.000 C 
ATOM     21  O   UNL     1      47.865   7.206  11.622  0.00  0.00    +0.000 OA
ATOM     22  H   UNL     1      46.463   6.863  14.448  0.00  0.00    +0.000 HD
BRANCH  20  23
ATOM     23  C   UNL     1      45.696   6.400  12.033  0.00  0.00    +0.000 A 
ATOM     24  C   UNL     1      44.761   7.258  11.469  0.00  0.00    +0.000 A 
ATOM     25  S   UNL     1      43.293   6.496  11.047  0.00  0.00    +0.000 S 
ATOM     26  C   UNL     1      43.838   4.999  11.646  0.00  0.00    +0.000 A 
ATOM     27  N   UNL     1      43.035   3.900  11.624  0.00  0.00    +0.000 NA
ATOM     28  C   UNL     1      43.563   2.847  12.147  0.00  0.00    +0.000 A 
ATOM     29  N   UNL     1      44.826   2.787  12.682  0.00  0.00    +0.000 N 
ATOM     30  C   UNL     1      45.685   3.859  12.689  0.00  0.00    +0.000 A 
ATOM     31  O   UNL     1      46.833   3.759  13.116  0.00  0.00    +0.000 OA
ATOM     32  C   UNL     1      45.131   5.077  12.135  0.00  0.00    +0.000 A 
ATOM     33  H   UNL     1      45.180   1.927  13.071  0.00  0.00    +0.000 HD
ENDBRANCH  20  23
ENDBRANCH   1  19
BRANCH   1  34
ATOM     34  C   UNL     1      48.419   8.986  14.755  0.00  0.00    +0.000 C 
BRANCH  34  35
ATOM     35  N   UNL     1      47.546   9.265  15.907  0.00  0.00    +0.000 NA
ATOM     36  H   UNL     1      47.882  10.098  16.391  0.00  0.00    +0.000 HD
ATOM     37  H   UNL     1      47.612   8.501  16.579  0.00  0.00    +0.000 HD
ENDBRANCH  34  35
ENDBRANCH   1  34
TORSDOF 8
ENDMDL
MODEL 7
REMARK VINA RESULT:    -6.512      2.975      9.172
REMARK INTER + INTRA:         -10.699
REMARK INTER:                  -9.728
REMARK INTRA:                  -0.970
REMARK UNBOUND:                -1.332
REMARK  Name = 
REMARK  8 active torsions:
REMARK  status: ('A' for Active; 'I' for Inactive)
REMARK    1  A    between atoms: N_1  and  C_2
REMARK    2  A    between atoms: C_2  and  C_3
REMARK    3  A    between atoms: C_3  and  N_4
REMARK    4  A    between atoms: C_3  and  C_17
REMARK    5  A    between atoms: C_5  and  C_7
REMARK    6  A    between atoms: C_20  and  C_21
REMARK    7  A    between atoms: C_21  and  N_22
REMARK    8  A    between atoms: C_23  and  C_25
REMARK                            x       y       z     vdW  Elec       q    Type
REMARK                         _______ _______ _______ _____ _____    ______ ____
ROOT
ATOM      1  C   UNL     1      44.742   5.679  11.643  0.00  0.00    +0.000 C 
ENDROOT
BRANCH   1   2
ATOM      2  C   UNL     1      45.845   6.112  12.612  0.00  0.00    +0.000 A 
ATOM      3  C   UNL     1      46.498   5.138  13.388  0.00  0.00    +0.000 A 
ATOM      4  C   UNL     1      47.476   5.484  14.333  0.00  0.00    +0.000 A 
ATOM      5  C   UNL     1      47.850   6.819  14.524  0.00  0.00    +0.000 A 
ATOM      6  C   UNL     1      47.252   7.789  13.709  0.00  0.00    +0.000 A 
ATOM      7  C   UNL     1      46.257   7.444  12.777  0.00  0.00    +0.000 A 
BRANCH   5   8
ATOM      8  C   UNL     1      48.829   7.214  15.604  0.00  0.00    +0.000 C 
BRANCH   8   9
ATOM      9  N   UNL     1      48.642   6.534  16.859  0.00  0.00    +0.000 N 
ATOM     10  C   UNL     1      49.550   5.599  17.308  0.00  0.00    +0.000 C 
ATOM     11  O   UNL     1      50.550   5.270  16.680  0.00  0.00    +0.000 OA
ATOM     12  H   UNL     1      47.847   6.728  17.461  0.00  0.00    +0.000 HD
BRANCH  10  13
ATOM     13  C   UNL     1      49.199   5.030  18.611  0.00  0.00    +0.000 A 
ATOM     14  C   UNL     1      48.654   3.777  18.840  0.00  0.00    +0.000 A 
ATOM     15  N   UNL     1      48.454   3.703  20.189  0.00  0.00    +0.000 N 
ATOM     16  C   UNL     1      48.871   4.885  20.736  0.00  0.00    +0.000 A 
ATOM     17  N   UNL     1      49.346   5.698  19.817  0.00  0.00    +0.000 NA
ATOM     18  H   UNL     1      48.056   2.923  20.695  0.00  0.00    +0.000 HD
ENDBRANCH  10  13
ENDBRANCH   8   9
ENDBRANCH   5   8
ENDBRANCH   1   2
BRANCH   1  19
ATOM     19  N   UNL     1      45.164   4.520  10.846  0.00  0.00    +0.000 N 
ATOM     20  C   UNL     1      44.507   4.152   9.686  0.00  0.00    +0.000 C 
ATOM     21  O   UNL     1      43.571   4.796   9.230  0.00  0.00    +0.000 OA
ATOM     22  H   UNL     1      45.837   3.886  11.257  0.00  0.00    +0.000 HD
BRANCH  20  23
ATOM     23  C   UNL     1      45.033   2.973   8.986  0.00  0.00    +0.000 A 
ATOM     24  C   UNL     1      44.512   1.713   9.254  0.00  0.00    +0.000 A 
ATOM     25  S   UNL     1      45.239   0.461   8.351  0.00  0.00    +0.000 S 
ATOM     26  C   UNL     1      46.310   1.551   7.602  0.00  0.00    +0.000 A 
ATOM     27  N   UNL     1      47.250   1.116   6.719  0.00  0.00    +0.000 NA
ATOM     28  C   UNL     1      48.019   2.045   6.262  0.00  0.00    +0.000 A 
ATOM     29  N   UNL     1      47.927   3.373   6.600  0.00  0.00    +0.000 N 
ATOM     30  C   UNL     1      46.971   3.862   7.454  0.00  0.00    +0.000 A 
ATOM     31  O   UNL     1      46.872   5.065   7.688  0.00  0.00    +0.000 OA
ATOM     32  C   UNL     1      46.095   2.854   8.017  0.00  0.00    +0.000 A 
ATOM     33  H   UNL     1      48.559   4.050   6.199  0.00  0.00    +0.000 HD
ENDBRANCH  20  23
ENDBRANCH   1  19
BRANCH   1  34
ATOM     34  C   UNL     1      43.341   5.448  12.302  0.00  0.00    +0.000 C 
BRANCH  34  35
ATOM     35  N   UNL     1      42.245   6.222  11.695  0.00  0.00    +0.000 NA
ATOM     36  H   UNL     1      41.564   6.464  12.415  0.00  0.00    +0.000 HD
ATOM     37  H   UNL     1      41.749   5.641  11.020  0.00  0.00    +0.000 HD
ENDBRANCH  34  35
ENDBRANCH   1  34
TORSDOF 8
ENDMDL
MODEL 8
REMARK VINA RESULT:    -6.263      3.322      7.871
REMARK INTER + INTRA:         -10.341
REMARK INTER:                  -9.392
REMARK INTRA:                  -0.949
REMARK UNBOUND:                -1.332
REMARK  Name = 
REMARK  8 active torsions:
REMARK  status: ('A' for Active; 'I' for Inactive)
REMARK    1  A    between atoms: N_1  and  C_2
REMARK    2  A    between atoms: C_2  and  C_3
REMARK    3  A    between atoms: C_3  and  N_4
REMARK    4  A    between atoms: C_3  and  C_17
REMARK    5  A    between atoms: C_5  and  C_7
REMARK    6  A    between atoms: C_20  and  C_21
REMARK    7  A    between atoms: C_21  and  N_22
REMARK    8  A    between atoms: C_23  and  C_25
REMARK                            x       y       z     vdW  Elec       q    Type
REMARK                         _______ _______ _______ _____ _____    ______ ____
ROOT
ATOM      1  C   UNL     1      46.977   8.693  12.528  0.00  0.00    +0.000 C 
ENDROOT
BRANCH   1   2
ATOM      2  C   UNL     1      47.663   8.328  13.848  0.00  0.00    +0.000 A 
ATOM      3  C   UNL     1      48.164   7.026  14.023  0.00  0.00    +0.000 A 
ATOM      4  C   UNL     1      48.750   6.620  15.232  0.00  0.00    +0.000 A 
ATOM      5  C   UNL     1      48.872   7.510  16.306  0.00  0.00    +0.000 A 
ATOM      6  C   UNL     1      48.435   8.828  16.116  0.00  0.00    +0.000 A 
ATOM      7  C   UNL     1      47.829   9.228  14.912  0.00  0.00    +0.000 A 
BRANCH   5   8
ATOM      8  C   UNL     1      49.410   7.060  17.643  0.00  0.00    +0.000 C 
BRANCH   8   9
ATOM      9  N   UNL     1      49.769   5.667  17.705  0.00  0.00    +0.000 N 
ATOM     10  C   UNL     1      51.054   5.246  17.437  0.00  0.00    +0.000 C 
ATOM     11  O   UNL     1      51.961   6.005  17.113  0.00  0.00    +0.000 OA
ATOM     12  H   UNL     1      49.095   4.951  17.961  0.00  0.00    +0.000 HD
BRANCH  10  13
ATOM     13  C   UNL     1      51.229   3.798  17.569  0.00  0.00    +0.000 A 
ATOM     14  C   UNL     1      52.261   3.153  18.230  0.00  0.00    +0.000 A 
ATOM     15  N   UNL     1      52.037   1.818  18.051  0.00  0.00    +0.000 N 
ATOM     16  C   UNL     1      50.901   1.686  17.301  0.00  0.00    +0.000 A 
ATOM     17  N   UNL     1      50.377   2.857  17.011  0.00  0.00    +0.000 NA
ATOM     18  H   UNL     1      52.611   1.061  18.395  0.00  0.00    +0.000 HD
ENDBRANCH  10  13
ENDBRANCH   8   9
ENDBRANCH   5   8
ENDBRANCH   1   2
BRANCH   1  19
ATOM     19  N   UNL     1      46.210   7.557  12.000  0.00  0.00    +0.000 N 
ATOM     20  C   UNL     1      46.744   6.685  11.069  0.00  0.00    +0.000 C 
ATOM     21  O   UNL     1      47.897   6.777  10.668  0.00  0.00    +0.000 OA
ATOM     22  H   UNL     1      45.218   7.526  12.197  0.00  0.00    +0.000 HD
BRANCH  20  23
ATOM     23  C   UNL     1      45.868   5.591  10.626  0.00  0.00    +0.000 A 
ATOM     24  C   UNL     1      45.686   5.350   9.270  0.00  0.00    +0.000 A 
ATOM     25  S   UNL     1      44.641   4.043   8.938  0.00  0.00    +0.000 S 
ATOM     26  C   UNL     1      44.357   3.779  10.594  0.00  0.00    +0.000 A 
ATOM     27  N   UNL     1      43.504   2.806  11.014  0.00  0.00    +0.000 NA
ATOM     28  C   UNL     1      43.353   2.747  12.294  0.00  0.00    +0.000 A 
ATOM     29  N   UNL     1      43.987   3.567  13.194  0.00  0.00    +0.000 N 
ATOM     30  C   UNL     1      44.885   4.535  12.819  0.00  0.00    +0.000 A 
ATOM     31  O   UNL     1      45.487   5.211  13.652  0.00  0.00    +0.000 OA
ATOM     32  C   UNL     1      45.072   4.661  11.388  0.00  0.00    +0.000 A 
ATOM     33  H   UNL     1      43.828   3.462  14.185  0.00  0.00    +0.000 HD
ENDBRANCH  20  23
ENDBRANCH   1  19
BRANCH   1  34
ATOM     34  C   UNL     1      46.117   9.999  12.572  0.00  0.00    +0.000 C 
BRANCH  34  35
ATOM     35  N   UNL     1      44.666   9.773  12.677  0.00  0.00    +0.000 NA
ATOM     36  H   UNL     1      44.477   8.771  12.637  0.00  0.00    +0.000 HD
ATOM     37  H   UNL     1      44.196  10.182  11.870  0.00  0.00    +0.000 HD
ENDBRANCH  34  35
ENDBRANCH   1  34
TORSDOF 8
ENDMDL
MODEL 9
REMARK VINA RESULT:    -6.038      4.691      7.515
REMARK INTER + INTRA:         -10.017
REMARK INTER:                  -8.936
REMARK INTRA:                  -1.081
REMARK UNBOUND:                -1.332
REMARK  Name = 
REMARK  8 active torsions:
REMARK  status: ('A' for Active; 'I' for Inactive)
REMARK    1  A    between atoms: N_1  and  C_2
REMARK    2  A    between atoms: C_2  and  C_3
REMARK    3  A    between atoms: C_3  and  N_4
REMARK    4  A    between atoms: C_3  and  C_17
REMARK    5  A    between atoms: C_5  and  C_7
REMARK    6  A    between atoms: C_20  and  C_21
REMARK    7  A    between atoms: C_21  and  N_22
REMARK    8  A    between atoms: C_23  and  C_25
REMARK                            x       y       z     vdW  Elec       q    Type
REMARK                         _______ _______ _______ _____ _____    ______ ____
ROOT
ATOM      1  C   UNL     1      46.931   8.431  12.471  0.00  0.00    +0.000 C 
ENDROOT
BRANCH   1   2
ATOM      2  C   UNL     1      48.357   8.510  11.918  0.00  0.00    +0.000 A 
ATOM      3  C   UNL     1      49.059   7.320  11.656  0.00  0.00    +0.000 A 
ATOM      4  C   UNL     1      50.387   7.333  11.204  0.00  0.00    +0.000 A 
ATOM      5  C   UNL     1      51.057   8.540  10.978  0.00  0.00    +0.000 A 
ATOM      6  C   UNL     1      50.344   9.731  11.173  0.00  0.00    +0.000 A 
ATOM      7  C   UNL     1      49.020   9.717  11.646  0.00  0.00    +0.000 A 
BRANCH   5   8
ATOM      8  C   UNL     1      52.515   8.569  10.585  0.00  0.00    +0.000 C 
BRANCH   8   9
ATOM      9  N   UNL     1      52.910   7.524   9.677  0.00  0.00    +0.000 N 
ATOM     10  C   UNL     1      53.833   6.568  10.044  0.00  0.00    +0.000 C 
ATOM     11  O   UNL     1      54.389   6.548  11.137  0.00  0.00    +0.000 OA
ATOM     12  H   UNL     1      52.514   7.445   8.745  0.00  0.00    +0.000 HD
BRANCH  10  13
ATOM     13  C   UNL     1      54.091   5.579   8.996  0.00  0.00    +0.000 A 
ATOM     14  C   UNL     1      55.126   4.659   8.973  0.00  0.00    +0.000 A 
ATOM     15  N   UNL     1      54.996   3.986   7.791  0.00  0.00    +0.000 N 
ATOM     16  C   UNL     1      53.910   4.502   7.139  0.00  0.00    +0.000 A 
ATOM     17  N   UNL     1      53.330   5.447   7.845  0.00  0.00    +0.000 NA
ATOM     18  H   UNL     1      55.598   3.250   7.450  0.00  0.00    +0.000 HD
ENDBRANCH  10  13
ENDBRANCH   8   9
ENDBRANCH   5   8
ENDBRANCH   1   2
BRANCH   1  19
ATOM     19  N   UNL     1      46.366   7.089  12.282  0.00  0.00    +0.000 N 
ATOM     20  C   UNL     1      45.156   6.890  11.644  0.00  0.00    +0.000 C 
ATOM     21  O   UNL     1      44.511   7.809  11.157  0.00  0.00    +0.000 OA
ATOM     22  H   UNL     1      46.793   6.322  12.786  0.00  0.00    +0.000 HD
BRANCH  20  23
ATOM     23  C   UNL     1      44.706   5.496  11.521  0.00  0.00    +0.000 A 
ATOM     24  C   UNL     1      44.011   4.894  12.562  0.00  0.00    +0.000 A 
ATOM     25  S   UNL     1      43.566   3.276  12.248  0.00  0.00    +0.000 S 
ATOM     26  C   UNL     1      44.327   3.307  10.727  0.00  0.00    +0.000 A 
ATOM     27  N   UNL     1      44.352   2.202   9.932  0.00  0.00    +0.000 NA
ATOM     28  C   UNL     1      44.998   2.357   8.827  0.00  0.00    +0.000 A 
ATOM     29  N   UNL     1      45.614   3.520   8.438  0.00  0.00    +0.000 N 
ATOM     30  C   UNL     1      45.581   4.670   9.188  0.00  0.00    +0.000 A 
ATOM     31  O   UNL     1      46.087   5.715   8.784  0.00  0.00    +0.000 OA
ATOM     32  C   UNL     1      44.888   4.543  10.454  0.00  0.00    +0.000 A 
ATOM     33  H   UNL     1      46.099   3.575   7.555  0.00  0.00    +0.000 HD
ENDBRANCH  20  23
ENDBRANCH   1  19
BRANCH   1  34
ATOM     34  C   UNL     1      46.771   8.922  13.948  0.00  0.00    +0.000 C 
BRANCH  34  35
ATOM     35  N   UNL     1      47.732   8.334  14.895  0.00  0.00    +0.000 NA
ATOM     36  H   UNL     1      47.955   7.382  14.603  0.00  0.00    +0.000 HD
ATOM     37  H   UNL     1      47.301   8.254  15.816  0.00  0.00    +0.000 HD
ENDBRANCH  34  35
ENDBRANCH   1  34
TORSDOF 8
ENDMDL
