MODEL 1
REMARK VINA RESULT:    -8.192      0.000      0.000
REMARK INTER + INTRA:         -12.575
REMARK INTER:                 -11.544
REMARK INTRA:                  -1.031
REMARK UNBOUND:                -1.031
REMARK  Name = 
REMARK  7 active torsions:
REMARK  status: ('A' for Active; 'I' for Inactive)
REMARK    1  A    between atoms: C_2  and  C_3
REMARK    2  A    between atoms: C_7  and  N_8
REMARK    3  A    between atoms: N_8  and  C_9
REMARK    4  A    between atoms: C_9  and  C_10
REMARK    5  A    between atoms: C_13  and  C_14
REMARK    6  A    between atoms: C_14  and  N_15
REMARK    7  A    between atoms: C_16  and  C_18
REMARK                            x       y       z     vdW  Elec       q    Type
REMARK                         _______ _______ _______ _____ _____    ______ ____
ROOT
ATOM      1  C   UNL     1      44.889   3.900  12.646  0.00  0.00    +0.000 A 
ATOM      2  C   UNL     1      44.742   5.286  12.631  0.00  0.00    +0.000 A 
ATOM      3  C   UNL     1      45.782   6.083  13.113  0.00  0.00    +0.000 A 
ATOM      4  C   UNL     1      46.942   5.485  13.610  0.00  0.00    +0.000 A 
ATOM      5  C   UNL     1      46.985   4.097  13.622  0.00  0.00    +0.000 A 
ATOM      6  N   UNL     1      46.001   3.302  13.144  0.00  0.00    +0.000 NA
ENDROOT
BRANCH   1   7
ATOM      7  C   UNL     1      43.793   2.996  12.103  0.00  0.00    +0.000 C 
BRANCH   7   8
ATOM      8  N   UNL     1      43.420   3.371  10.738  0.00  0.00    +0.000 N 
ATOM      9  H   UNL     1      42.777   4.154  10.703  0.00  0.00    +0.000 HD
BRANCH   8  14
ATOM     10  C   UNL     1      45.891   2.028   8.331  0.00  0.00    +0.000 A 
ATOM     11  C   UNL     1      46.390   3.188   7.742  0.00  0.00    +0.000 A 
ATOM     12  C   UNL     1      45.899   4.427   8.146  0.00  0.00    +0.000 A 
ATOM     13  C   UNL     1      44.900   4.504   9.125  0.00  0.00    +0.000 A 
ATOM     14  C   UNL     1      44.357   3.351   9.706  0.00  0.00    +0.000 A 
ATOM     15  C   UNL     1      44.895   2.115   9.313  0.00  0.00    +0.000 A 
BRANCH  10  17
ATOM     16  N   UNL     1      46.804  -0.293   7.620  0.00  0.00    +0.000 NA
ATOM     17  C   UNL     1      46.398   0.744   7.939  0.00  0.00    +0.000 C 
ENDBRANCH  10  17
ENDBRANCH   8  14
ENDBRANCH   7   8
ENDBRANCH   1   7
BRANCH   4  18
ATOM     18  C   UNL     1      48.088   6.290  14.141  0.00  0.00    +0.000 C 
BRANCH  18  19
ATOM     19  N   UNL     1      48.065   6.362  15.579  0.00  0.00    +0.000 N 
ATOM     20  C   UNL     1      49.009   7.046  16.299  0.00  0.00    +0.000 C 
ATOM     21  O   UNL     1      49.929   7.655  15.758  0.00  0.00    +0.000 OA
ATOM     22  H   UNL     1      47.448   5.714  16.058  0.00  0.00    +0.000 HD
BRANCH  20  23
ATOM     23  C   UNL     1      48.824   7.072  17.755  0.00  0.00    +0.000 A 
ATOM     24  C   UNL     1      48.683   8.291  18.406  0.00  0.00    +0.000 A 
ATOM     25  S   UNL     1      48.440   8.145  20.087  0.00  0.00    +0.000 S 
ATOM     26  C   UNL     1      48.560   6.450  20.012  0.00  0.00    +0.000 A 
ATOM     27  N   UNL     1      48.467   5.693  21.139  0.00  0.00    +0.000 NA
ATOM     28  C   UNL     1      48.613   4.425  20.943  0.00  0.00    +0.000 A 
ATOM     29  N   UNL     1      48.830   3.843  19.720  0.00  0.00    +0.000 N 
ATOM     30  C   UNL     1      48.866   4.561  18.549  0.00  0.00    +0.000 A 
ATOM     31  O   UNL     1      48.946   3.998  17.461  0.00  0.00    +0.000 OA
ATOM     32  C   UNL     1      48.754   5.998  18.718  0.00  0.00    +0.000 A 
ATOM     33  H   UNL     1      48.907   2.841  19.634  0.00  0.00    +0.000 HD
ENDBRANCH  20  23
ENDBRANCH  18  19
ENDBRANCH   4  18
TORSDOF 7
ENDMDL
MODEL 2
REMARK VINA RESULT:    -8.032      1.442      1.693
REMARK INTER + INTRA:         -12.350
REMARK INTER:                 -11.569
REMARK INTRA:                  -0.781
REMARK UNBOUND:                -1.031
REMARK  Name = 
REMARK  7 active torsions:
REMARK  status: ('A' for Active; 'I' for Inactive)
REMARK    1  A    between atoms: C_2  and  C_3
REMARK    2  A    between atoms: C_7  and  N_8
REMARK    3  A    between atoms: N_8  and  C_9
REMARK    4  A    between atoms: C_9  and  C_10
REMARK    5  A    between atoms: C_13  and  C_14
REMARK    6  A    between atoms: C_14  and  N_15
REMARK    7  A    between atoms: C_16  and  C_18
REMARK                            x       y       z     vdW  Elec       q    Type
REMARK                         _______ _______ _______ _____ _____    ______ ____
ROOT
ATOM      1  C   UNL     1      44.458   5.657  11.604  0.00  0.00    +0.000 A 
ATOM      2  C   UNL     1      44.497   7.042  11.449  0.00  0.00    +0.000 A 
ATOM      3  C   UNL     1      45.520   7.764  12.065  0.00  0.00    +0.000 A 
ATOM      4  C   UNL     1      46.476   7.097  12.834  0.00  0.00    +0.000 A 
ATOM      5  C   UNL     1      46.336   5.721  12.966  0.00  0.00    +0.000 A 
ATOM      6  N   UNL     1      45.367   4.995  12.365  0.00  0.00    +0.000 NA
ENDROOT
BRANCH   1   7
ATOM      7  C   UNL     1      43.378   4.829  10.926  0.00  0.00    +0.000 C 
BRANCH   7   8
ATOM      8  N   UNL     1      43.882   3.509  10.541  0.00  0.00    +0.000 N 
ATOM      9  H   UNL     1      43.187   2.776  10.636  0.00  0.00    +0.000 HD
BRANCH   8  14
ATOM     10  C   UNL     1      46.109   1.851   8.093  0.00  0.00    +0.000 A 
ATOM     11  C   UNL     1      46.599   2.932   7.362  0.00  0.00    +0.000 A 
ATOM     12  C   UNL     1      46.184   4.221   7.683  0.00  0.00    +0.000 A 
ATOM     13  C   UNL     1      45.268   4.429   8.722  0.00  0.00    +0.000 A 
ATOM     14  C   UNL     1      44.733   3.356   9.449  0.00  0.00    +0.000 A 
ATOM     15  C   UNL     1      45.196   2.069   9.134  0.00  0.00    +0.000 A 
BRANCH  10  17
ATOM     16  N   UNL     1      46.892  -0.558   7.540  0.00  0.00    +0.000 NA
ATOM     17  C   UNL     1      46.540   0.517   7.787  0.00  0.00    +0.000 C 
ENDBRANCH  10  17
ENDBRANCH   8  14
ENDBRANCH   7   8
ENDBRANCH   1   7
BRANCH   4  18
ATOM     18  C   UNL     1      47.595   7.820  13.519  0.00  0.00    +0.000 C 
BRANCH  18  19
ATOM     19  N   UNL     1      47.870   7.262  14.817  0.00  0.00    +0.000 N 
ATOM     20  C   UNL     1      49.137   6.941  15.229  0.00  0.00    +0.000 C 
ATOM     21  O   UNL     1      50.121   7.126  14.518  0.00  0.00    +0.000 OA
ATOM     22  H   UNL     1      47.074   6.914  15.343  0.00  0.00    +0.000 HD
BRANCH  20  23
ATOM     23  C   UNL     1      49.266   6.429  16.599  0.00  0.00    +0.000 A 
ATOM     24  C   UNL     1      49.935   7.185  17.553  0.00  0.00    +0.000 A 
ATOM     25  S   UNL     1      49.963   6.466  19.098  0.00  0.00    +0.000 S 
ATOM     26  C   UNL     1      49.122   5.097  18.537  0.00  0.00    +0.000 A 
ATOM     27  N   UNL     1      48.839   4.061  19.372  0.00  0.00    +0.000 NA
ATOM     28  C   UNL     1      48.231   3.072  18.807  0.00  0.00    +0.000 A 
ATOM     29  N   UNL     1      47.867   3.031  17.485  0.00  0.00    +0.000 N 
ATOM     30  C   UNL     1      48.074   4.079  16.623  0.00  0.00    +0.000 A 
ATOM     31  O   UNL     1      47.634   4.056  15.476  0.00  0.00    +0.000 OA
ATOM     32  C   UNL     1      48.798   5.200  17.196  0.00  0.00    +0.000 A 
ATOM     33  H   UNL     1      47.367   2.238  17.114  0.00  0.00    +0.000 HD
ENDBRANCH  20  23
ENDBRANCH  18  19
ENDBRANCH   4  18
TORSDOF 7
ENDMDL
MODEL 3
REMARK VINA RESULT:    -7.995      1.508      2.221
REMARK INTER + INTRA:         -12.297
REMARK INTER:                 -11.510
REMARK INTRA:                  -0.787
REMARK UNBOUND:                -1.031
REMARK  Name = 
REMARK  7 active torsions:
REMARK  status: ('A' for Active; 'I' for Inactive)
REMARK    1  A    between atoms: C_2  and  C_3
REMARK    2  A    between atoms: C_7  and  N_8
REMARK    3  A    between atoms: N_8  and  C_9
REMARK    4  A    between atoms: C_9  and  C_10
REMARK    5  A    between atoms: C_13  and  C_14
REMARK    6  A    between atoms: C_14  and  N_15
REMARK    7  A    between atoms: C_16  and  C_18
REMARK                            x       y       z     vdW  Elec       q    Type
REMARK                         _______ _______ _______ _____ _____    ______ ____
ROOT
ATOM      1  C   UNL     1      45.401   4.270  12.332  0.00  0.00    +0.000 A 
ATOM      2  C   UNL     1      45.778   5.463  11.717  0.00  0.00    +0.000 A 
ATOM      3  C   UNL     1      46.716   6.281  12.347  0.00  0.00    +0.000 A 
ATOM      4  C   UNL     1      47.252   5.904  13.580  0.00  0.00    +0.000 A 
ATOM      5  C   UNL     1      46.789   4.719  14.137  0.00  0.00    +0.000 A 
ATOM      6  N   UNL     1      45.895   3.897  13.540  0.00  0.00    +0.000 NA
ENDROOT
BRANCH   1   7
ATOM      7  C   UNL     1      44.403   3.334  11.667  0.00  0.00    +0.000 C 
BRANCH   7   8
ATOM      8  N   UNL     1      44.082   3.776  10.309  0.00  0.00    +0.000 N 
ATOM      9  H   UNL     1      43.673   4.703  10.280  0.00  0.00    +0.000 HD
BRANCH   8  14
ATOM     10  C   UNL     1      46.209   1.799   8.013  0.00  0.00    +0.000 A 
ATOM     11  C   UNL     1      46.775   2.788   7.211  0.00  0.00    +0.000 A 
ATOM     12  C   UNL     1      46.445   4.123   7.432  0.00  0.00    +0.000 A 
ATOM     13  C   UNL     1      45.538   4.466   8.444  0.00  0.00    +0.000 A 
ATOM     14  C   UNL     1      44.929   3.487   9.240  0.00  0.00    +0.000 A 
ATOM     15  C   UNL     1      45.307   2.152   9.026  0.00  0.00    +0.000 A 
BRANCH  10  17
ATOM     16  N   UNL     1      46.828  -0.693   7.650  0.00  0.00    +0.000 NA
ATOM     17  C   UNL     1      46.553   0.421   7.810  0.00  0.00    +0.000 C 
ENDBRANCH  10  17
ENDBRANCH   8  14
ENDBRANCH   7   8
ENDBRANCH   1   7
BRANCH   4  18
ATOM     18  C   UNL     1      48.261   6.744  14.302  0.00  0.00    +0.000 C 
BRANCH  18  19
ATOM     19  N   UNL     1      48.055   6.712  15.726  0.00  0.00    +0.000 N 
ATOM     20  C   UNL     1      49.016   6.277  16.601  0.00  0.00    +0.000 C 
ATOM     21  O   UNL     1      50.123   5.900  16.221  0.00  0.00    +0.000 OA
ATOM     22  H   UNL     1      47.101   6.822  16.052  0.00  0.00    +0.000 HD
BRANCH  20  23
ATOM     23  C   UNL     1      48.680   6.351  18.028  0.00  0.00    +0.000 A 
ATOM     24  C   UNL     1      48.874   5.238  18.837  0.00  0.00    +0.000 A 
ATOM     25  S   UNL     1      48.470   5.502  20.471  0.00  0.00    +0.000 S 
ATOM     26  C   UNL     1      47.977   7.098  20.149  0.00  0.00    +0.000 A 
ATOM     27  N   UNL     1      47.482   7.890  21.139  0.00  0.00    +0.000 NA
ATOM     28  C   UNL     1      47.111   9.063  20.748  0.00  0.00    +0.000 A 
ATOM     29  N   UNL     1      47.203   9.523  19.459  0.00  0.00    +0.000 N 
ATOM     30  C   UNL     1      47.755   8.783  18.442  0.00  0.00    +0.000 A 
ATOM     31  O   UNL     1      47.928   9.266  17.326  0.00  0.00    +0.000 OA
ATOM     32  C   UNL     1      48.145   7.436  18.818  0.00  0.00    +0.000 A 
ATOM     33  H   UNL     1      46.922  10.463  19.227  0.00  0.00    +0.000 HD
ENDBRANCH  20  23
ENDBRANCH  18  19
ENDBRANCH   4  18
TORSDOF 7
ENDMDL
MODEL 4
REMARK VINA RESULT:    -7.446      3.350      8.761
REMARK INTER + INTRA:         -11.523
REMARK INTER:                 -10.285
REMARK INTRA:                  -1.238
REMARK UNBOUND:                -1.031
REMARK  Name = 
REMARK  7 active torsions:
REMARK  status: ('A' for Active; 'I' for Inactive)
REMARK    1  A    between atoms: C_2  and  C_3
REMARK    2  A    between atoms: C_7  and  N_8
REMARK    3  A    between atoms: N_8  and  C_9
REMARK    4  A    between atoms: C_9  and  C_10
REMARK    5  A    between atoms: C_13  and  C_14
REMARK    6  A    between atoms: C_14  and  N_15
REMARK    7  A    between atoms: C_16  and  C_18
REMARK                            x       y       z     vdW  Elec       q    Type
REMARK                         _______ _______ _______ _____ _____    ______ ____
ROOT
ATOM      1  C   UNL     1      49.410   7.613  15.872  0.00  0.00    +0.000 A 
ATOM      2  C   UNL     1      48.521   8.667  15.667  0.00  0.00    +0.000 A 
ATOM      3  C   UNL     1      47.849   8.758  14.448  0.00  0.00    +0.000 A 
ATOM      4  C   UNL     1      48.084   7.807  13.452  0.00  0.00    +0.000 A 
ATOM      5  C   UNL     1      49.015   6.815  13.729  0.00  0.00    +0.000 A 
ATOM      6  N   UNL     1      49.666   6.692  14.909  0.00  0.00    +0.000 NA
ENDROOT
BRANCH   1   7
ATOM      7  C   UNL     1      50.142   7.460  17.197  0.00  0.00    +0.000 C 
BRANCH   7   8
ATOM      8  N   UNL     1      49.323   6.743  18.177  0.00  0.00    +0.000 N 
ATOM      9  H   UNL     1      48.647   7.339  18.641  0.00  0.00    +0.000 HD
BRANCH   8  14
ATOM     10  C   UNL     1      49.441   3.124  17.409  0.00  0.00    +0.000 A 
ATOM     11  C   UNL     1      48.093   2.813  17.244  0.00  0.00    +0.000 A 
ATOM     12  C   UNL     1      47.136   3.814  17.391  0.00  0.00    +0.000 A 
ATOM     13  C   UNL     1      47.526   5.119  17.720  0.00  0.00    +0.000 A 
ATOM     14  C   UNL     1      48.873   5.448  17.926  0.00  0.00    +0.000 A 
ATOM     15  C   UNL     1      49.823   4.433  17.733  0.00  0.00    +0.000 A 
BRANCH  10  17
ATOM     16  N   UNL     1      51.250   1.291  17.105  0.00  0.00    +0.000 NA
ATOM     17  C   UNL     1      50.442   2.108  17.243  0.00  0.00    +0.000 C 
ENDBRANCH  10  17
ENDBRANCH   8  14
ENDBRANCH   7   8
ENDBRANCH   1   7
BRANCH   4  18
ATOM     18  C   UNL     1      47.392   7.856  12.124  0.00  0.00    +0.000 C 
BRANCH  18  19
ATOM     19  N   UNL     1      46.722   6.616  11.829  0.00  0.00    +0.000 N 
ATOM     20  C   UNL     1      45.395   6.411  12.104  0.00  0.00    +0.000 C 
ATOM     21  O   UNL     1      44.689   7.283  12.606  0.00  0.00    +0.000 OA
ATOM     22  H   UNL     1      47.311   5.821  11.607  0.00  0.00    +0.000 HD
BRANCH  20  23
ATOM     23  C   UNL     1      44.839   5.114  11.700  0.00  0.00    +0.000 A 
ATOM     24  C   UNL     1      44.095   4.374  12.609  0.00  0.00    +0.000 A 
ATOM     25  S   UNL     1      43.492   2.913  11.971  0.00  0.00    +0.000 S 
ATOM     26  C   UNL     1      44.242   3.195  10.470  0.00  0.00    +0.000 A 
ATOM     27  N   UNL     1      44.143   2.290   9.459  0.00  0.00    +0.000 NA
ATOM     28  C   UNL     1      44.790   2.612   8.389  0.00  0.00    +0.000 A 
ATOM     29  N   UNL     1      45.517   3.765   8.234  0.00  0.00    +0.000 N 
ATOM     30  C   UNL     1      45.591   4.735   9.203  0.00  0.00    +0.000 A 
ATOM     31  O   UNL     1      46.155   5.806   8.989  0.00  0.00    +0.000 OA
ATOM     32  C   UNL     1      44.919   4.401  10.446  0.00  0.00    +0.000 A 
ATOM     33  H   UNL     1      45.977   3.969   7.360  0.00  0.00    +0.000 HD
ENDBRANCH  20  23
ENDBRANCH  18  19
ENDBRANCH   4  18
TORSDOF 7
ENDMDL
MODEL 5
REMARK VINA RESULT:    -6.828      2.505      3.174
REMARK INTER + INTRA:         -10.653
REMARK INTER:                  -9.449
REMARK INTRA:                  -1.204
REMARK UNBOUND:                -1.031
REMARK  Name = 
REMARK  7 active torsions:
REMARK  status: ('A' for Active; 'I' for Inactive)
REMARK    1  A    between atoms: C_2  and  C_3
REMARK    2  A    between atoms: C_7  and  N_8
REMARK    3  A    between atoms: N_8  and  C_9
REMARK    4  A    between atoms: C_9  and  C_10
REMARK    5  A    between atoms: C_13  and  C_14
REMARK    6  A    between atoms: C_14  and  N_15
REMARK    7  A    between atoms: C_16  and  C_18
REMARK                            x       y       z     vdW  Elec       q    Type
REMARK                         _______ _______ _______ _____ _____    ______ ____
ROOT
ATOM      1  C   UNL     1      45.453   6.652  12.243  0.00  0.00    +0.000 A 
ATOM      2  C   UNL     1      46.430   5.748  12.658  0.00  0.00    +0.000 A 
ATOM      3  C   UNL     1      47.737   6.201  12.842  0.00  0.00    +0.000 A 
ATOM      4  C   UNL     1      48.049   7.540  12.600  0.00  0.00    +0.000 A 
ATOM      5  C   UNL     1      47.022   8.360  12.152  0.00  0.00    +0.000 A 
ATOM      6  N   UNL     1      45.743   7.952  11.983  0.00  0.00    +0.000 NA
ENDROOT
BRANCH   1   7
ATOM      7  C   UNL     1      44.011   6.207  12.057  0.00  0.00    +0.000 C 
BRANCH   7   8
ATOM      8  N   UNL     1      43.748   5.816  10.671  0.00  0.00    +0.000 N 
ATOM      9  H   UNL     1      43.845   6.585  10.017  0.00  0.00    +0.000 HD
BRANCH   8  14
ATOM     10  C   UNL     1      45.306   3.350   8.392  0.00  0.00    +0.000 A 
ATOM     11  C   UNL     1      44.953   2.139   8.984  0.00  0.00    +0.000 A 
ATOM     12  C   UNL     1      44.194   2.141  10.151  0.00  0.00    +0.000 A 
ATOM     13  C   UNL     1      43.803   3.353  10.735  0.00  0.00    +0.000 A 
ATOM     14  C   UNL     1      44.174   4.585  10.179  0.00  0.00    +0.000 A 
ATOM     15  C   UNL     1      44.905   4.558   8.981  0.00  0.00    +0.000 A 
BRANCH  10  17
ATOM     16  N   UNL     1      46.694   3.380   6.203  0.00  0.00    +0.000 NA
ATOM     17  C   UNL     1      46.072   3.366   7.180  0.00  0.00    +0.000 C 
ENDBRANCH  10  17
ENDBRANCH   8  14
ENDBRANCH   7   8
ENDBRANCH   1   7
BRANCH   4  18
ATOM     18  C   UNL     1      49.435   8.081  12.781  0.00  0.00    +0.000 C 
BRANCH  18  19
ATOM     19  N   UNL     1      50.162   7.349  13.784  0.00  0.00    +0.000 N 
ATOM     20  C   UNL     1      50.732   7.957  14.873  0.00  0.00    +0.000 C 
ATOM     21  O   UNL     1      50.642   9.167  15.067  0.00  0.00    +0.000 OA
ATOM     22  H   UNL     1      50.425   6.396  13.555  0.00  0.00    +0.000 HD
BRANCH  20  23
ATOM     23  C   UNL     1      51.398   7.073  15.837  0.00  0.00    +0.000 A 
ATOM     24  C   UNL     1      52.772   7.169  16.020  0.00  0.00    +0.000 A 
ATOM     25  S   UNL     1      53.382   6.101  17.200  0.00  0.00    +0.000 S 
ATOM     26  C   UNL     1      51.839   5.440  17.477  0.00  0.00    +0.000 A 
ATOM     27  N   UNL     1      51.661   4.432  18.374  0.00  0.00    +0.000 NA
ATOM     28  C   UNL     1      50.448   4.000  18.458  0.00  0.00    +0.000 A 
ATOM     29  N   UNL     1      49.391   4.493  17.736  0.00  0.00    +0.000 N 
ATOM     30  C   UNL     1      49.511   5.552  16.869  0.00  0.00    +0.000 A 
ATOM     31  O   UNL     1      48.525   6.044  16.326  0.00  0.00    +0.000 OA
ATOM     32  C   UNL     1      50.866   6.045  16.702  0.00  0.00    +0.000 A 
ATOM     33  H   UNL     1      48.461   4.129  17.872  0.00  0.00    +0.000 HD
ENDBRANCH  20  23
ENDBRANCH  18  19
ENDBRANCH   4  18
TORSDOF 7
ENDMDL
MODEL 6
REMARK VINA RESULT:    -6.704      4.063      9.012
REMARK INTER + INTRA:         -10.478
REMARK INTER:                  -9.398
REMARK INTRA:                  -1.080
REMARK UNBOUND:                -1.031
REMARK  Name = 
REMARK  7 active torsions:
REMARK  status: ('A' for Active; 'I' for Inactive)
REMARK    1  A    between atoms: C_2  and  C_3
REMARK    2  A    between atoms: C_7  and  N_8
REMARK    3  A    between atoms: N_8  and  C_9
REMARK    4  A    between atoms: C_9  and  C_10
REMARK    5  A    between atoms: C_13  and  C_14
REMARK    6  A    between atoms: C_14  and  N_15
REMARK    7  A    between atoms: C_16  and  C_18
REMARK                            x       y       z     vdW  Elec       q    Type
REMARK                         _______ _______ _______ _____ _____    ______ ____
ROOT
ATOM      1  C   UNL     1      51.339   3.653  17.719  0.00  0.00    +0.000 A 
ATOM      2  C   UNL     1      50.564   4.799  17.888  0.00  0.00    +0.000 A 
ATOM      3  C   UNL     1      49.199   4.742  17.602  0.00  0.00    +0.000 A 
ATOM      4  C   UNL     1      48.634   3.550  17.144  0.00  0.00    +0.000 A 
ATOM      5  C   UNL     1      49.489   2.469  16.969  0.00  0.00    +0.000 A 
ATOM      6  N   UNL     1      50.811   2.492  17.255  0.00  0.00    +0.000 NA
ENDROOT
BRANCH   1   7
ATOM      7  C   UNL     1      52.824   3.664  18.046  0.00  0.00    +0.000 C 
BRANCH   7   8
ATOM      8  N   UNL     1      53.357   5.027  18.061  0.00  0.00    +0.000 N 
ATOM      9  H   UNL     1      53.792   5.273  18.943  0.00  0.00    +0.000 HD
BRANCH   8  14
ATOM     10  C   UNL     1      53.880   7.132  15.062  0.00  0.00    +0.000 A 
ATOM     11  C   UNL     1      55.075   6.627  14.551  0.00  0.00    +0.000 A 
ATOM     12  C   UNL     1      55.713   5.580  15.211  0.00  0.00    +0.000 A 
ATOM     13  C   UNL     1      55.166   5.050  16.388  0.00  0.00    +0.000 A 
ATOM     14  C   UNL     1      53.986   5.565  16.940  0.00  0.00    +0.000 A 
ATOM     15  C   UNL     1      53.338   6.593  16.237  0.00  0.00    +0.000 A 
BRANCH  10  17
ATOM     16  N   UNL     1      52.648   9.057  13.837  0.00  0.00    +0.000 NA
ATOM     17  C   UNL     1      53.200   8.199  14.385  0.00  0.00    +0.000 C 
ENDBRANCH  10  17
ENDBRANCH   8  14
ENDBRANCH   7   8
ENDBRANCH   1   7
BRANCH   4  18
ATOM     18  C   UNL     1      47.176   3.431  16.821  0.00  0.00    +0.000 C 
BRANCH  18  19
ATOM     19  N   UNL     1      46.772   4.395  15.831  0.00  0.00    +0.000 N 
ATOM     20  C   UNL     1      46.861   4.152  14.485  0.00  0.00    +0.000 C 
ATOM     21  O   UNL     1      47.278   3.085  14.040  0.00  0.00    +0.000 OA
ATOM     22  H   UNL     1      46.617   5.344  16.154  0.00  0.00    +0.000 HD
BRANCH  20  23
ATOM     23  C   UNL     1      46.363   5.210  13.598  0.00  0.00    +0.000 A 
ATOM     24  C   UNL     1      47.146   6.334  13.365  0.00  0.00    +0.000 A 
ATOM     25  S   UNL     1      46.440   7.447  12.284  0.00  0.00    +0.000 S 
ATOM     26  C   UNL     1      45.043   6.489  12.125  0.00  0.00    +0.000 A 
ATOM     27  N   UNL     1      44.005   6.893  11.344  0.00  0.00    +0.000 NA
ATOM     28  C   UNL     1      42.994   6.090  11.342  0.00  0.00    +0.000 A 
ATOM     29  N   UNL     1      42.932   4.912  12.041  0.00  0.00    +0.000 N 
ATOM     30  C   UNL     1      43.980   4.433  12.789  0.00  0.00    +0.000 A 
ATOM     31  O   UNL     1      43.935   3.320  13.307  0.00  0.00    +0.000 OA
ATOM     32  C   UNL     1      45.125   5.322  12.862  0.00  0.00    +0.000 A 
ATOM     33  H   UNL     1      42.121   4.315  11.973  0.00  0.00    +0.000 HD
ENDBRANCH  20  23
ENDBRANCH  18  19
ENDBRANCH   4  18
TORSDOF 7
ENDMDL
MODEL 7
REMARK VINA RESULT:    -6.704      2.716      3.445
REMARK INTER + INTRA:         -10.478
REMARK INTER:                  -9.545
REMARK INTRA:                  -0.933
REMARK UNBOUND:                -1.031
REMARK  Name = 
REMARK  7 active torsions:
REMARK  status: ('A' for Active; 'I' for Inactive)
REMARK    1  A    between atoms: C_2  and  C_3
REMARK    2  A    between atoms: C_7  and  N_8
REMARK    3  A    between atoms: N_8  and  C_9
REMARK    4  A    between atoms: C_9  and  C_10
REMARK    5  A    between atoms: C_13  and  C_14
REMARK    6  A    between atoms: C_14  and  N_15
REMARK    7  A    between atoms: C_16  and  C_18
REMARK                            x       y       z     vdW  Elec       q    Type
REMARK                         _______ _______ _______ _____ _____    ______ ____
ROOT
ATOM      1  C   UNL     1      45.682   6.636  12.262  0.00  0.00    +0.000 A 
ATOM      2  C   UNL     1      45.757   7.983  12.613  0.00  0.00    +0.000 A 
ATOM      3  C   UNL     1      46.802   8.411  13.434  0.00  0.00    +0.000 A 
ATOM      4  C   UNL     1      47.743   7.491  13.898  0.00  0.00    +0.000 A 
ATOM      5  C   UNL     1      47.568   6.163  13.530  0.00  0.00    +0.000 A 
ATOM      6  N   UNL     1      46.576   5.724  12.722  0.00  0.00    +0.000 NA
ENDROOT
BRANCH   1   7
ATOM      7  C   UNL     1      44.577   6.131  11.347  0.00  0.00    +0.000 C 
BRANCH   7   8
ATOM      8  N   UNL     1      45.076   5.892   9.991  0.00  0.00    +0.000 N 
ATOM      9  H   UNL     1      45.800   6.546   9.714  0.00  0.00    +0.000 HD
BRANCH   8  14
ATOM     10  C   UNL     1      45.994   3.157   7.673  0.00  0.00    +0.000 A 
ATOM     11  C   UNL     1      45.527   2.030   8.347  0.00  0.00    +0.000 A 
ATOM     12  C   UNL     1      44.905   2.180   9.584  0.00  0.00    +0.000 A 
ATOM     13  C   UNL     1      44.765   3.453  10.153  0.00  0.00    +0.000 A 
ATOM     14  C   UNL     1      45.257   4.597   9.511  0.00  0.00    +0.000 A 
ATOM     15  C   UNL     1      45.845   4.427   8.247  0.00  0.00    +0.000 A 
BRANCH  10  17
ATOM     16  N   UNL     1      47.125   2.914   5.352  0.00  0.00    +0.000 NA
ATOM     17  C   UNL     1      46.622   3.022   6.390  0.00  0.00    +0.000 C 
ENDBRANCH  10  17
ENDBRANCH   8  14
ENDBRANCH   7   8
ENDBRANCH   1   7
BRANCH   4  18
ATOM     18  C   UNL     1      48.883   7.894  14.782  0.00  0.00    +0.000 C 
BRANCH  18  19
ATOM     19  N   UNL     1      49.531   6.749  15.367  0.00  0.00    +0.000 N 
ATOM     20  C   UNL     1      49.257   6.316  16.639  0.00  0.00    +0.000 C 
ATOM     21  O   UNL     1      48.427   6.872  17.353  0.00  0.00    +0.000 OA
ATOM     22  H   UNL     1      50.353   6.395  14.889  0.00  0.00    +0.000 HD
BRANCH  20  23
ATOM     23  C   UNL     1      49.959   5.104  17.079  0.00  0.00    +0.000 A 
ATOM     24  C   UNL     1      49.235   3.944  17.324  0.00  0.00    +0.000 A 
ATOM     25  S   UNL     1      50.203   2.620  17.790  0.00  0.00    +0.000 S 
ATOM     26  C   UNL     1      51.618   3.562  17.726  0.00  0.00    +0.000 A 
ATOM     27  N   UNL     1      52.827   3.027  18.048  0.00  0.00    +0.000 NA
ATOM     28  C   UNL     1      53.811   3.862  17.993  0.00  0.00    +0.000 A 
ATOM     29  N   UNL     1      53.697   5.180  17.632  0.00  0.00    +0.000 N 
ATOM     30  C   UNL     1      52.509   5.745  17.237  0.00  0.00    +0.000 A 
ATOM     31  O   UNL     1      52.463   6.896  16.810  0.00  0.00    +0.000 OA
ATOM     32  C   UNL     1      51.361   4.861  17.326  0.00  0.00    +0.000 A 
ATOM     33  H   UNL     1      54.513   5.772  17.582  0.00  0.00    +0.000 HD
ENDBRANCH  20  23
ENDBRANCH  18  19
ENDBRANCH   4  18
TORSDOF 7
ENDMDL
MODEL 8
REMARK VINA RESULT:    -6.535      5.298      8.582
REMARK INTER + INTRA:         -10.241
REMARK INTER:                  -9.314
REMARK INTRA:                  -0.927
REMARK UNBOUND:                -1.031
REMARK  Name = 
REMARK  7 active torsions:
REMARK  status: ('A' for Active; 'I' for Inactive)
REMARK    1  A    between atoms: C_2  and  C_3
REMARK    2  A    between atoms: C_7  and  N_8
REMARK    3  A    between atoms: N_8  and  C_9
REMARK    4  A    between atoms: C_9  and  C_10
REMARK    5  A    between atoms: C_13  and  C_14
REMARK    6  A    between atoms: C_14  and  N_15
REMARK    7  A    between atoms: C_16  and  C_18
REMARK                            x       y       z     vdW  Elec       q    Type
REMARK                         _______ _______ _______ _____ _____    ______ ____
ROOT
ATOM      1  C   UNL     1      50.565   8.433  12.521  0.00  0.00    +0.000 A 
ATOM      2  C   UNL     1      49.720   8.256  11.427  0.00  0.00    +0.000 A 
ATOM      3  C   UNL     1      48.350   8.111  11.646  0.00  0.00    +0.000 A 
ATOM      4  C   UNL     1      47.847   8.134  12.948  0.00  0.00    +0.000 A 
ATOM      5  C   UNL     1      48.766   8.277  13.980  0.00  0.00    +0.000 A 
ATOM      6  N   UNL     1      50.097   8.438  13.796  0.00  0.00    +0.000 NA
ENDROOT
BRANCH   1   7
ATOM      7  C   UNL     1      52.061   8.624  12.326  0.00  0.00    +0.000 C 
BRANCH   7   8
ATOM      8  N   UNL     1      52.629   7.563  11.493  0.00  0.00    +0.000 N 
ATOM      9  H   UNL     1      52.347   6.634  11.786  0.00  0.00    +0.000 HD
BRANCH   8  14
ATOM     10  C   UNL     1      53.054   6.654   7.930  0.00  0.00    +0.000 A 
ATOM     11  C   UNL     1      53.165   7.901   7.319  0.00  0.00    +0.000 A 
ATOM     12  C   UNL     1      53.095   9.054   8.097  0.00  0.00    +0.000 A 
ATOM     13  C   UNL     1      52.897   8.960   9.481  0.00  0.00    +0.000 A 
ATOM     14  C   UNL     1      52.748   7.719  10.113  0.00  0.00    +0.000 A 
ATOM     15  C   UNL     1      52.862   6.569   9.316  0.00  0.00    +0.000 A 
BRANCH  10  17
ATOM     16  N   UNL     1      53.209   4.486   6.515  0.00  0.00    +0.000 NA
ATOM     17  C   UNL     1      53.142   5.455   7.147  0.00  0.00    +0.000 C 
ENDBRANCH  10  17
ENDBRANCH   8  14
ENDBRANCH   7   8
ENDBRANCH   1   7
BRANCH   4  18
ATOM     18  C   UNL     1      46.386   7.983  13.242  0.00  0.00    +0.000 C 
BRANCH  18  19
ATOM     19  N   UNL     1      45.895   6.692  12.837  0.00  0.00    +0.000 N 
ATOM     20  C   UNL     1      44.930   6.538  11.876  0.00  0.00    +0.000 C 
ATOM     21  O   UNL     1      44.434   7.497  11.289  0.00  0.00    +0.000 OA
ATOM     22  H   UNL     1      46.132   5.905  13.432  0.00  0.00    +0.000 HD
BRANCH  20  23
ATOM     23  C   UNL     1      44.568   5.157  11.532  0.00  0.00    +0.000 A 
ATOM     24  C   UNL     1      43.805   4.408  12.418  0.00  0.00    +0.000 A 
ATOM     25  S   UNL     1      43.441   2.842  11.852  0.00  0.00    +0.000 S 
ATOM     26  C   UNL     1      44.329   3.093  10.423  0.00  0.00    +0.000 A 
ATOM     27  N   UNL     1      44.447   2.107   9.492  0.00  0.00    +0.000 NA
ATOM     28  C   UNL     1      45.178   2.419   8.475  0.00  0.00    +0.000 A 
ATOM     29  N   UNL     1      45.791   3.633   8.297  0.00  0.00    +0.000 N 
ATOM     30  C   UNL     1      45.646   4.677   9.177  0.00  0.00    +0.000 A 
ATOM     31  O   UNL     1      46.113   5.786   8.930  0.00  0.00    +0.000 OA
ATOM     32  C   UNL     1      44.871   4.364  10.364  0.00  0.00    +0.000 A 
ATOM     33  H   UNL     1      46.326   3.821   7.463  0.00  0.00    +0.000 HD
ENDBRANCH  20  23
ENDBRANCH  18  19
ENDBRANCH   4  18
TORSDOF 7
ENDMDL
MODEL 9
REMARK VINA RESULT:    -6.412      3.875      9.456
REMARK INTER + INTRA:         -10.067
REMARK INTER:                  -9.055
REMARK INTRA:                  -1.012
REMARK UNBOUND:                -1.031
REMARK  Name = 
REMARK  7 active torsions:
REMARK  status: ('A' for Active; 'I' for Inactive)
REMARK    1  A    between atoms: C_2  and  C_3
REMARK    2  A    between atoms: C_7  and  N_8
REMARK    3  A    between atoms: N_8  and  C_9
REMARK    4  A    between atoms: C_9  and  C_10
REMARK    5  A    between atoms: C_13  and  C_14
REMARK    6  A    between atoms: C_14  and  N_15
REMARK    7  A    between atoms: C_16  and  C_18
REMARK                            x       y       z     vdW  Elec       q    Type
REMARK                         _______ _______ _______ _____ _____    ______ ____
ROOT
ATOM      1  C   UNL     1      50.358   5.621  19.133  0.00  0.00    +0.000 A 
ATOM      2  C   UNL     1      50.158   6.112  17.844  0.00  0.00    +0.000 A 
ATOM      3  C   UNL     1      49.186   5.521  17.037  0.00  0.00    +0.000 A 
ATOM      4  C   UNL     1      48.439   4.446  17.524  0.00  0.00    +0.000 A 
ATOM      5  C   UNL     1      48.732   3.998  18.805  0.00  0.00    +0.000 A 
ATOM      6  N   UNL     1      49.656   4.564  19.615  0.00  0.00    +0.000 NA
ENDROOT
BRANCH   1   7
ATOM      7  C   UNL     1      51.388   6.255  20.057  0.00  0.00    +0.000 C 
BRANCH   7   8
ATOM      8  N   UNL     1      52.461   5.315  20.383  0.00  0.00    +0.000 N 
ATOM      9  H   UNL     1      52.248   4.733  21.186  0.00  0.00    +0.000 HD
BRANCH   8  14
ATOM     10  C   UNL     1      53.894   2.548  18.385  0.00  0.00    +0.000 A 
ATOM     11  C   UNL     1      54.727   3.226  17.498  0.00  0.00    +0.000 A 
ATOM     12  C   UNL     1      54.812   4.615  17.562  0.00  0.00    +0.000 A 
ATOM     13  C   UNL     1      54.051   5.324  18.500  0.00  0.00    +0.000 A 
ATOM     14  C   UNL     1      53.179   4.668  19.380  0.00  0.00    +0.000 A 
ATOM     15  C   UNL     1      53.141   3.266  19.324  0.00  0.00    +0.000 A 
BRANCH  10  17
ATOM     16  N   UNL     1      53.745  -0.040  18.312  0.00  0.00    +0.000 NA
ATOM     17  C   UNL     1      53.809   1.116  18.344  0.00  0.00    +0.000 C 
ENDBRANCH  10  17
ENDBRANCH   8  14
ENDBRANCH   7   8
ENDBRANCH   1   7
BRANCH   4  18
ATOM     18  C   UNL     1      47.383   3.772  16.702  0.00  0.00    +0.000 C 
BRANCH  18  19
ATOM     19  N   UNL     1      46.837   4.661  15.709  0.00  0.00    +0.000 N 
ATOM     20  C   UNL     1      46.813   4.349  14.374  0.00  0.00    +0.000 C 
ATOM     21  O   UNL     1      47.242   3.281  13.944  0.00  0.00    +0.000 OA
ATOM     22  H   UNL     1      46.663   5.617  15.998  0.00  0.00    +0.000 HD
BRANCH  20  23
ATOM     23  C   UNL     1      46.178   5.333  13.488  0.00  0.00    +0.000 A 
ATOM     24  C   UNL     1      46.858   6.498  13.158  0.00  0.00    +0.000 A 
ATOM     25  S   UNL     1      45.999   7.513  12.092  0.00  0.00    +0.000 S 
ATOM     26  C   UNL     1      44.668   6.454  12.070  0.00  0.00    +0.000 A 
ATOM     27  N   UNL     1      43.550   6.752  11.352  0.00  0.00    +0.000 NA
ATOM     28  C   UNL     1      42.603   5.881  11.454  0.00  0.00    +0.000 A 
ATOM     29  N   UNL     1      42.676   4.731  12.197  0.00  0.00    +0.000 N 
ATOM     30  C   UNL     1      43.806   4.358  12.883  0.00  0.00    +0.000 A 
ATOM     31  O   UNL     1      43.879   3.267  13.444  0.00  0.00    +0.000 OA
ATOM     32  C   UNL     1      44.886   5.327  12.841  0.00  0.00    +0.000 A 
ATOM     33  H   UNL     1      41.908   4.077  12.210  0.00  0.00    +0.000 HD
ENDBRANCH  20  23
ENDBRANCH  18  19
ENDBRANCH   4  18
TORSDOF 7
ENDMDL
