MODEL 1
REMARK VINA RESULT:    -8.227      0.000      0.000
REMARK INTER + INTRA:         -12.338
REMARK INTER:                 -11.353
REMARK INTRA:                  -0.986
REMARK UNBOUND:                -0.986
REMARK  Name = 
REMARK  7 active torsions:
REMARK  status: ('A' for Active; 'I' for Inactive)
REMARK    1  A    between atoms: N_1  and  C_2
REMARK    2  A    between atoms: C_2  and  C_3
REMARK    3  A    between atoms: C_6  and  C_7
REMARK    4  A    between atoms: C_7  and  C_8
REMARK    5  A    between atoms: C_11  and  C_12
REMARK    6  A    between atoms: C_12  and  N_13
REMARK    7  A    between atoms: C_14  and  C_16
REMARK                            x       y       z     vdW  Elec       q    Type
REMARK                         _______ _______ _______ _____ _____    ______ ____
ROOT
ATOM      1  C   UNL     1      44.746   5.470  11.135  0.00  0.00    +0.000 A 
ATOM      2  N   UNL     1      45.753   4.943  11.862  0.00  0.00    +0.000 NA
ATOM      3  C   UNL     1      46.508   5.811  12.566  0.00  0.00    +0.000 A 
ATOM      4  C   UNL     1      46.308   7.176  12.581  0.00  0.00    +0.000 A 
ATOM      5  C   UNL     1      45.244   7.608  11.818  0.00  0.00    +0.000 A 
ATOM      6  N   UNL     1      44.451   6.786  11.095  0.00  0.00    +0.000 NA
ENDROOT
BRANCH   1   7
ATOM      7  C   UNL     1      43.994   4.550  10.205  0.00  0.00    +0.000 C 
BRANCH   7  11
ATOM      8  C   UNL     1      46.537   2.404   7.531  0.00  0.00    +0.000 A 
ATOM      9  C   UNL     1      45.801   1.687   8.469  0.00  0.00    +0.000 A 
ATOM     10  C   UNL     1      44.935   2.376   9.317  0.00  0.00    +0.000 A 
ATOM     11  C   UNL     1      44.821   3.763   9.223  0.00  0.00    +0.000 A 
ATOM     12  C   UNL     1      45.580   4.394   8.243  0.00  0.00    +0.000 A 
ATOM     13  N   UNL     1      46.428   3.744   7.398  0.00  0.00    +0.000 NA
BRANCH   8  14
ATOM     14  C   UNL     1      47.530   1.693   6.634  0.00  0.00    +0.000 C 
BRANCH  14  15
ATOM     15  N   UNL     1      48.664   2.538   6.248  0.00  0.00    +0.000 NA
ATOM     16  H   UNL     1      49.306   1.978   5.691  0.00  0.00    +0.000 HD
ATOM     17  H   UNL     1      49.172   2.781   7.100  0.00  0.00    +0.000 HD
ENDBRANCH  14  15
ENDBRANCH   8  14
ENDBRANCH   7  11
ENDBRANCH   1   7
BRANCH   4  18
ATOM     18  C   UNL     1      47.188   8.100  13.355  0.00  0.00    +0.000 C 
BRANCH  18  19
ATOM     19  N   UNL     1      47.557   7.568  14.644  0.00  0.00    +0.000 N 
ATOM     20  C   UNL     1      48.828   7.079  14.849  0.00  0.00    +0.000 C 
ATOM     21  O   UNL     1      49.648   7.024  13.935  0.00  0.00    +0.000 OA
ATOM     22  H   UNL     1      47.015   7.863  15.452  0.00  0.00    +0.000 HD
BRANCH  20  23
ATOM     23  C   UNL     1      49.131   6.543  16.182  0.00  0.00    +0.000 A 
ATOM     24  C   UNL     1      49.932   7.256  17.066  0.00  0.00    +0.000 A 
ATOM     25  S   UNL     1      50.465   6.318  18.392  0.00  0.00    +0.000 S 
ATOM     26  C   UNL     1      49.566   4.972  17.865  0.00  0.00    +0.000 A 
ATOM     27  N   UNL     1      49.661   3.761  18.475  0.00  0.00    +0.000 NA
ATOM     28  C   UNL     1      48.870   2.859  17.993  0.00  0.00    +0.000 A 
ATOM     29  N   UNL     1      47.952   3.075  16.996  0.00  0.00    +0.000 N 
ATOM     30  C   UNL     1      47.801   4.290  16.380  0.00  0.00    +0.000 A 
ATOM     31  O   UNL     1      46.898   4.507  15.577  0.00  0.00    +0.000 OA
ATOM     32  C   UNL     1      48.767   5.289  16.784  0.00  0.00    +0.000 A 
ATOM     33  H   UNL     1      47.298   2.353  16.730  0.00  0.00    +0.000 HD
ENDBRANCH  20  23
ENDBRANCH  18  19
ENDBRANCH   4  18
TORSDOF 7
ENDMDL
MODEL 2
REMARK VINA RESULT:    -7.511      1.764      2.280
REMARK INTER + INTRA:         -11.350
REMARK INTER:                 -10.615
REMARK INTRA:                  -0.736
REMARK UNBOUND:                -0.986
REMARK  Name = 
REMARK  7 active torsions:
REMARK  status: ('A' for Active; 'I' for Inactive)
REMARK    1  A    between atoms: N_1  and  C_2
REMARK    2  A    between atoms: C_2  and  C_3
REMARK    3  A    between atoms: C_6  and  C_7
REMARK    4  A    between atoms: C_7  and  C_8
REMARK    5  A    between atoms: C_11  and  C_12
REMARK    6  A    between atoms: C_12  and  N_13
REMARK    7  A    between atoms: C_14  and  C_16
REMARK                            x       y       z     vdW  Elec       q    Type
REMARK                         _______ _______ _______ _____ _____    ______ ____
ROOT
ATOM      1  C   UNL     1      44.957   5.105  11.215  0.00  0.00    +0.000 A 
ATOM      2  N   UNL     1      45.392   4.405  12.283  0.00  0.00    +0.000 NA
ATOM      3  C   UNL     1      46.232   5.044  13.123  0.00  0.00    +0.000 A 
ATOM      4  C   UNL     1      46.657   6.345  12.949  0.00  0.00    +0.000 A 
ATOM      5  C   UNL     1      46.141   6.974  11.837  0.00  0.00    +0.000 A 
ATOM      6  N   UNL     1      45.294   6.387  10.962  0.00  0.00    +0.000 NA
ENDROOT
BRANCH   1   7
ATOM      7  C   UNL     1      44.157   4.367  10.170  0.00  0.00    +0.000 C 
BRANCH   7  11
ATOM      8  C   UNL     1      46.582   2.146   7.446  0.00  0.00    +0.000 A 
ATOM      9  C   UNL     1      45.829   1.451   8.387  0.00  0.00    +0.000 A 
ATOM     10  C   UNL     1      45.001   2.165   9.251  0.00  0.00    +0.000 A 
ATOM     11  C   UNL     1      44.941   3.557   9.171  0.00  0.00    +0.000 A 
ATOM     12  C   UNL     1      45.713   4.166   8.188  0.00  0.00    +0.000 A 
ATOM     13  N   UNL     1      46.526   3.491   7.327  0.00  0.00    +0.000 NA
BRANCH   8  14
ATOM     14  C   UNL     1      47.535   1.404   6.533  0.00  0.00    +0.000 C 
BRANCH  14  15
ATOM     15  N   UNL     1      48.593   2.261   5.988  0.00  0.00    +0.000 NA
ATOM     16  H   UNL     1      48.872   2.925   6.708  0.00  0.00    +0.000 HD
ATOM     17  H   UNL     1      48.183   2.819   5.237  0.00  0.00    +0.000 HD
ENDBRANCH  14  15
ENDBRANCH   8  14
ENDBRANCH   7  11
ENDBRANCH   1   7
BRANCH   4  18
ATOM     18  C   UNL     1      47.611   7.002  13.892  0.00  0.00    +0.000 C 
BRANCH  18  19
ATOM     19  N   UNL     1      47.726   6.298  15.147  0.00  0.00    +0.000 N 
ATOM     20  C   UNL     1      48.952   6.191  15.766  0.00  0.00    +0.000 C 
ATOM     21  O   UNL     1      49.973   6.629  15.242  0.00  0.00    +0.000 OA
ATOM     22  H   UNL     1      46.886   6.194  15.711  0.00  0.00    +0.000 HD
BRANCH  20  23
ATOM     23  C   UNL     1      48.997   5.452  17.033  0.00  0.00    +0.000 A 
ATOM     24  C   UNL     1      48.932   4.063  17.045  0.00  0.00    +0.000 A 
ATOM     25  S   UNL     1      48.626   3.422  18.601  0.00  0.00    +0.000 S 
ATOM     26  C   UNL     1      48.666   4.972  19.303  0.00  0.00    +0.000 A 
ATOM     27  N   UNL     1      48.352   5.177  20.610  0.00  0.00    +0.000 NA
ATOM     28  C   UNL     1      48.489   6.401  21.004  0.00  0.00    +0.000 A 
ATOM     29  N   UNL     1      48.966   7.425  20.225  0.00  0.00    +0.000 N 
ATOM     30  C   UNL     1      49.326   7.251  18.914  0.00  0.00    +0.000 A 
ATOM     31  O   UNL     1      49.865   8.142  18.262  0.00  0.00    +0.000 OA
ATOM     32  C   UNL     1      49.050   5.932  18.388  0.00  0.00    +0.000 A 
ATOM     33  H   UNL     1      49.138   8.338  20.621  0.00  0.00    +0.000 HD
ENDBRANCH  20  23
ENDBRANCH  18  19
ENDBRANCH   4  18
TORSDOF 7
ENDMDL
MODEL 3
REMARK VINA RESULT:    -7.491      3.738      4.769
REMARK INTER + INTRA:         -11.323
REMARK INTER:                 -10.625
REMARK INTRA:                  -0.698
REMARK UNBOUND:                -0.986
REMARK  Name = 
REMARK  7 active torsions:
REMARK  status: ('A' for Active; 'I' for Inactive)
REMARK    1  A    between atoms: N_1  and  C_2
REMARK    2  A    between atoms: C_2  and  C_3
REMARK    3  A    between atoms: C_6  and  C_7
REMARK    4  A    between atoms: C_7  and  C_8
REMARK    5  A    between atoms: C_11  and  C_12
REMARK    6  A    between atoms: C_12  and  N_13
REMARK    7  A    between atoms: C_14  and  C_16
REMARK                            x       y       z     vdW  Elec       q    Type
REMARK                         _______ _______ _______ _____ _____    ______ ____
ROOT
ATOM      1  C   UNL     1      44.440   4.227  11.104  0.00  0.00    +0.000 A 
ATOM      2  N   UNL     1      45.583   4.339  11.811  0.00  0.00    +0.000 NA
ATOM      3  C   UNL     1      45.837   5.543  12.363  0.00  0.00    +0.000 A 
ATOM      4  C   UNL     1      45.006   6.639  12.245  0.00  0.00    +0.000 A 
ATOM      5  C   UNL     1      43.858   6.412  11.517  0.00  0.00    +0.000 A 
ATOM      6  N   UNL     1      43.549   5.228  10.944  0.00  0.00    +0.000 NA
ENDROOT
BRANCH   1   7
ATOM      7  C   UNL     1      44.212   2.950  10.333  0.00  0.00    +0.000 C 
BRANCH   7  11
ATOM      8  C   UNL     1      46.515   2.678   6.748  0.00  0.00    +0.000 A 
ATOM      9  C   UNL     1      46.411   1.553   7.560  0.00  0.00    +0.000 A 
ATOM     10  C   UNL     1      45.625   1.619   8.710  0.00  0.00    +0.000 A 
ATOM     11  C   UNL     1      44.964   2.804   9.036  0.00  0.00    +0.000 A 
ATOM     12  C   UNL     1      45.109   3.871   8.157  0.00  0.00    +0.000 A 
ATOM     13  N   UNL     1      45.865   3.830   7.024  0.00  0.00    +0.000 NA
BRANCH   8  14
ATOM     14  C   UNL     1      47.407   2.656   5.525  0.00  0.00    +0.000 C 
BRANCH  14  15
ATOM     15  N   UNL     1      48.602   1.824   5.699  0.00  0.00    +0.000 NA
ATOM     16  H   UNL     1      49.386   2.290   5.248  0.00  0.00    +0.000 HD
ATOM     17  H   UNL     1      48.454   0.959   5.177  0.00  0.00    +0.000 HD
ENDBRANCH  14  15
ENDBRANCH   8  14
ENDBRANCH   7  11
ENDBRANCH   1   7
BRANCH   4  18
ATOM     18  C   UNL     1      45.343   7.961  12.852  0.00  0.00    +0.000 C 
BRANCH  18  19
ATOM     19  N   UNL     1      46.649   8.435  12.462  0.00  0.00    +0.000 N 
ATOM     20  C   UNL     1      46.829   9.759  12.130  0.00  0.00    +0.000 C 
ATOM     21  O   UNL     1      45.885  10.544  12.096  0.00  0.00    +0.000 OA
ATOM     22  H   UNL     1      47.458   7.894  12.758  0.00  0.00    +0.000 HD
BRANCH  20  23
ATOM     23  C   UNL     1      48.181  10.170  11.733  0.00  0.00    +0.000 A 
ATOM     24  C   UNL     1      48.382  11.344  11.016  0.00  0.00    +0.000 A 
ATOM     25  S   UNL     1      49.947  11.454  10.337  0.00  0.00    +0.000 S 
ATOM     26  C   UNL     1      50.418   9.987  11.060  0.00  0.00    +0.000 A 
ATOM     27  N   UNL     1      51.619   9.407  10.794  0.00  0.00    +0.000 NA
ATOM     28  C   UNL     1      51.850   8.328  11.468  0.00  0.00    +0.000 A 
ATOM     29  N   UNL     1      51.015   7.810  12.427  0.00  0.00    +0.000 N 
ATOM     30  C   UNL     1      49.813   8.384  12.749  0.00  0.00    +0.000 A 
ATOM     31  O   UNL     1      49.130   7.986  13.688  0.00  0.00    +0.000 OA
ATOM     32  C   UNL     1      49.445   9.509  11.915  0.00  0.00    +0.000 A 
ATOM     33  H   UNL     1      51.298   7.017  12.984  0.00  0.00    +0.000 HD
ENDBRANCH  20  23
ENDBRANCH  18  19
ENDBRANCH   4  18
TORSDOF 7
ENDMDL
MODEL 4
REMARK VINA RESULT:    -7.483      1.496      1.589
REMARK INTER + INTRA:         -11.312
REMARK INTER:                 -10.486
REMARK INTRA:                  -0.826
REMARK UNBOUND:                -0.986
REMARK  Name = 
REMARK  7 active torsions:
REMARK  status: ('A' for Active; 'I' for Inactive)
REMARK    1  A    between atoms: N_1  and  C_2
REMARK    2  A    between atoms: C_2  and  C_3
REMARK    3  A    between atoms: C_6  and  C_7
REMARK    4  A    between atoms: C_7  and  C_8
REMARK    5  A    between atoms: C_11  and  C_12
REMARK    6  A    between atoms: C_12  and  N_13
REMARK    7  A    between atoms: C_14  and  C_16
REMARK                            x       y       z     vdW  Elec       q    Type
REMARK                         _______ _______ _______ _____ _____    ______ ____
ROOT
ATOM      1  C   UNL     1      45.266   5.747  11.647  0.00  0.00    +0.000 A 
ATOM      2  N   UNL     1      46.251   5.024  12.219  0.00  0.00    +0.000 NA
ATOM      3  C   UNL     1      47.175   5.710  12.922  0.00  0.00    +0.000 A 
ATOM      4  C   UNL     1      47.164   7.081  13.082  0.00  0.00    +0.000 A 
ATOM      5  C   UNL     1      46.108   7.721  12.471  0.00  0.00    +0.000 A 
ATOM      6  N   UNL     1      45.151   7.087  11.758  0.00  0.00    +0.000 NA
ENDROOT
BRANCH   1   7
ATOM      7  C   UNL     1      44.319   5.032  10.716  0.00  0.00    +0.000 C 
BRANCH   7  11
ATOM      8  C   UNL     1      46.309   2.736   7.717  0.00  0.00    +0.000 A 
ATOM      9  C   UNL     1      45.551   2.068   8.672  0.00  0.00    +0.000 A 
ATOM     10  C   UNL     1      44.862   2.812   9.629  0.00  0.00    +0.000 A 
ATOM     11  C   UNL     1      44.945   4.205   9.623  0.00  0.00    +0.000 A 
ATOM     12  C   UNL     1      45.710   4.788   8.619  0.00  0.00    +0.000 A 
ATOM     13  N   UNL     1      46.388   4.084   7.670  0.00  0.00    +0.000 NA
BRANCH   8  14
ATOM     14  C   UNL     1      47.116   1.955   6.700  0.00  0.00    +0.000 C 
BRANCH  14  15
ATOM     15  N   UNL     1      48.432   2.544   6.436  0.00  0.00    +0.000 NA
ATOM     16  H   UNL     1      48.407   3.524   6.712  0.00  0.00    +0.000 HD
ATOM     17  H   UNL     1      48.574   2.543   5.425  0.00  0.00    +0.000 HD
ENDBRANCH  14  15
ENDBRANCH   8  14
ENDBRANCH   7  11
ENDBRANCH   1   7
BRANCH   4  18
ATOM     18  C   UNL     1      48.226   7.799  13.847  0.00  0.00    +0.000 C 
BRANCH  18  19
ATOM     19  N   UNL     1      47.997   7.779  15.271  0.00  0.00    +0.000 N 
ATOM     20  C   UNL     1      48.808   7.023  16.088  0.00  0.00    +0.000 C 
ATOM     21  O   UNL     1      49.693   6.308  15.625  0.00  0.00    +0.000 OA
ATOM     22  H   UNL     1      47.485   8.556  15.681  0.00  0.00    +0.000 HD
BRANCH  20  23
ATOM     23  C   UNL     1      48.511   7.040  17.525  0.00  0.00    +0.000 A 
ATOM     24  C   UNL     1      48.386   8.246  18.207  0.00  0.00    +0.000 A 
ATOM     25  S   UNL     1      48.413   8.058  19.907  0.00  0.00    +0.000 S 
ATOM     26  C   UNL     1      48.497   6.364  19.768  0.00  0.00    +0.000 A 
ATOM     27  N   UNL     1      48.674   5.562  20.852  0.00  0.00    +0.000 NA
ATOM     28  C   UNL     1      48.657   4.297  20.587  0.00  0.00    +0.000 A 
ATOM     29  N   UNL     1      48.419   3.761  19.345  0.00  0.00    +0.000 N 
ATOM     30  C   UNL     1      48.201   4.534  18.236  0.00  0.00    +0.000 A 
ATOM     31  O   UNL     1      47.870   4.049  17.157  0.00  0.00    +0.000 OA
ATOM     32  C   UNL     1      48.359   5.956  18.456  0.00  0.00    +0.000 A 
ATOM     33  H   UNL     1      48.324   2.763  19.224  0.00  0.00    +0.000 HD
ENDBRANCH  20  23
ENDBRANCH  18  19
ENDBRANCH   4  18
TORSDOF 7
ENDMDL
MODEL 5
REMARK VINA RESULT:    -7.135      1.683      2.442
REMARK INTER + INTRA:         -10.832
REMARK INTER:                 -10.189
REMARK INTRA:                  -0.643
REMARK UNBOUND:                -0.986
REMARK  Name = 
REMARK  7 active torsions:
REMARK  status: ('A' for Active; 'I' for Inactive)
REMARK    1  A    between atoms: N_1  and  C_2
REMARK    2  A    between atoms: C_2  and  C_3
REMARK    3  A    between atoms: C_6  and  C_7
REMARK    4  A    between atoms: C_7  and  C_8
REMARK    5  A    between atoms: C_11  and  C_12
REMARK    6  A    between atoms: C_12  and  N_13
REMARK    7  A    between atoms: C_14  and  C_16
REMARK                            x       y       z     vdW  Elec       q    Type
REMARK                         _______ _______ _______ _____ _____    ______ ____
ROOT
ATOM      1  C   UNL     1      45.045   5.237  11.161  0.00  0.00    +0.000 A 
ATOM      2  N   UNL     1      45.296   4.595  12.320  0.00  0.00    +0.000 NA
ATOM      3  C   UNL     1      46.053   5.250  13.223  0.00  0.00    +0.000 A 
ATOM      4  C   UNL     1      46.571   6.514  13.026  0.00  0.00    +0.000 A 
ATOM      5  C   UNL     1      46.242   7.087  11.817  0.00  0.00    +0.000 A 
ATOM      6  N   UNL     1      45.485   6.481  10.875  0.00  0.00    +0.000 NA
ENDROOT
BRANCH   1   7
ATOM      7  C   UNL     1      44.349   4.467  10.066  0.00  0.00    +0.000 C 
BRANCH   7  11
ATOM      8  C   UNL     1      46.631   2.014   7.419  0.00  0.00    +0.000 A 
ATOM      9  C   UNL     1      46.667   3.394   7.246  0.00  0.00    +0.000 A 
ATOM     10  C   UNL     1      45.960   4.205   8.133  0.00  0.00    +0.000 A 
ATOM     11  C   UNL     1      45.225   3.631   9.170  0.00  0.00    +0.000 A 
ATOM     12  C   UNL     1      45.262   2.245   9.279  0.00  0.00    +0.000 A 
ATOM     13  N   UNL     1      45.949   1.431   8.429  0.00  0.00    +0.000 NA
BRANCH   8  14
ATOM     14  C   UNL     1      47.340   1.103   6.439  0.00  0.00    +0.000 C 
BRANCH  14  15
ATOM     15  N   UNL     1      48.415   1.776   5.703  0.00  0.00    +0.000 NA
ATOM     16  H   UNL     1      48.021   2.176   4.853  0.00  0.00    +0.000 HD
ATOM     17  H   UNL     1      49.073   1.060   5.394  0.00  0.00    +0.000 HD
ENDBRANCH  14  15
ENDBRANCH   8  14
ENDBRANCH   7  11
ENDBRANCH   1   7
BRANCH   4  18
ATOM     18  C   UNL     1      47.429   7.189  14.045  0.00  0.00    +0.000 C 
BRANCH  18  19
ATOM     19  N   UNL     1      47.912   6.280  15.056  0.00  0.00    +0.000 N 
ATOM     20  C   UNL     1      48.689   6.752  16.091  0.00  0.00    +0.000 C 
ATOM     21  O   UNL     1      49.037   7.929  16.145  0.00  0.00    +0.000 OA
ATOM     22  H   UNL     1      47.413   5.403  15.184  0.00  0.00    +0.000 HD
BRANCH  20  23
ATOM     23  C   UNL     1      49.155   5.769  17.077  0.00  0.00    +0.000 A 
ATOM     24  C   UNL     1      48.259   4.895  17.682  0.00  0.00    +0.000 A 
ATOM     25  S   UNL     1      48.917   4.101  19.046  0.00  0.00    +0.000 S 
ATOM     26  C   UNL     1      50.434   4.835  18.804  0.00  0.00    +0.000 A 
ATOM     27  N   UNL     1      51.451   4.694  19.694  0.00  0.00    +0.000 NA
ATOM     28  C   UNL     1      52.555   5.263  19.336  0.00  0.00    +0.000 A 
ATOM     29  N   UNL     1      52.750   5.910  18.140  0.00  0.00    +0.000 N 
ATOM     30  C   UNL     1      51.761   6.042  17.202  0.00  0.00    +0.000 A 
ATOM     31  O   UNL     1      51.977   6.514  16.089  0.00  0.00    +0.000 OA
ATOM     32  C   UNL     1      50.467   5.551  17.623  0.00  0.00    +0.000 A 
ATOM     33  H   UNL     1      53.664   6.251  17.881  0.00  0.00    +0.000 HD
ENDBRANCH  20  23
ENDBRANCH  18  19
ENDBRANCH   4  18
TORSDOF 7
ENDMDL
MODEL 6
REMARK VINA RESULT:    -7.060      3.409      8.400
REMARK INTER + INTRA:         -10.728
REMARK INTER:                  -9.797
REMARK INTRA:                  -0.931
REMARK UNBOUND:                -0.986
REMARK  Name = 
REMARK  7 active torsions:
REMARK  status: ('A' for Active; 'I' for Inactive)
REMARK    1  A    between atoms: N_1  and  C_2
REMARK    2  A    between atoms: C_2  and  C_3
REMARK    3  A    between atoms: C_6  and  C_7
REMARK    4  A    between atoms: C_7  and  C_8
REMARK    5  A    between atoms: C_11  and  C_12
REMARK    6  A    between atoms: C_12  and  N_13
REMARK    7  A    between atoms: C_14  and  C_16
REMARK                            x       y       z     vdW  Elec       q    Type
REMARK                         _______ _______ _______ _____ _____    ______ ____
ROOT
ATOM      1  C   UNL     1      49.809   5.917  16.858  0.00  0.00    +0.000 A 
ATOM      2  N   UNL     1      50.545   6.813  16.169  0.00  0.00    +0.000 NA
ATOM      3  C   UNL     1      50.021   7.262  15.010  0.00  0.00    +0.000 A 
ATOM      4  C   UNL     1      48.800   6.860  14.507  0.00  0.00    +0.000 A 
ATOM      5  C   UNL     1      48.123   5.956  15.296  0.00  0.00    +0.000 A 
ATOM      6  N   UNL     1      48.596   5.473  16.467  0.00  0.00    +0.000 NA
ENDROOT
BRANCH   1   7
ATOM      7  C   UNL     1      50.441   5.269  18.066  0.00  0.00    +0.000 C 
BRANCH   7  11
ATOM      8  C   UNL     1      52.706   1.679  17.604  0.00  0.00    +0.000 A 
ATOM      9  C   UNL     1      51.334   1.634  17.382  0.00  0.00    +0.000 A 
ATOM     10  C   UNL     1      50.593   2.810  17.487  0.00  0.00    +0.000 A 
ATOM     11  C   UNL     1      51.227   4.008  17.819  0.00  0.00    +0.000 A 
ATOM     12  C   UNL     1      52.604   3.963  18.004  0.00  0.00    +0.000 A 
ATOM     13  N   UNL     1      53.352   2.828  17.901  0.00  0.00    +0.000 NA
BRANCH   8  14
ATOM     14  C   UNL     1      53.530   0.409  17.555  0.00  0.00    +0.000 C 
BRANCH  14  15
ATOM     15  N   UNL     1      52.949  -0.684  18.341  0.00  0.00    +0.000 NA
ATOM     16  H   UNL     1      53.409  -0.708  19.248  0.00  0.00    +0.000 HD
ATOM     17  H   UNL     1      53.195  -1.561  17.879  0.00  0.00    +0.000 HD
ENDBRANCH  14  15
ENDBRANCH   8  14
ENDBRANCH   7  11
ENDBRANCH   1   7
BRANCH   4  18
ATOM     18  C   UNL     1      48.273   7.365  13.204  0.00  0.00    +0.000 C 
BRANCH  18  19
ATOM     19  N   UNL     1      47.637   6.332  12.423  0.00  0.00    +0.000 N 
ATOM     20  C   UNL     1      46.480   6.607  11.730  0.00  0.00    +0.000 C 
ATOM     21  O   UNL     1      45.933   7.704  11.809  0.00  0.00    +0.000 OA
ATOM     22  H   UNL     1      48.208   5.545  12.123  0.00  0.00    +0.000 HD
BRANCH  20  23
ATOM     23  C   UNL     1      45.881   5.506  10.966  0.00  0.00    +0.000 A 
ATOM     24  C   UNL     1      45.883   5.527   9.575  0.00  0.00    +0.000 A 
ATOM     25  S   UNL     1      44.830   4.369   8.887  0.00  0.00    +0.000 S 
ATOM     26  C   UNL     1      44.422   3.755  10.422  0.00  0.00    +0.000 A 
ATOM     27  N   UNL     1      43.456   2.813  10.585  0.00  0.00    +0.000 NA
ATOM     28  C   UNL     1      43.307   2.409  11.804  0.00  0.00    +0.000 A 
ATOM     29  N   UNL     1      44.078   2.819  12.864  0.00  0.00    +0.000 N 
ATOM     30  C   UNL     1      45.083   3.740  12.734  0.00  0.00    +0.000 A 
ATOM     31  O   UNL     1      45.845   4.010  13.659  0.00  0.00    +0.000 OA
ATOM     32  C   UNL     1      45.188   4.330  11.417  0.00  0.00    +0.000 A 
ATOM     33  H   UNL     1      43.973   2.394  13.774  0.00  0.00    +0.000 HD
ENDBRANCH  20  23
ENDBRANCH  18  19
ENDBRANCH   4  18
TORSDOF 7
ENDMDL
MODEL 7
REMARK VINA RESULT:    -6.861      3.154      3.703
REMARK INTER + INTRA:         -10.454
REMARK INTER:                  -9.580
REMARK INTRA:                  -0.874
REMARK UNBOUND:                -0.986
REMARK  Name = 
REMARK  7 active torsions:
REMARK  status: ('A' for Active; 'I' for Inactive)
REMARK    1  A    between atoms: N_1  and  C_2
REMARK    2  A    between atoms: C_2  and  C_3
REMARK    3  A    between atoms: C_6  and  C_7
REMARK    4  A    between atoms: C_7  and  C_8
REMARK    5  A    between atoms: C_11  and  C_12
REMARK    6  A    between atoms: C_12  and  N_13
REMARK    7  A    between atoms: C_14  and  C_16
REMARK                            x       y       z     vdW  Elec       q    Type
REMARK                         _______ _______ _______ _____ _____    ______ ____
ROOT
ATOM      1  C   UNL     1      44.145   5.082  11.119  0.00  0.00    +0.000 A 
ATOM      2  N   UNL     1      45.192   5.035  11.967  0.00  0.00    +0.000 NA
ATOM      3  C   UNL     1      45.566   6.200  12.533  0.00  0.00    +0.000 A 
ATOM      4  C   UNL     1      44.944   7.409  12.295  0.00  0.00    +0.000 A 
ATOM      5  C   UNL     1      43.876   7.345  11.427  0.00  0.00    +0.000 A 
ATOM      6  N   UNL     1      43.455   6.206  10.832  0.00  0.00    +0.000 NA
ENDROOT
BRANCH   1   7
ATOM      7  C   UNL     1      43.812   3.834  10.340  0.00  0.00    +0.000 C 
BRANCH   7  11
ATOM      8  C   UNL     1      46.650   2.280   7.554  0.00  0.00    +0.000 A 
ATOM      9  C   UNL     1      46.416   3.651   7.571  0.00  0.00    +0.000 A 
ATOM     10  C   UNL     1      45.523   4.172   8.506  0.00  0.00    +0.000 A 
ATOM     11  C   UNL     1      44.875   3.322   9.403  0.00  0.00    +0.000 A 
ATOM     12  C   UNL     1      45.185   1.969   9.327  0.00  0.00    +0.000 A 
ATOM     13  N   UNL     1      46.058   1.435   8.426  0.00  0.00    +0.000 NA
BRANCH   8  14
ATOM     14  C   UNL     1      47.568   1.675   6.512  0.00  0.00    +0.000 C 
BRANCH  14  15
ATOM     15  N   UNL     1      48.586   2.614   6.028  0.00  0.00    +0.000 NA
ATOM     16  H   UNL     1      48.143   3.518   5.877  0.00  0.00    +0.000 HD
ATOM     17  H   UNL     1      48.889   2.294   5.108  0.00  0.00    +0.000 HD
ENDBRANCH  14  15
ENDBRANCH   8  14
ENDBRANCH   7  11
ENDBRANCH   1   7
BRANCH   4  18
ATOM     18  C   UNL     1      45.411   8.680  12.925  0.00  0.00    +0.000 C 
BRANCH  18  19
ATOM     19  N   UNL     1      46.627   8.511  13.684  0.00  0.00    +0.000 N 
ATOM     20  C   UNL     1      47.764   9.201  13.325  0.00  0.00    +0.000 C 
ATOM     21  O   UNL     1      47.789   9.917  12.328  0.00  0.00    +0.000 OA
ATOM     22  H   UNL     1      46.547   8.170  14.639  0.00  0.00    +0.000 HD
BRANCH  20  23
ATOM     23  C   UNL     1      48.967   8.972  14.134  0.00  0.00    +0.000 A 
ATOM     24  C   UNL     1      48.951   9.203  15.506  0.00  0.00    +0.000 A 
ATOM     25  S   UNL     1      50.515   9.240  16.196  0.00  0.00    +0.000 S 
ATOM     26  C   UNL     1      51.238   8.860  14.702  0.00  0.00    +0.000 A 
ATOM     27  N   UNL     1      52.587   8.854  14.537  0.00  0.00    +0.000 NA
ATOM     28  C   UNL     1      52.977   8.487  13.361  0.00  0.00    +0.000 A 
ATOM     29  N   UNL     1      52.143   8.068  12.354  0.00  0.00    +0.000 N 
ATOM     30  C   UNL     1      50.781   8.025  12.493  0.00  0.00    +0.000 A 
ATOM     31  O   UNL     1      50.052   7.536  11.634  0.00  0.00    +0.000 OA
ATOM     32  C   UNL     1      50.289   8.569  13.741  0.00  0.00    +0.000 A 
ATOM     33  H   UNL     1      52.518   7.703  11.490  0.00  0.00    +0.000 HD
ENDBRANCH  20  23
ENDBRANCH  18  19
ENDBRANCH   4  18
TORSDOF 7
ENDMDL
MODEL 8
REMARK VINA RESULT:    -6.761      1.726      2.216
REMARK INTER + INTRA:         -10.315
REMARK INTER:                  -9.456
REMARK INTRA:                  -0.859
REMARK UNBOUND:                -0.986
REMARK  Name = 
REMARK  7 active torsions:
REMARK  status: ('A' for Active; 'I' for Inactive)
REMARK    1  A    between atoms: N_1  and  C_2
REMARK    2  A    between atoms: C_2  and  C_3
REMARK    3  A    between atoms: C_6  and  C_7
REMARK    4  A    between atoms: C_7  and  C_8
REMARK    5  A    between atoms: C_11  and  C_12
REMARK    6  A    between atoms: C_12  and  N_13
REMARK    7  A    between atoms: C_14  and  C_16
REMARK                            x       y       z     vdW  Elec       q    Type
REMARK                         _______ _______ _______ _____ _____    ______ ____
ROOT
ATOM      1  C   UNL     1      45.808   5.989  12.382  0.00  0.00    +0.000 A 
ATOM      2  N   UNL     1      45.941   7.330  12.351  0.00  0.00    +0.000 NA
ATOM      3  C   UNL     1      46.885   7.863  13.154  0.00  0.00    +0.000 A 
ATOM      4  C   UNL     1      47.703   7.123  13.983  0.00  0.00    +0.000 A 
ATOM      5  C   UNL     1      47.496   5.762  13.927  0.00  0.00    +0.000 A 
ATOM      6  N   UNL     1      46.568   5.171  13.141  0.00  0.00    +0.000 NA
ENDROOT
BRANCH   1   7
ATOM      7  C   UNL     1      44.651   5.379  11.630  0.00  0.00    +0.000 C 
BRANCH   7  11
ATOM      8  C   UNL     1      45.848   3.224   8.144  0.00  0.00    +0.000 A 
ATOM      9  C   UNL     1      45.208   2.533   9.167  0.00  0.00    +0.000 A 
ATOM     10  C   UNL     1      44.775   3.236  10.290  0.00  0.00    +0.000 A 
ATOM     11  C   UNL     1      44.991   4.611  10.379  0.00  0.00    +0.000 A 
ATOM     12  C   UNL     1      45.621   5.223   9.301  0.00  0.00    +0.000 A 
ATOM     13  N   UNL     1      46.049   4.560   8.190  0.00  0.00    +0.000 NA
BRANCH   8  14
ATOM     14  C   UNL     1      46.383   2.480   6.938  0.00  0.00    +0.000 C 
BRANCH  14  15
ATOM     15  N   UNL     1      46.940   1.166   7.273  0.00  0.00    +0.000 NA
ATOM     16  H   UNL     1      46.267   0.453   6.999  0.00  0.00    +0.000 HD
ATOM     17  H   UNL     1      47.007   1.110   8.290  0.00  0.00    +0.000 HD
ENDBRANCH  14  15
ENDBRANCH   8  14
ENDBRANCH   7  11
ENDBRANCH   1   7
BRANCH   4  18
ATOM     18  C   UNL     1      48.716   7.760  14.875  0.00  0.00    +0.000 C 
BRANCH  18  19
ATOM     19  N   UNL     1      49.534   6.795  15.568  0.00  0.00    +0.000 N 
ATOM     20  C   UNL     1      49.310   6.532  16.901  0.00  0.00    +0.000 C 
ATOM     21  O   UNL     1      48.463   7.151  17.541  0.00  0.00    +0.000 OA
ATOM     22  H   UNL     1      50.018   6.095  15.010  0.00  0.00    +0.000 HD
BRANCH  20  23
ATOM     23  C   UNL     1      50.187   5.547  17.545  0.00  0.00    +0.000 A 
ATOM     24  C   UNL     1      51.256   5.960  18.333  0.00  0.00    +0.000 A 
ATOM     25  S   UNL     1      52.359   4.699  18.678  0.00  0.00    +0.000 S 
ATOM     26  C   UNL     1      51.389   3.561  17.864  0.00  0.00    +0.000 A 
ATOM     27  N   UNL     1      51.800   2.282  17.661  0.00  0.00    +0.000 NA
ATOM     28  C   UNL     1      50.925   1.527  17.081  0.00  0.00    +0.000 A 
ATOM     29  N   UNL     1      49.655   1.922  16.739  0.00  0.00    +0.000 N 
ATOM     30  C   UNL     1      49.192   3.192  16.959  0.00  0.00    +0.000 A 
ATOM     31  O   UNL     1      48.020   3.502  16.763  0.00  0.00    +0.000 OA
ATOM     32  C   UNL     1      50.185   4.112  17.470  0.00  0.00    +0.000 A 
ATOM     33  H   UNL     1      48.989   1.257  16.375  0.00  0.00    +0.000 HD
ENDBRANCH  20  23
ENDBRANCH  18  19
ENDBRANCH   4  18
TORSDOF 7
ENDMDL
MODEL 9
REMARK VINA RESULT:    -6.695      3.372      8.815
REMARK INTER + INTRA:         -10.225
REMARK INTER:                  -9.571
REMARK INTRA:                  -0.653
REMARK UNBOUND:                -0.986
REMARK  Name = 
REMARK  7 active torsions:
REMARK  status: ('A' for Active; 'I' for Inactive)
REMARK    1  A    between atoms: N_1  and  C_2
REMARK    2  A    between atoms: C_2  and  C_3
REMARK    3  A    between atoms: C_6  and  C_7
REMARK    4  A    between atoms: C_7  and  C_8
REMARK    5  A    between atoms: C_11  and  C_12
REMARK    6  A    between atoms: C_12  and  N_13
REMARK    7  A    between atoms: C_14  and  C_16
REMARK                            x       y       z     vdW  Elec       q    Type
REMARK                         _______ _______ _______ _____ _____    ______ ____
ROOT
ATOM      1  C   UNL     1      49.410   5.485  16.997  0.00  0.00    +0.000 A 
ATOM      2  N   UNL     1      50.033   6.449  16.288  0.00  0.00    +0.000 NA
ATOM      3  C   UNL     1      49.452   6.818  15.128  0.00  0.00    +0.000 A 
ATOM      4  C   UNL     1      48.280   6.273  14.643  0.00  0.00    +0.000 A 
ATOM      5  C   UNL     1      47.717   5.310  15.451  0.00  0.00    +0.000 A 
ATOM      6  N   UNL     1      48.251   4.902  16.624  0.00  0.00    +0.000 NA
ENDROOT
BRANCH   1   7
ATOM      7  C   UNL     1      50.121   4.931  18.207  0.00  0.00    +0.000 C 
BRANCH   7  11
ATOM      8  C   UNL     1      52.657   1.522  17.789  0.00  0.00    +0.000 A 
ATOM      9  C   UNL     1      51.347   1.438  17.329  0.00  0.00    +0.000 A 
ATOM     10  C   UNL     1      50.525   2.560  17.421  0.00  0.00    +0.000 A 
ATOM     11  C   UNL     1      51.016   3.742  17.975  0.00  0.00    +0.000 A 
ATOM     12  C   UNL     1      52.343   3.741  18.391  0.00  0.00    +0.000 A 
ATOM     13  N   UNL     1      53.169   2.661  18.307  0.00  0.00    +0.000 NA
BRANCH   8  14
ATOM     14  C   UNL     1      53.557   0.305  17.757  0.00  0.00    +0.000 C 
BRANCH  14  15
ATOM     15  N   UNL     1      54.294   0.101  19.008  0.00  0.00    +0.000 NA
ATOM     16  H   UNL     1      55.084   0.741  19.024  0.00  0.00    +0.000 HD
ATOM     17  H   UNL     1      54.695  -0.838  18.981  0.00  0.00    +0.000 HD
ENDBRANCH  14  15
ENDBRANCH   8  14
ENDBRANCH   7  11
ENDBRANCH   1   7
BRANCH   4  18
ATOM     18  C   UNL     1      47.689   6.695  13.338  0.00  0.00    +0.000 C 
BRANCH  18  19
ATOM     19  N   UNL     1      46.877   5.666  12.736  0.00  0.00    +0.000 N 
ATOM     20  C   UNL     1      45.619   5.968  12.265  0.00  0.00    +0.000 C 
ATOM     21  O   UNL     1      45.138   7.091  12.401  0.00  0.00    +0.000 OA
ATOM     22  H   UNL     1      47.350   4.845  12.365  0.00  0.00    +0.000 HD
BRANCH  20  23
ATOM     23  C   UNL     1      44.845   4.870  11.674  0.00  0.00    +0.000 A 
ATOM     24  C   UNL     1      43.872   4.211  12.418  0.00  0.00    +0.000 A 
ATOM     25  S   UNL     1      43.355   2.749  11.697  0.00  0.00    +0.000 S 
ATOM     26  C   UNL     1      44.347   3.010  10.339  0.00  0.00    +0.000 A 
ATOM     27  N   UNL     1      44.494   2.073   9.365  0.00  0.00    +0.000 NA
ATOM     28  C   UNL     1      45.233   2.447   8.373  0.00  0.00    +0.000 A 
ATOM     29  N   UNL     1      45.790   3.695   8.239  0.00  0.00    +0.000 N 
ATOM     30  C   UNL     1      45.636   4.678   9.181  0.00  0.00    +0.000 A 
ATOM     31  O   UNL     1      46.034   5.825   8.997  0.00  0.00    +0.000 OA
ATOM     32  C   UNL     1      44.942   4.256  10.378  0.00  0.00    +0.000 A 
ATOM     33  H   UNL     1      46.278   3.954   7.394  0.00  0.00    +0.000 HD
ENDBRANCH  20  23
ENDBRANCH  18  19
ENDBRANCH   4  18
TORSDOF 7
ENDMDL
