MODEL 1
REMARK VINA RESULT:    -7.840      0.000      0.000
REMARK INTER + INTRA:         -12.097
REMARK INTER:                 -11.048
REMARK INTRA:                  -1.049
REMARK UNBOUND:                -1.049
REMARK  Name = 
REMARK  7 active torsions:
REMARK  status: ('A' for Active; 'I' for Inactive)
REMARK    1  A    between atoms: C_2  and  C_19
REMARK    2  A    between atoms: N_3  and  C_4
REMARK    3  A    between atoms: C_4  and  C_5
REMARK    4  A    between atoms: C_8  and  O_9
REMARK    5  A    between atoms: O_9  and  C_10
REMARK    6  A    between atoms: C_10  and  C_11
REMARK    7  A    between atoms: C_11  and  N_12
REMARK                            x       y       z     vdW  Elec       q    Type
REMARK                         _______ _______ _______ _____ _____    ______ ____
ROOT
ATOM      1  O   UNL     1      48.819   6.366  12.965  0.00  0.00    +0.000 OA
ATOM      2  C   UNL     1      48.224   6.643  14.004  0.00  0.00    +0.000 C 
ATOM      3  N   UNL     1      46.943   7.123  14.019  0.00  0.00    +0.000 N 
ATOM      4  H   UNL     1      46.565   7.485  14.886  0.00  0.00    +0.000 HD
ENDROOT
BRANCH   2   5
ATOM      5  C   UNL     1      48.835   6.417  15.319  0.00  0.00    +0.000 A 
ATOM      6  C   UNL     1      49.868   7.229  15.767  0.00  0.00    +0.000 A 
ATOM      7  S   UNL     1      50.462   6.787  17.306  0.00  0.00    +0.000 S 
ATOM      8  C   UNL     1      49.327   5.526  17.444  0.00  0.00    +0.000 A 
ATOM      9  N   UNL     1      49.272   4.745  18.555  0.00  0.00    +0.000 NA
ATOM     10  C   UNL     1      48.327   3.859  18.542  0.00  0.00    +0.000 A 
ATOM     11  N   UNL     1      47.439   3.682  17.513  0.00  0.00    +0.000 N 
ATOM     12  C   UNL     1      47.520   4.381  16.339  0.00  0.00    +0.000 A 
ATOM     13  O   UNL     1      46.816   4.071  15.376  0.00  0.00    +0.000 OA
ATOM     14  C   UNL     1      48.524   5.425  16.326  0.00  0.00    +0.000 A 
ATOM     15  H   UNL     1      46.748   2.947  17.543  0.00  0.00    +0.000 HD
ENDBRANCH   2   5
BRANCH   3  16
ATOM     16  C   UNL     1      46.203   7.461  12.832  0.00  0.00    +0.000 C 
BRANCH  16  17
ATOM     17  C   UNL     1      45.587   6.250  12.178  0.00  0.00    +0.000 A 
ATOM     18  C   UNL     1      45.689   6.081  10.792  0.00  0.00    +0.000 A 
ATOM     19  C   UNL     1      45.156   4.949  10.164  0.00  0.00    +0.000 A 
ATOM     20  C   UNL     1      44.502   3.970  10.910  0.00  0.00    +0.000 A 
ATOM     21  C   UNL     1      44.362   4.152  12.288  0.00  0.00    +0.000 A 
ATOM     22  C   UNL     1      44.898   5.282  12.921  0.00  0.00    +0.000 A 
BRANCH  20  23
ATOM     23  O   UNL     1      43.919   2.839  10.396  0.00  0.00    +0.000 OA
BRANCH  23  24
ATOM     24  C   UNL     1      44.153   2.594   9.004  0.00  0.00    +0.000 C 
BRANCH  24  25
ATOM     25  C   UNL     1      45.384   1.679   8.843  0.00  0.00    +0.000 C 
BRANCH  25  26
ATOM     26  N   UNL     1      46.366   2.169   7.882  0.00  0.00    +0.000 NA
ATOM     27  C   UNL     1      47.137   1.143   7.186  0.00  0.00    +0.000 C 
ATOM     28  C   UNL     1      48.039   2.047   6.365  0.00  0.00    +0.000 C 
ATOM     29  C   UNL     1      47.082   3.123   5.860  0.00  0.00    +0.000 C 
ATOM     30  C   UNL     1      45.929   3.121   6.866  0.00  0.00    +0.000 C 
ENDBRANCH  25  26
ENDBRANCH  24  25
ENDBRANCH  23  24
ENDBRANCH  20  23
ENDBRANCH  16  17
ENDBRANCH   3  16
TORSDOF 7
ENDMDL
MODEL 2
REMARK VINA RESULT:    -7.803      0.575      1.298
REMARK INTER + INTRA:         -12.046
REMARK INTER:                 -11.124
REMARK INTRA:                  -0.922
REMARK UNBOUND:                -1.049
REMARK  Name = 
REMARK  7 active torsions:
REMARK  status: ('A' for Active; 'I' for Inactive)
REMARK    1  A    between atoms: C_2  and  C_19
REMARK    2  A    between atoms: N_3  and  C_4
REMARK    3  A    between atoms: C_4  and  C_5
REMARK    4  A    between atoms: C_8  and  O_9
REMARK    5  A    between atoms: O_9  and  C_10
REMARK    6  A    between atoms: C_10  and  C_11
REMARK    7  A    between atoms: C_11  and  N_12
REMARK                            x       y       z     vdW  Elec       q    Type
REMARK                         _______ _______ _______ _____ _____    ______ ____
ROOT
ATOM      1  O   UNL     1      49.448   6.803  13.631  0.00  0.00    +0.000 OA
ATOM      2  C   UNL     1      48.615   6.754  14.532  0.00  0.00    +0.000 C 
ATOM      3  N   UNL     1      47.274   6.913  14.311  0.00  0.00    +0.000 N 
ATOM      4  H   UNL     1      46.656   7.026  15.105  0.00  0.00    +0.000 HD
ENDROOT
BRANCH   2   5
ATOM      5  C   UNL     1      49.001   6.457  15.917  0.00  0.00    +0.000 A 
ATOM      6  C   UNL     1      49.727   7.377  16.660  0.00  0.00    +0.000 A 
ATOM      7  S   UNL     1      50.102   6.834  18.235  0.00  0.00    +0.000 S 
ATOM      8  C   UNL     1      49.265   5.372  17.991  0.00  0.00    +0.000 A 
ATOM      9  N   UNL     1      49.174   4.439  18.975  0.00  0.00    +0.000 NA
ATOM     10  C   UNL     1      48.466   3.399  18.665  0.00  0.00    +0.000 A 
ATOM     11  N   UNL     1      47.849   3.210  17.456  0.00  0.00    +0.000 N 
ATOM     12  C   UNL     1      47.995   4.078  16.408  0.00  0.00    +0.000 A 
ATOM     13  O   UNL     1      47.570   3.785  15.289  0.00  0.00    +0.000 OA
ATOM     14  C   UNL     1      48.730   5.286  16.722  0.00  0.00    +0.000 A 
ATOM     15  H   UNL     1      47.342   2.360  17.258  0.00  0.00    +0.000 HD
ENDBRANCH   2   5
BRANCH   3  16
ATOM     16  C   UNL     1      46.712   7.266  13.034  0.00  0.00    +0.000 C 
BRANCH  16  17
ATOM     17  C   UNL     1      46.036   6.095  12.364  0.00  0.00    +0.000 A 
ATOM     18  C   UNL     1      45.599   5.011  13.134  0.00  0.00    +0.000 A 
ATOM     19  C   UNL     1      44.939   3.928  12.542  0.00  0.00    +0.000 A 
ATOM     20  C   UNL     1      44.713   3.905  11.167  0.00  0.00    +0.000 A 
ATOM     21  C   UNL     1      45.183   4.965  10.387  0.00  0.00    +0.000 A 
ATOM     22  C   UNL     1      45.841   6.053  10.978  0.00  0.00    +0.000 A 
BRANCH  20  23
ATOM     23  O   UNL     1      44.104   2.885  10.480  0.00  0.00    +0.000 OA
BRANCH  23  24
ATOM     24  C   UNL     1      44.375   2.830   9.074  0.00  0.00    +0.000 C 
BRANCH  24  25
ATOM     25  C   UNL     1      45.494   1.803   8.807  0.00  0.00    +0.000 C 
BRANCH  25  26
ATOM     26  N   UNL     1      46.132   1.946   7.502  0.00  0.00    +0.000 NA
ATOM     27  C   UNL     1      46.163   3.300   6.958  0.00  0.00    +0.000 C 
ATOM     28  C   UNL     1      46.828   3.000   5.626  0.00  0.00    +0.000 C 
ATOM     29  C   UNL     1      47.940   2.027   6.007  0.00  0.00    +0.000 C 
ATOM     30  C   UNL     1      47.469   1.393   7.318  0.00  0.00    +0.000 C 
ENDBRANCH  25  26
ENDBRANCH  24  25
ENDBRANCH  23  24
ENDBRANCH  20  23
ENDBRANCH  16  17
ENDBRANCH   3  16
TORSDOF 7
ENDMDL
MODEL 3
REMARK VINA RESULT:    -7.186      2.590      3.100
REMARK INTER + INTRA:         -11.175
REMARK INTER:                 -10.209
REMARK INTRA:                  -0.966
REMARK UNBOUND:                -1.049
REMARK  Name = 
REMARK  7 active torsions:
REMARK  status: ('A' for Active; 'I' for Inactive)
REMARK    1  A    between atoms: C_2  and  C_19
REMARK    2  A    between atoms: N_3  and  C_4
REMARK    3  A    between atoms: C_4  and  C_5
REMARK    4  A    between atoms: C_8  and  O_9
REMARK    5  A    between atoms: O_9  and  C_10
REMARK    6  A    between atoms: C_10  and  C_11
REMARK    7  A    between atoms: C_11  and  N_12
REMARK                            x       y       z     vdW  Elec       q    Type
REMARK                         _______ _______ _______ _____ _____    ______ ____
ROOT
ATOM      1  O   UNL     1      49.975   5.902  15.921  0.00  0.00    +0.000 OA
ATOM      2  C   UNL     1      48.907   6.472  16.129  0.00  0.00    +0.000 C 
ATOM      3  N   UNL     1      48.048   6.828  15.126  0.00  0.00    +0.000 N 
ATOM      4  H   UNL     1      47.267   7.436  15.340  0.00  0.00    +0.000 HD
ENDROOT
BRANCH   2   5
ATOM      5  C   UNL     1      48.448   6.762  17.493  0.00  0.00    +0.000 A 
ATOM      6  C   UNL     1      48.342   5.746  18.433  0.00  0.00    +0.000 A 
ATOM      7  S   UNL     1      47.763   6.281  19.948  0.00  0.00    +0.000 S 
ATOM      8  C   UNL     1      47.682   7.894  19.412  0.00  0.00    +0.000 A 
ATOM      9  N   UNL     1      47.278   8.893  20.240  0.00  0.00    +0.000 NA
ATOM     10  C   UNL     1      47.314  10.075  19.711  0.00  0.00    +0.000 A 
ATOM     11  N   UNL     1      47.711  10.343  18.427  0.00  0.00    +0.000 N 
ATOM     12  C   UNL     1      48.033   9.358  17.533  0.00  0.00    +0.000 A 
ATOM     13  O   UNL     1      48.213   9.627  16.345  0.00  0.00    +0.000 OA
ATOM     14  C   UNL     1      48.065   8.022  18.092  0.00  0.00    +0.000 A 
ATOM     15  H   UNL     1      47.680  11.282  18.058  0.00  0.00    +0.000 HD
ENDBRANCH   2   5
BRANCH   3  16
ATOM     16  C   UNL     1      48.348   6.676  13.726  0.00  0.00    +0.000 C 
BRANCH  16  17
ATOM     17  C   UNL     1      47.216   6.035  12.964  0.00  0.00    +0.000 A 
ATOM     18  C   UNL     1      46.811   6.573  11.737  0.00  0.00    +0.000 A 
ATOM     19  C   UNL     1      45.786   5.978  10.993  0.00  0.00    +0.000 A 
ATOM     20  C   UNL     1      45.139   4.838  11.469  0.00  0.00    +0.000 A 
ATOM     21  C   UNL     1      45.510   4.320  12.712  0.00  0.00    +0.000 A 
ATOM     22  C   UNL     1      46.540   4.912  13.458  0.00  0.00    +0.000 A 
BRANCH  20  23
ATOM     23  O   UNL     1      44.106   4.192  10.838  0.00  0.00    +0.000 OA
BRANCH  23  24
ATOM     24  C   UNL     1      44.308   3.899   9.450  0.00  0.00    +0.000 C 
BRANCH  24  25
ATOM     25  C   UNL     1      45.015   2.535   9.311  0.00  0.00    +0.000 C 
BRANCH  25  26
ATOM     26  N   UNL     1      46.083   2.520   8.316  0.00  0.00    +0.000 NA
ATOM     27  C   UNL     1      46.526   1.199   7.885  0.00  0.00    +0.000 C 
ATOM     28  C   UNL     1      47.635   1.623   6.938  0.00  0.00    +0.000 C 
ATOM     29  C   UNL     1      47.013   2.790   6.178  0.00  0.00    +0.000 C 
ATOM     30  C   UNL     1      45.918   3.319   7.107  0.00  0.00    +0.000 C 
ENDBRANCH  25  26
ENDBRANCH  24  25
ENDBRANCH  23  24
ENDBRANCH  20  23
ENDBRANCH  16  17
ENDBRANCH   3  16
TORSDOF 7
ENDMDL
MODEL 4
REMARK VINA RESULT:    -7.110      2.039      2.264
REMARK INTER + INTRA:         -11.069
REMARK INTER:                 -10.337
REMARK INTRA:                  -0.732
REMARK UNBOUND:                -1.049
REMARK  Name = 
REMARK  7 active torsions:
REMARK  status: ('A' for Active; 'I' for Inactive)
REMARK    1  A    between atoms: C_2  and  C_19
REMARK    2  A    between atoms: N_3  and  C_4
REMARK    3  A    between atoms: C_4  and  C_5
REMARK    4  A    between atoms: C_8  and  O_9
REMARK    5  A    between atoms: O_9  and  C_10
REMARK    6  A    between atoms: C_10  and  C_11
REMARK    7  A    between atoms: C_11  and  N_12
REMARK                            x       y       z     vdW  Elec       q    Type
REMARK                         _______ _______ _______ _____ _____    ______ ____
ROOT
ATOM      1  O   UNL     1      49.782   5.941  15.884  0.00  0.00    +0.000 OA
ATOM      2  C   UNL     1      48.917   6.808  15.971  0.00  0.00    +0.000 C 
ATOM      3  N   UNL     1      48.196   7.248  14.895  0.00  0.00    +0.000 N 
ATOM      4  H   UNL     1      47.617   8.072  14.995  0.00  0.00    +0.000 HD
ENDROOT
BRANCH   2   5
ATOM      5  C   UNL     1      48.552   7.398  17.265  0.00  0.00    +0.000 A 
ATOM      6  C   UNL     1      48.539   8.776  17.435  0.00  0.00    +0.000 A 
ATOM      7  S   UNL     1      48.117   9.261  19.016  0.00  0.00    +0.000 S 
ATOM      8  C   UNL     1      47.891   7.649  19.513  0.00  0.00    +0.000 A 
ATOM      9  N   UNL     1      47.494   7.349  20.777  0.00  0.00    +0.000 NA
ATOM     10  C   UNL     1      47.315   6.085  20.998  0.00  0.00    +0.000 A 
ATOM     11  N   UNL     1      47.505   5.098  20.067  0.00  0.00    +0.000 N 
ATOM     12  C   UNL     1      47.996   5.347  18.814  0.00  0.00    +0.000 A 
ATOM     13  O   UNL     1      48.317   4.419  18.071  0.00  0.00    +0.000 OA
ATOM     14  C   UNL     1      48.157   6.752  18.498  0.00  0.00    +0.000 A 
ATOM     15  H   UNL     1      47.388   4.125  20.309  0.00  0.00    +0.000 HD
ENDBRANCH   2   5
BRANCH   3  16
ATOM     16  C   UNL     1      48.448   6.829  13.541  0.00  0.00    +0.000 C 
BRANCH  16  17
ATOM     17  C   UNL     1      47.259   6.134  12.926  0.00  0.00    +0.000 A 
ATOM     18  C   UNL     1      46.800   6.527  11.664  0.00  0.00    +0.000 A 
ATOM     19  C   UNL     1      45.721   5.877  11.056  0.00  0.00    +0.000 A 
ATOM     20  C   UNL     1      45.072   4.827  11.705  0.00  0.00    +0.000 A 
ATOM     21  C   UNL     1      45.498   4.457  12.983  0.00  0.00    +0.000 A 
ATOM     22  C   UNL     1      46.583   5.104  13.593  0.00  0.00    +0.000 A 
BRANCH  20  23
ATOM     23  O   UNL     1      43.989   4.141  11.216  0.00  0.00    +0.000 OA
BRANCH  23  24
ATOM     24  C   UNL     1      44.055   3.776   9.832  0.00  0.00    +0.000 C 
BRANCH  24  25
ATOM     25  C   UNL     1      44.883   2.484   9.680  0.00  0.00    +0.000 C 
BRANCH  25  26
ATOM     26  N   UNL     1      45.919   2.560   8.655  0.00  0.00    +0.000 NA
ATOM     27  C   UNL     1      46.319   1.288   8.064  0.00  0.00    +0.000 C 
ATOM     28  C   UNL     1      47.407   1.795   7.134  0.00  0.00    +0.000 C 
ATOM     29  C   UNL     1      46.786   3.051   6.530  0.00  0.00    +0.000 C 
ATOM     30  C   UNL     1      45.733   3.493   7.548  0.00  0.00    +0.000 C 
ENDBRANCH  25  26
ENDBRANCH  24  25
ENDBRANCH  23  24
ENDBRANCH  20  23
ENDBRANCH  16  17
ENDBRANCH   3  16
TORSDOF 7
ENDMDL
MODEL 5
REMARK VINA RESULT:    -6.726      3.226      7.956
REMARK INTER + INTRA:         -10.527
REMARK INTER:                  -9.439
REMARK INTRA:                  -1.088
REMARK UNBOUND:                -1.049
REMARK  Name = 
REMARK  7 active torsions:
REMARK  status: ('A' for Active; 'I' for Inactive)
REMARK    1  A    between atoms: C_2  and  C_19
REMARK    2  A    between atoms: N_3  and  C_4
REMARK    3  A    between atoms: C_4  and  C_5
REMARK    4  A    between atoms: C_8  and  O_9
REMARK    5  A    between atoms: O_9  and  C_10
REMARK    6  A    between atoms: C_10  and  C_11
REMARK    7  A    between atoms: C_11  and  N_12
REMARK                            x       y       z     vdW  Elec       q    Type
REMARK                         _______ _______ _______ _____ _____    ______ ____
ROOT
ATOM      1  O   UNL     1      45.513   7.825  11.879  0.00  0.00    +0.000 OA
ATOM      2  C   UNL     1      46.218   6.929  11.420  0.00  0.00    +0.000 C 
ATOM      3  N   UNL     1      47.582   6.935  11.518  0.00  0.00    +0.000 N 
ATOM      4  H   UNL     1      48.116   6.261  10.984  0.00  0.00    +0.000 HD
ENDROOT
BRANCH   2   5
ATOM      5  C   UNL     1      45.631   5.745  10.780  0.00  0.00    +0.000 A 
ATOM      6  C   UNL     1      45.840   5.496   9.430  0.00  0.00    +0.000 A 
ATOM      7  S   UNL     1      45.051   4.090   8.869  0.00  0.00    +0.000 S 
ATOM      8  C   UNL     1      44.445   3.742  10.421  0.00  0.00    +0.000 A 
ATOM      9  N   UNL     1      43.689   2.636  10.652  0.00  0.00    +0.000 NA
ATOM     10  C   UNL     1      43.340   2.474  11.888  0.00  0.00    +0.000 A 
ATOM     11  N   UNL     1      43.674   3.323  12.911  0.00  0.00    +0.000 N 
ATOM     12  C   UNL     1      44.350   4.495  12.706  0.00  0.00    +0.000 A 
ATOM     13  O   UNL     1      44.477   5.312  13.619  0.00  0.00    +0.000 OA
ATOM     14  C   UNL     1      44.815   4.695  11.348  0.00  0.00    +0.000 A 
ATOM     15  H   UNL     1      43.339   3.165  13.849  0.00  0.00    +0.000 HD
ENDBRANCH   2   5
BRANCH   3  16
ATOM     16  C   UNL     1      48.339   8.033  12.060  0.00  0.00    +0.000 C 
BRANCH  16  17
ATOM     17  C   UNL     1      49.001   7.680  13.369  0.00  0.00    +0.000 A 
ATOM     18  C   UNL     1      50.336   8.036  13.591  0.00  0.00    +0.000 A 
ATOM     19  C   UNL     1      50.964   7.751  14.808  0.00  0.00    +0.000 A 
ATOM     20  C   UNL     1      50.270   7.094  15.824  0.00  0.00    +0.000 A 
ATOM     21  C   UNL     1      48.950   6.700  15.594  0.00  0.00    +0.000 A 
ATOM     22  C   UNL     1      48.317   6.988  14.377  0.00  0.00    +0.000 A 
BRANCH  20  23
ATOM     23  O   UNL     1      50.794   6.741  17.042  0.00  0.00    +0.000 OA
BRANCH  23  24
ATOM     24  C   UNL     1      51.764   5.685  17.021  0.00  0.00    +0.000 C 
BRANCH  24  25
ATOM     25  C   UNL     1      51.265   4.515  17.893  0.00  0.00    +0.000 C 
BRANCH  25  26
ATOM     26  N   UNL     1      50.115   3.809  17.338  0.00  0.00    +0.000 NA
ATOM     27  C   UNL     1      50.288   2.374  17.140  0.00  0.00    +0.000 C 
ATOM     28  C   UNL     1      48.939   2.060  16.518  0.00  0.00    +0.000 C 
ATOM     29  C   UNL     1      47.968   2.862  17.379  0.00  0.00    +0.000 C 
ATOM     30  C   UNL     1      48.815   3.987  17.977  0.00  0.00    +0.000 C 
ENDBRANCH  25  26
ENDBRANCH  24  25
ENDBRANCH  23  24
ENDBRANCH  20  23
ENDBRANCH  16  17
ENDBRANCH   3  16
TORSDOF 7
ENDMDL
MODEL 6
REMARK VINA RESULT:    -6.700      1.950      2.801
REMARK INTER + INTRA:         -10.491
REMARK INTER:                  -9.842
REMARK INTRA:                  -0.649
REMARK UNBOUND:                -1.049
REMARK  Name = 
REMARK  7 active torsions:
REMARK  status: ('A' for Active; 'I' for Inactive)
REMARK    1  A    between atoms: C_2  and  C_19
REMARK    2  A    between atoms: N_3  and  C_4
REMARK    3  A    between atoms: C_4  and  C_5
REMARK    4  A    between atoms: C_8  and  O_9
REMARK    5  A    between atoms: O_9  and  C_10
REMARK    6  A    between atoms: C_10  and  C_11
REMARK    7  A    between atoms: C_11  and  N_12
REMARK                            x       y       z     vdW  Elec       q    Type
REMARK                         _______ _______ _______ _____ _____    ______ ____
ROOT
ATOM      1  O   UNL     1      49.021   8.299  15.882  0.00  0.00    +0.000 OA
ATOM      2  C   UNL     1      48.770   7.098  15.834  0.00  0.00    +0.000 C 
ATOM      3  N   UNL     1      48.122   6.518  14.779  0.00  0.00    +0.000 N 
ATOM      4  H   UNL     1      47.799   5.562  14.866  0.00  0.00    +0.000 HD
ENDROOT
BRANCH   2   5
ATOM      5  C   UNL     1      49.208   6.181  16.894  0.00  0.00    +0.000 A 
ATOM      6  C   UNL     1      48.281   5.576  17.732  0.00  0.00    +0.000 A 
ATOM      7  S   UNL     1      48.990   4.570  18.915  0.00  0.00    +0.000 S 
ATOM      8  C   UNL     1      50.555   4.872  18.316  0.00  0.00    +0.000 A 
ATOM      9  N   UNL     1      51.648   4.288  18.873  0.00  0.00    +0.000 NA
ATOM     10  C   UNL     1      52.766   4.571  18.283  0.00  0.00    +0.000 A 
ATOM     11  N   UNL     1      52.886   5.390  17.191  0.00  0.00    +0.000 N 
ATOM     12  C   UNL     1      51.825   6.072  16.660  0.00  0.00    +0.000 A 
ATOM     13  O   UNL     1      52.003   6.930  15.794  0.00  0.00    +0.000 OA
ATOM     14  C   UNL     1      50.542   5.746  17.248  0.00  0.00    +0.000 A 
ATOM     15  H   UNL     1      53.790   5.605  16.799  0.00  0.00    +0.000 HD
ENDBRANCH   2   5
BRANCH   3  16
ATOM     16  C   UNL     1      47.569   7.259  13.676  0.00  0.00    +0.000 C 
BRANCH  16  17
ATOM     17  C   UNL     1      46.589   6.443  12.871  0.00  0.00    +0.000 A 
ATOM     18  C   UNL     1      46.225   5.164  13.309  0.00  0.00    +0.000 A 
ATOM     19  C   UNL     1      45.292   4.399  12.600  0.00  0.00    +0.000 A 
ATOM     20  C   UNL     1      44.714   4.895  11.432  0.00  0.00    +0.000 A 
ATOM     21  C   UNL     1      45.104   6.153  10.967  0.00  0.00    +0.000 A 
ATOM     22  C   UNL     1      46.035   6.924  11.678  0.00  0.00    +0.000 A 
BRANCH  20  23
ATOM     23  O   UNL     1      43.815   4.221  10.645  0.00  0.00    +0.000 OA
BRANCH  23  24
ATOM     24  C   UNL     1      44.360   3.180   9.825  0.00  0.00    +0.000 C 
BRANCH  24  25
ATOM     25  C   UNL     1      44.685   3.745   8.427  0.00  0.00    +0.000 C 
BRANCH  25  26
ATOM     26  N   UNL     1      45.560   2.890   7.631  0.00  0.00    +0.000 NA
ATOM     27  C   UNL     1      46.682   3.561   6.984  0.00  0.00    +0.000 C 
ATOM     28  C   UNL     1      47.271   2.372   6.246  0.00  0.00    +0.000 C 
ATOM     29  C   UNL     1      47.211   1.257   7.286  0.00  0.00    +0.000 C 
ATOM     30  C   UNL     1      46.098   1.682   8.247  0.00  0.00    +0.000 C 
ENDBRANCH  25  26
ENDBRANCH  24  25
ENDBRANCH  23  24
ENDBRANCH  20  23
ENDBRANCH  16  17
ENDBRANCH   3  16
TORSDOF 7
ENDMDL
MODEL 7
REMARK VINA RESULT:    -6.631      4.856      8.785
REMARK INTER + INTRA:         -10.394
REMARK INTER:                  -9.535
REMARK INTRA:                  -0.859
REMARK UNBOUND:                -1.049
REMARK  Name = 
REMARK  7 active torsions:
REMARK  status: ('A' for Active; 'I' for Inactive)
REMARK    1  A    between atoms: C_2  and  C_19
REMARK    2  A    between atoms: N_3  and  C_4
REMARK    3  A    between atoms: C_4  and  C_5
REMARK    4  A    between atoms: C_8  and  O_9
REMARK    5  A    between atoms: O_9  and  C_10
REMARK    6  A    between atoms: C_10  and  C_11
REMARK    7  A    between atoms: C_11  and  N_12
REMARK                            x       y       z     vdW  Elec       q    Type
REMARK                         _______ _______ _______ _____ _____    ______ ____
ROOT
ATOM      1  O   UNL     1      49.458   6.644  14.570  0.00  0.00    +0.000 OA
ATOM      2  C   UNL     1      48.313   6.268  14.809  0.00  0.00    +0.000 C 
ATOM      3  N   UNL     1      47.896   5.912  16.062  0.00  0.00    +0.000 N 
ATOM      4  H   UNL     1      46.997   5.458  16.170  0.00  0.00    +0.000 HD
ENDROOT
BRANCH   2   5
ATOM      5  C   UNL     1      47.286   6.230  13.761  0.00  0.00    +0.000 A 
ATOM      6  C   UNL     1      46.883   7.398  13.126  0.00  0.00    +0.000 A 
ATOM      7  S   UNL     1      45.660   7.148  11.961  0.00  0.00    +0.000 S 
ATOM      8  C   UNL     1      45.663   5.468  12.233  0.00  0.00    +0.000 A 
ATOM      9  N   UNL     1      44.848   4.638  11.531  0.00  0.00    +0.000 NA
ATOM     10  C   UNL     1      44.994   3.381  11.808  0.00  0.00    +0.000 A 
ATOM     11  N   UNL     1      45.878   2.885  12.730  0.00  0.00    +0.000 N 
ATOM     12  C   UNL     1      46.647   3.691  13.526  0.00  0.00    +0.000 A 
ATOM     13  O   UNL     1      47.295   3.215  14.458  0.00  0.00    +0.000 OA
ATOM     14  C   UNL     1      46.563   5.103  13.214  0.00  0.00    +0.000 A 
ATOM     15  H   UNL     1      45.919   1.897  12.932  0.00  0.00    +0.000 HD
ENDBRANCH   2   5
BRANCH   3  16
ATOM     16  C   UNL     1      48.771   5.832  17.202  0.00  0.00    +0.000 C 
BRANCH  16  17
ATOM     17  C   UNL     1      49.539   4.534  17.244  0.00  0.00    +0.000 A 
ATOM     18  C   UNL     1      50.915   4.549  17.496  0.00  0.00    +0.000 A 
ATOM     19  C   UNL     1      51.645   3.357  17.574  0.00  0.00    +0.000 A 
ATOM     20  C   UNL     1      51.013   2.128  17.390  0.00  0.00    +0.000 A 
ATOM     21  C   UNL     1      49.647   2.109  17.098  0.00  0.00    +0.000 A 
ATOM     22  C   UNL     1      48.912   3.301  17.024  0.00  0.00    +0.000 A 
BRANCH  20  23
ATOM     23  O   UNL     1      51.634   0.905  17.416  0.00  0.00    +0.000 OA
BRANCH  23  24
ATOM     24  C   UNL     1      52.948   0.885  17.987  0.00  0.00    +0.000 C 
BRANCH  24  25
ATOM     25  C   UNL     1      53.954   0.359  16.942  0.00  0.00    +0.000 C 
BRANCH  25  26
ATOM     26  N   UNL     1      54.718  -0.802  17.387  0.00  0.00    +0.000 NA
ATOM     27  C   UNL     1      54.236  -1.449  18.602  0.00  0.00    +0.000 C 
ATOM     28  C   UNL     1      55.304  -2.521  18.734  0.00  0.00    +0.000 C 
ATOM     29  C   UNL     1      55.465  -3.026  17.304  0.00  0.00    +0.000 C 
ATOM     30  C   UNL     1      54.986  -1.867  16.426  0.00  0.00    +0.000 C 
ENDBRANCH  25  26
ENDBRANCH  24  25
ENDBRANCH  23  24
ENDBRANCH  20  23
ENDBRANCH  16  17
ENDBRANCH   3  16
TORSDOF 7
ENDMDL
MODEL 8
REMARK VINA RESULT:    -6.538      2.901      8.338
REMARK INTER + INTRA:         -10.262
REMARK INTER:                  -9.169
REMARK INTRA:                  -1.093
REMARK UNBOUND:                -1.049
REMARK  Name = 
REMARK  7 active torsions:
REMARK  status: ('A' for Active; 'I' for Inactive)
REMARK    1  A    between atoms: C_2  and  C_19
REMARK    2  A    between atoms: N_3  and  C_4
REMARK    3  A    between atoms: C_4  and  C_5
REMARK    4  A    between atoms: C_8  and  O_9
REMARK    5  A    between atoms: O_9  and  C_10
REMARK    6  A    between atoms: C_10  and  C_11
REMARK    7  A    between atoms: C_11  and  N_12
REMARK                            x       y       z     vdW  Elec       q    Type
REMARK                         _______ _______ _______ _____ _____    ______ ____
ROOT
ATOM      1  O   UNL     1      44.665   7.575  11.777  0.00  0.00    +0.000 OA
ATOM      2  C   UNL     1      45.380   6.594  11.592  0.00  0.00    +0.000 C 
ATOM      3  N   UNL     1      46.746   6.653  11.636  0.00  0.00    +0.000 N 
ATOM      4  H   UNL     1      47.283   5.856  11.316  0.00  0.00    +0.000 HD
ENDROOT
BRANCH   2   5
ATOM      5  C   UNL     1      44.808   5.261  11.365  0.00  0.00    +0.000 A 
ATOM      6  C   UNL     1      44.033   4.650  12.343  0.00  0.00    +0.000 A 
ATOM      7  S   UNL     1      43.485   3.095  11.901  0.00  0.00    +0.000 S 
ATOM      8  C   UNL     1      44.224   3.206  10.372  0.00  0.00    +0.000 A 
ATOM      9  N   UNL     1      44.123   2.200   9.464  0.00  0.00    +0.000 NA
ATOM     10  C   UNL     1      44.693   2.444   8.326  0.00  0.00    +0.000 A 
ATOM     11  N   UNL     1      45.360   3.602   8.022  0.00  0.00    +0.000 N 
ATOM     12  C   UNL     1      45.568   4.597   8.938  0.00  0.00    +0.000 A 
ATOM     13  O   UNL     1      46.320   5.538   8.679  0.00  0.00    +0.000 OA
ATOM     14  C   UNL     1      44.900   4.398  10.208  0.00  0.00    +0.000 A 
ATOM     15  H   UNL     1      45.819   3.719   7.131  0.00  0.00    +0.000 HD
ENDBRANCH   2   5
BRANCH   3  16
ATOM     16  C   UNL     1      47.488   7.877  11.789  0.00  0.00    +0.000 C 
BRANCH  16  17
ATOM     17  C   UNL     1      48.220   7.941  13.107  0.00  0.00    +0.000 A 
ATOM     18  C   UNL     1      47.686   8.687  14.163  0.00  0.00    +0.000 A 
ATOM     19  C   UNL     1      48.327   8.735  15.406  0.00  0.00    +0.000 A 
ATOM     20  C   UNL     1      49.521   8.046  15.612  0.00  0.00    +0.000 A 
ATOM     21  C   UNL     1      50.081   7.332  14.550  0.00  0.00    +0.000 A 
ATOM     22  C   UNL     1      49.438   7.278  13.304  0.00  0.00    +0.000 A 
BRANCH  20  23
ATOM     23  O   UNL     1      50.247   8.047  16.776  0.00  0.00    +0.000 OA
BRANCH  23  24
ATOM     24  C   UNL     1      49.762   7.186  17.815  0.00  0.00    +0.000 C 
BRANCH  24  25
ATOM     25  C   UNL     1      50.366   5.778  17.637  0.00  0.00    +0.000 C 
BRANCH  25  26
ATOM     26  N   UNL     1      49.411   4.777  17.173  0.00  0.00    +0.000 NA
ATOM     27  C   UNL     1      49.714   3.397  17.537  0.00  0.00    +0.000 C 
ATOM     28  C   UNL     1      48.554   2.712  16.837  0.00  0.00    +0.000 C 
ATOM     29  C   UNL     1      47.370   3.617  17.163  0.00  0.00    +0.000 C 
ATOM     30  C   UNL     1      47.995   4.982  17.460  0.00  0.00    +0.000 C 
ENDBRANCH  25  26
ENDBRANCH  24  25
ENDBRANCH  23  24
ENDBRANCH  20  23
ENDBRANCH  16  17
ENDBRANCH   3  16
TORSDOF 7
ENDMDL
MODEL 9
REMARK VINA RESULT:    -6.471      3.709      8.365
REMARK INTER + INTRA:         -10.168
REMARK INTER:                  -8.671
REMARK INTRA:                  -1.497
REMARK UNBOUND:                -1.049
REMARK  Name = 
REMARK  7 active torsions:
REMARK  status: ('A' for Active; 'I' for Inactive)
REMARK    1  A    between atoms: C_2  and  C_19
REMARK    2  A    between atoms: N_3  and  C_4
REMARK    3  A    between atoms: C_4  and  C_5
REMARK    4  A    between atoms: C_8  and  O_9
REMARK    5  A    between atoms: O_9  and  C_10
REMARK    6  A    between atoms: C_10  and  C_11
REMARK    7  A    between atoms: C_11  and  N_12
REMARK                            x       y       z     vdW  Elec       q    Type
REMARK                         _______ _______ _______ _____ _____    ______ ____
ROOT
ATOM      1  O   UNL     1      48.878   6.245  12.870  0.00  0.00    +0.000 OA
ATOM      2  C   UNL     1      47.753   6.433  13.325  0.00  0.00    +0.000 C 
ATOM      3  N   UNL     1      47.457   7.468  14.169  0.00  0.00    +0.000 N 
ATOM      4  H   UNL     1      46.560   7.478  14.638  0.00  0.00    +0.000 HD
ENDROOT
BRANCH   2   5
ATOM      5  C   UNL     1      46.620   5.581  12.941  0.00  0.00    +0.000 A 
ATOM      6  C   UNL     1      46.640   4.218  13.207  0.00  0.00    +0.000 A 
ATOM      7  S   UNL     1      45.246   3.400  12.657  0.00  0.00    +0.000 S 
ATOM      8  C   UNL     1      44.550   4.846  12.091  0.00  0.00    +0.000 A 
ATOM      9  N   UNL     1      43.319   4.859  11.515  0.00  0.00    +0.000 NA
ATOM     10  C   UNL     1      42.897   6.036  11.177  0.00  0.00    +0.000 A 
ATOM     11  N   UNL     1      43.601   7.198  11.359  0.00  0.00    +0.000 N 
ATOM     12  C   UNL     1      44.880   7.219  11.845  0.00  0.00    +0.000 A 
ATOM     13  O   UNL     1      45.539   8.259  11.829  0.00  0.00    +0.000 OA
ATOM     14  C   UNL     1      45.376   5.933  12.292  0.00  0.00    +0.000 A 
ATOM     15  H   UNL     1      43.236   8.083  11.038  0.00  0.00    +0.000 HD
ENDBRANCH   2   5
BRANCH   3  16
ATOM     16  C   UNL     1      48.444   8.372  14.700  0.00  0.00    +0.000 C 
BRANCH  16  17
ATOM     17  C   UNL     1      49.028   7.881  16.001  0.00  0.00    +0.000 A 
ATOM     18  C   UNL     1      48.510   8.347  17.215  0.00  0.00    +0.000 A 
ATOM     19  C   UNL     1      49.011   7.882  18.436  0.00  0.00    +0.000 A 
ATOM     20  C   UNL     1      50.047   6.950  18.466  0.00  0.00    +0.000 A 
ATOM     21  C   UNL     1      50.595   6.511  17.258  0.00  0.00    +0.000 A 
ATOM     22  C   UNL     1      50.093   6.972  16.033  0.00  0.00    +0.000 A 
BRANCH  20  23
ATOM     23  O   UNL     1      50.631   6.449  19.602  0.00  0.00    +0.000 OA
BRANCH  23  24
ATOM     24  C   UNL     1      50.554   5.028  19.769  0.00  0.00    +0.000 C 
BRANCH  24  25
ATOM     25  C   UNL     1      49.082   4.616  19.981  0.00  0.00    +0.000 C 
BRANCH  25  26
ATOM     26  N   UNL     1      48.527   3.820  18.892  0.00  0.00    +0.000 NA
ATOM     27  C   UNL     1      47.525   4.487  18.068  0.00  0.00    +0.000 C 
ATOM     28  C   UNL     1      47.185   3.336  17.137  0.00  0.00    +0.000 C 
ATOM     29  C   UNL     1      48.552   2.747  16.804  0.00  0.00    +0.000 C 
ATOM     30  C   UNL     1      49.449   3.161  17.972  0.00  0.00    +0.000 C 
ENDBRANCH  25  26
ENDBRANCH  24  25
ENDBRANCH  23  24
ENDBRANCH  20  23
ENDBRANCH  16  17
ENDBRANCH   3  16
TORSDOF 7
ENDMDL
