MODEL 1
REMARK VINA RESULT:    -8.636      0.000      0.000
REMARK INTER + INTRA:         -13.981
REMARK INTER:                 -12.675
REMARK INTRA:                  -1.306
REMARK UNBOUND:                -1.306
REMARK  Name = 
REMARK  9 active torsions:
REMARK  status: ('A' for Active; 'I' for Inactive)
REMARK    1  A    between atoms: C_1  and  O_2
REMARK    2  A    between atoms: O_2  and  C_3
REMARK    3  A    between atoms: C_10  and  C_11
REMARK    4  A    between atoms: N_13  and  C_14
REMARK    5  A    between atoms: C_14  and  C_15
REMARK    6  A    between atoms: C_18  and  C_19
REMARK    7  A    between atoms: C_19  and  N_20
REMARK    8  A    between atoms: N_20  and  C_21
REMARK    9  A    between atoms: C_21  and  C_22
REMARK                            x       y       z     vdW  Elec       q    Type
REMARK                         _______ _______ _______ _____ _____    ______ ____
ROOT
ATOM      1  C   UNL     1      46.871   6.089  12.607  0.00  0.00    +0.000 A 
ATOM      2  C   UNL     1      46.288   6.414  11.374  0.00  0.00    +0.000 A 
ATOM      3  C   UNL     1      45.246   5.646  10.834  0.00  0.00    +0.000 A 
ATOM      4  C   UNL     1      44.808   4.471  11.457  0.00  0.00    +0.000 A 
ATOM      5  C   UNL     1      45.459   4.086  12.641  0.00  0.00    +0.000 A 
ATOM      6  C   UNL     1      46.463   4.896  13.221  0.00  0.00    +0.000 A 
ENDROOT
BRANCH   1   7
ATOM      7  C   UNL     1      47.893   7.029  13.217  0.00  0.00    +0.000 C 
BRANCH   7  10
ATOM      8  C   UNL     1      48.959   6.935  15.458  0.00  0.00    +0.000 C 
ATOM      9  O   UNL     1      50.053   6.743  14.952  0.00  0.00    +0.000 OA
ATOM     10  N   UNL     1      47.828   7.080  14.670  0.00  0.00    +0.000 N 
ATOM     11  H   UNL     1      46.931   7.219  15.108  0.00  0.00    +0.000 HD
BRANCH   8  19
ATOM     12  C   UNL     1      48.864   4.571  18.001  0.00  0.00    +0.000 A 
ATOM     13  N   UNL     1      48.813   3.891  19.169  0.00  0.00    +0.000 NA
ATOM     14  C   UNL     1      48.677   4.576  20.298  0.00  0.00    +0.000 A 
ATOM     15  N   UNL     1      48.575   5.891  20.417  0.00  0.00    +0.000 NA
ATOM     16  C   UNL     1      48.623   6.536  19.234  0.00  0.00    +0.000 A 
ATOM     17  S   UNL     1      48.486   8.225  19.205  0.00  0.00    +0.000 S 
ATOM     18  C   UNL     1      48.639   8.257  17.514  0.00  0.00    +0.000 A 
ATOM     19  C   UNL     1      48.799   7.000  16.933  0.00  0.00    +0.000 A 
ATOM     20  C   UNL     1      48.773   5.971  17.969  0.00  0.00    +0.000 A 
BRANCH  12  22
ATOM     21  C   UNL     1      47.720   3.350  16.414  0.00  0.00    +0.000 C 
ATOM     22  O   UNL     1      48.997   3.827  16.844  0.00  0.00    +0.000 OA
ENDBRANCH  12  22
ENDBRANCH   8  19
ENDBRANCH   7  10
ENDBRANCH   1   7
BRANCH   4  23
ATOM     23  C   UNL     1      43.661   3.657  10.865  0.00  0.00    +0.000 C 
BRANCH  23  24
ATOM     24  N   UNL     1      43.961   3.212   9.498  0.00  0.00    +0.000 NA
ATOM     25  H   UNL     1      44.297   4.021   8.975  0.00  0.00    +0.000 HD
BRANCH  24  26
ATOM     26  C   UNL     1      44.996   2.170   9.435  0.00  0.00    +0.000 C 
BRANCH  26  27
ATOM     27  C   UNL     1      45.814   2.292   8.164  0.00  0.00    +0.000 A 
ATOM     28  C   UNL     1      45.912   3.509   7.466  0.00  0.00    +0.000 A 
ATOM     29  C   UNL     1      46.718   3.614   6.326  0.00  0.00    +0.000 A 
ATOM     30  C   UNL     1      47.415   2.502   5.869  0.00  0.00    +0.000 A 
ATOM     31  F   UNL     1      48.199   2.611   4.790  0.00  0.00    +0.000 F 
ATOM     32  C   UNL     1      47.303   1.279   6.514  0.00  0.00    +0.000 A 
ATOM     33  C   UNL     1      46.504   1.184   7.648  0.00  0.00    +0.000 A 
ATOM     34  F   UNL     1      46.401  -0.006   8.257  0.00  0.00    +0.000 F 
ENDBRANCH  26  27
ENDBRANCH  24  26
ENDBRANCH  23  24
ENDBRANCH   4  23
TORSDOF 8
ENDMDL
MODEL 2
REMARK VINA RESULT:    -8.066      2.124      2.593
REMARK INTER + INTRA:         -13.145
REMARK INTER:                 -11.796
REMARK INTRA:                  -1.349
REMARK UNBOUND:                -1.306
REMARK  Name = 
REMARK  9 active torsions:
REMARK  status: ('A' for Active; 'I' for Inactive)
REMARK    1  A    between atoms: C_1  and  O_2
REMARK    2  A    between atoms: O_2  and  C_3
REMARK    3  A    between atoms: C_10  and  C_11
REMARK    4  A    between atoms: N_13  and  C_14
REMARK    5  A    between atoms: C_14  and  C_15
REMARK    6  A    between atoms: C_18  and  C_19
REMARK    7  A    between atoms: C_19  and  N_20
REMARK    8  A    between atoms: N_20  and  C_21
REMARK    9  A    between atoms: C_21  and  C_22
REMARK                            x       y       z     vdW  Elec       q    Type
REMARK                         _______ _______ _______ _____ _____    ______ ____
ROOT
ATOM      1  C   UNL     1      47.456   6.686  12.604  0.00  0.00    +0.000 A 
ATOM      2  C   UNL     1      47.269   5.612  13.483  0.00  0.00    +0.000 A 
ATOM      3  C   UNL     1      46.293   4.633  13.243  0.00  0.00    +0.000 A 
ATOM      4  C   UNL     1      45.405   4.738  12.166  0.00  0.00    +0.000 A 
ATOM      5  C   UNL     1      45.524   5.868  11.339  0.00  0.00    +0.000 A 
ATOM      6  C   UNL     1      46.550   6.820  11.542  0.00  0.00    +0.000 A 
ENDROOT
BRANCH   1   7
ATOM      7  C   UNL     1      48.617   7.638  12.829  0.00  0.00    +0.000 C 
BRANCH   7  10
ATOM      8  C   UNL     1      49.851   7.569  14.983  0.00  0.00    +0.000 C 
ATOM      9  O   UNL     1      49.176   8.486  15.422  0.00  0.00    +0.000 OA
ATOM     10  N   UNL     1      49.646   7.089  13.698  0.00  0.00    +0.000 N 
ATOM     11  H   UNL     1      50.226   6.344  13.348  0.00  0.00    +0.000 HD
BRANCH   8  19
ATOM     12  C   UNL     1      49.936   5.069  17.392  0.00  0.00    +0.000 A 
ATOM     13  N   UNL     1      50.266   4.140  18.319  0.00  0.00    +0.000 NA
ATOM     14  C   UNL     1      51.541   4.012  18.665  0.00  0.00    +0.000 A 
ATOM     15  N   UNL     1      52.561   4.715  18.198  0.00  0.00    +0.000 NA
ATOM     16  C   UNL     1      52.196   5.635  17.282  0.00  0.00    +0.000 A 
ATOM     17  S   UNL     1      53.380   6.636  16.597  0.00  0.00    +0.000 S 
ATOM     18  C   UNL     1      52.224   7.423  15.632  0.00  0.00    +0.000 A 
ATOM     19  C   UNL     1      50.925   6.949  15.801  0.00  0.00    +0.000 A 
ATOM     20  C   UNL     1      50.912   5.888  16.804  0.00  0.00    +0.000 A 
BRANCH  12  22
ATOM     21  C   UNL     1      48.054   3.896  16.764  0.00  0.00    +0.000 C 
ATOM     22  O   UNL     1      48.600   5.183  17.062  0.00  0.00    +0.000 OA
ENDBRANCH  12  22
ENDBRANCH   8  19
ENDBRANCH   7  10
ENDBRANCH   1   7
BRANCH   4  23
ATOM     23  C   UNL     1      44.361   3.656  11.909  0.00  0.00    +0.000 C 
BRANCH  23  24
ATOM     24  N   UNL     1      44.897   2.572  11.076  0.00  0.00    +0.000 NA
ATOM     25  H   UNL     1      44.690   1.690  11.544  0.00  0.00    +0.000 HD
BRANCH  24  26
ATOM     26  C   UNL     1      44.307   2.521   9.730  0.00  0.00    +0.000 C 
BRANCH  26  27
ATOM     27  C   UNL     1      45.385   2.437   8.667  0.00  0.00    +0.000 A 
ATOM     28  C   UNL     1      46.014   1.219   8.351  0.00  0.00    +0.000 A 
ATOM     29  C   UNL     1      46.966   1.154   7.327  0.00  0.00    +0.000 A 
ATOM     30  C   UNL     1      47.308   2.306   6.628  0.00  0.00    +0.000 A 
ATOM     31  F   UNL     1      48.205   2.237   5.637  0.00  0.00    +0.000 F 
ATOM     32  C   UNL     1      46.734   3.528   6.948  0.00  0.00    +0.000 A 
ATOM     33  C   UNL     1      45.785   3.583   7.963  0.00  0.00    +0.000 A 
ATOM     34  F   UNL     1      45.244   4.772   8.265  0.00  0.00    +0.000 F 
ENDBRANCH  26  27
ENDBRANCH  24  26
ENDBRANCH  23  24
ENDBRANCH   4  23
TORSDOF 8
ENDMDL
MODEL 3
REMARK VINA RESULT:    -7.769      1.970      2.968
REMARK INTER + INTRA:         -12.709
REMARK INTER:                 -11.377
REMARK INTRA:                  -1.332
REMARK UNBOUND:                -1.306
REMARK  Name = 
REMARK  9 active torsions:
REMARK  status: ('A' for Active; 'I' for Inactive)
REMARK    1  A    between atoms: C_1  and  O_2
REMARK    2  A    between atoms: O_2  and  C_3
REMARK    3  A    between atoms: C_10  and  C_11
REMARK    4  A    between atoms: N_13  and  C_14
REMARK    5  A    between atoms: C_14  and  C_15
REMARK    6  A    between atoms: C_18  and  C_19
REMARK    7  A    between atoms: C_19  and  N_20
REMARK    8  A    between atoms: N_20  and  C_21
REMARK    9  A    between atoms: C_21  and  C_22
REMARK                            x       y       z     vdW  Elec       q    Type
REMARK                         _______ _______ _______ _____ _____    ______ ____
ROOT
ATOM      1  C   UNL     1      47.373   5.880  13.609  0.00  0.00    +0.000 A 
ATOM      2  C   UNL     1      46.474   6.363  12.649  0.00  0.00    +0.000 A 
ATOM      3  C   UNL     1      45.424   5.568  12.166  0.00  0.00    +0.000 A 
ATOM      4  C   UNL     1      45.284   4.230  12.554  0.00  0.00    +0.000 A 
ATOM      5  C   UNL     1      46.244   3.712  13.440  0.00  0.00    +0.000 A 
ATOM      6  C   UNL     1      47.263   4.531  13.978  0.00  0.00    +0.000 A 
ENDROOT
BRANCH   1   7
ATOM      7  C   UNL     1      48.403   6.822  14.205  0.00  0.00    +0.000 C 
BRANCH   7  10
ATOM      8  C   UNL     1      49.118   6.529  16.564  0.00  0.00    +0.000 C 
ATOM      9  O   UNL     1      50.083   5.870  16.211  0.00  0.00    +0.000 OA
ATOM     10  N   UNL     1      48.224   7.035  15.633  0.00  0.00    +0.000 N 
ATOM     11  H   UNL     1      47.424   7.560  15.946  0.00  0.00    +0.000 HD
BRANCH   8  19
ATOM     12  C   UNL     1      47.755   9.186  18.339  0.00  0.00    +0.000 A 
ATOM     13  N   UNL     1      47.259  10.037  19.266  0.00  0.00    +0.000 NA
ATOM     14  C   UNL     1      47.266   9.665  20.540  0.00  0.00    +0.000 A 
ATOM     15  N   UNL     1      47.722   8.521  21.027  0.00  0.00    +0.000 NA
ATOM     16  C   UNL     1      48.215   7.700  20.077  0.00  0.00    +0.000 A 
ATOM     17  S   UNL     1      48.860   6.200  20.534  0.00  0.00    +0.000 S 
ATOM     18  C   UNL     1      49.218   5.809  18.920  0.00  0.00    +0.000 A 
ATOM     19  C   UNL     1      48.858   6.794  18.003  0.00  0.00    +0.000 A 
ATOM     20  C   UNL     1      48.272   7.933  18.705  0.00  0.00    +0.000 A 
BRANCH  12  22
ATOM     21  C   UNL     1      48.922  10.361  16.735  0.00  0.00    +0.000 C 
ATOM     22  O   UNL     1      47.742   9.607  17.024  0.00  0.00    +0.000 OA
ENDBRANCH  12  22
ENDBRANCH   8  19
ENDBRANCH   7  10
ENDBRANCH   1   7
BRANCH   4  23
ATOM     23  C   UNL     1      44.126   3.385  12.033  0.00  0.00    +0.000 C 
BRANCH  23  24
ATOM     24  N   UNL     1      44.554   2.482  10.957  0.00  0.00    +0.000 NA
ATOM     25  H   UNL     1      44.066   1.596  11.083  0.00  0.00    +0.000 HD
BRANCH  24  26
ATOM     26  C   UNL     1      44.240   2.986   9.612  0.00  0.00    +0.000 C 
BRANCH  26  27
ATOM     27  C   UNL     1      45.373   2.695   8.645  0.00  0.00    +0.000 A 
ATOM     28  C   UNL     1      45.817   1.382   8.407  0.00  0.00    +0.000 A 
ATOM     29  C   UNL     1      46.826   1.132   7.469  0.00  0.00    +0.000 A 
ATOM     30  C   UNL     1      47.406   2.190   6.779  0.00  0.00    +0.000 A 
ATOM     31  F   UNL     1      48.357   1.945   5.870  0.00  0.00    +0.000 F 
ATOM     32  C   UNL     1      47.015   3.498   7.027  0.00  0.00    +0.000 A 
ATOM     33  C   UNL     1      46.009   3.738   7.957  0.00  0.00    +0.000 A 
ATOM     34  F   UNL     1      45.647   5.008   8.188  0.00  0.00    +0.000 F 
ENDBRANCH  26  27
ENDBRANCH  24  26
ENDBRANCH  23  24
ENDBRANCH   4  23
TORSDOF 8
ENDMDL
MODEL 4
REMARK VINA RESULT:    -7.593      2.268      3.033
REMARK INTER + INTRA:         -12.450
REMARK INTER:                 -11.556
REMARK INTRA:                  -0.894
REMARK UNBOUND:                -1.306
REMARK  Name = 
REMARK  9 active torsions:
REMARK  status: ('A' for Active; 'I' for Inactive)
REMARK    1  A    between atoms: C_1  and  O_2
REMARK    2  A    between atoms: O_2  and  C_3
REMARK    3  A    between atoms: C_10  and  C_11
REMARK    4  A    between atoms: N_13  and  C_14
REMARK    5  A    between atoms: C_14  and  C_15
REMARK    6  A    between atoms: C_18  and  C_19
REMARK    7  A    between atoms: C_19  and  N_20
REMARK    8  A    between atoms: N_20  and  C_21
REMARK    9  A    between atoms: C_21  and  C_22
REMARK                            x       y       z     vdW  Elec       q    Type
REMARK                         _______ _______ _______ _____ _____    ______ ____
ROOT
ATOM      1  C   UNL     1      47.821   7.433  14.239  0.00  0.00    +0.000 A 
ATOM      2  C   UNL     1      47.654   6.067  13.975  0.00  0.00    +0.000 A 
ATOM      3  C   UNL     1      47.009   5.622  12.812  0.00  0.00    +0.000 A 
ATOM      4  C   UNL     1      46.424   6.522  11.913  0.00  0.00    +0.000 A 
ATOM      5  C   UNL     1      46.500   7.889  12.226  0.00  0.00    +0.000 A 
ATOM      6  C   UNL     1      47.209   8.342  13.364  0.00  0.00    +0.000 A 
ENDROOT
BRANCH   1   7
ATOM      7  C   UNL     1      48.650   7.864  15.435  0.00  0.00    +0.000 C 
BRANCH   7  10
ATOM      8  C   UNL     1      49.639   6.435  17.209  0.00  0.00    +0.000 C 
ATOM      9  O   UNL     1      48.915   6.943  18.050  0.00  0.00    +0.000 OA
ATOM     10  N   UNL     1      49.581   6.839  15.884  0.00  0.00    +0.000 N 
ATOM     11  H   UNL     1      50.200   6.421  15.209  0.00  0.00    +0.000 HD
BRANCH   8  19
ATOM     12  C   UNL     1      49.783   2.990  16.793  0.00  0.00    +0.000 A 
ATOM     13  N   UNL     1      50.111   1.678  16.755  0.00  0.00    +0.000 NA
ATOM     14  C   UNL     1      51.269   1.297  17.279  0.00  0.00    +0.000 A 
ATOM     15  N   UNL     1      52.169   2.075  17.860  0.00  0.00    +0.000 NA
ATOM     16  C   UNL     1      51.806   3.374  17.887  0.00  0.00    +0.000 A 
ATOM     17  S   UNL     1      52.838   4.505  18.615  0.00  0.00    +0.000 S 
ATOM     18  C   UNL     1      51.772   5.779  18.257  0.00  0.00    +0.000 A 
ATOM     19  C   UNL     1      50.621   5.383  17.579  0.00  0.00    +0.000 A 
ATOM     20  C   UNL     1      50.640   3.937  17.375  0.00  0.00    +0.000 A 
BRANCH  12  22
ATOM     21  C   UNL     1      47.537   3.268  17.236  0.00  0.00    +0.000 C 
ATOM     22  O   UNL     1      48.566   3.353  16.248  0.00  0.00    +0.000 OA
ENDBRANCH  12  22
ENDBRANCH   8  19
ENDBRANCH   7  10
ENDBRANCH   1   7
BRANCH   4  23
ATOM     23  C   UNL     1      45.741   6.021  10.643  0.00  0.00    +0.000 C 
BRANCH  23  24
ATOM     24  N   UNL     1      44.925   4.828  10.901  0.00  0.00    +0.000 NA
ATOM     25  H   UNL     1      44.215   5.080  11.588  0.00  0.00    +0.000 HD
BRANCH  24  26
ATOM     26  C   UNL     1      44.238   4.320   9.705  0.00  0.00    +0.000 C 
BRANCH  26  27
ATOM     27  C   UNL     1      45.194   3.550   8.815  0.00  0.00    +0.000 A 
ATOM     28  C   UNL     1      46.056   4.208   7.919  0.00  0.00    +0.000 A 
ATOM     29  C   UNL     1      46.970   3.481   7.147  0.00  0.00    +0.000 A 
ATOM     30  C   UNL     1      47.016   2.096   7.253  0.00  0.00    +0.000 A 
ATOM     31  F   UNL     1      47.904   1.406   6.527  0.00  0.00    +0.000 F 
ATOM     32  C   UNL     1      46.148   1.419   8.098  0.00  0.00    +0.000 A 
ATOM     33  C   UNL     1      45.246   2.149   8.864  0.00  0.00    +0.000 A 
ATOM     34  F   UNL     1      44.410   1.480   9.672  0.00  0.00    +0.000 F 
ENDBRANCH  26  27
ENDBRANCH  24  26
ENDBRANCH  23  24
ENDBRANCH   4  23
TORSDOF 8
ENDMDL
MODEL 5
REMARK VINA RESULT:    -7.370      1.888      3.048
REMARK INTER + INTRA:         -12.123
REMARK INTER:                 -11.069
REMARK INTRA:                  -1.054
REMARK UNBOUND:                -1.306
REMARK  Name = 
REMARK  9 active torsions:
REMARK  status: ('A' for Active; 'I' for Inactive)
REMARK    1  A    between atoms: C_1  and  O_2
REMARK    2  A    between atoms: O_2  and  C_3
REMARK    3  A    between atoms: C_10  and  C_11
REMARK    4  A    between atoms: N_13  and  C_14
REMARK    5  A    between atoms: C_14  and  C_15
REMARK    6  A    between atoms: C_18  and  C_19
REMARK    7  A    between atoms: C_19  and  N_20
REMARK    8  A    between atoms: N_20  and  C_21
REMARK    9  A    between atoms: C_21  and  C_22
REMARK                            x       y       z     vdW  Elec       q    Type
REMARK                         _______ _______ _______ _____ _____    ______ ____
ROOT
ATOM      1  C   UNL     1      46.848   4.214  14.243  0.00  0.00    +0.000 A 
ATOM      2  C   UNL     1      46.847   5.587  13.964  0.00  0.00    +0.000 A 
ATOM      3  C   UNL     1      46.092   6.116  12.906  0.00  0.00    +0.000 A 
ATOM      4  C   UNL     1      45.383   5.286  12.030  0.00  0.00    +0.000 A 
ATOM      5  C   UNL     1      45.464   3.899  12.246  0.00  0.00    +0.000 A 
ATOM      6  C   UNL     1      46.170   3.371  13.351  0.00  0.00    +0.000 A 
ENDROOT
BRANCH   1   7
ATOM      7  C   UNL     1      47.564   3.707  15.482  0.00  0.00    +0.000 C 
BRANCH   7  10
ATOM      8  C   UNL     1      48.451   5.286  17.182  0.00  0.00    +0.000 C 
ATOM      9  O   UNL     1      49.574   5.190  16.713  0.00  0.00    +0.000 OA
ATOM     10  N   UNL     1      47.392   4.576  16.637  0.00  0.00    +0.000 N 
ATOM     11  H   UNL     1      46.476   4.654  17.050  0.00  0.00    +0.000 HD
BRANCH   8  19
ATOM     12  C   UNL     1      48.195   8.714  17.679  0.00  0.00    +0.000 A 
ATOM     13  N   UNL     1      48.023   9.969  18.152  0.00  0.00    +0.000 NA
ATOM     14  C   UNL     1      47.737  10.130  19.439  0.00  0.00    +0.000 A 
ATOM     15  N   UNL     1      47.601   9.173  20.344  0.00  0.00    +0.000 NA
ATOM     16  C   UNL     1      47.786   7.936  19.839  0.00  0.00    +0.000 A 
ATOM     17  S   UNL     1      47.668   6.596  20.870  0.00  0.00    +0.000 S 
ATOM     18  C   UNL     1      47.986   5.524  19.591  0.00  0.00    +0.000 A 
ATOM     19  C   UNL     1      48.184   6.148  18.361  0.00  0.00    +0.000 A 
ATOM     20  C   UNL     1      48.079   7.596  18.520  0.00  0.00    +0.000 A 
BRANCH  12  22
ATOM     21  C   UNL     1      48.720   9.868  15.753  0.00  0.00    +0.000 C 
ATOM     22  O   UNL     1      48.501   8.582  16.338  0.00  0.00    +0.000 OA
ENDBRANCH  12  22
ENDBRANCH   8  19
ENDBRANCH   7  10
ENDBRANCH   1   7
BRANCH   4  23
ATOM     23  C   UNL     1      44.553   5.879  10.896  0.00  0.00    +0.000 C 
BRANCH  23  24
ATOM     24  N   UNL     1      45.067   5.478   9.580  0.00  0.00    +0.000 NA
ATOM     25  H   UNL     1      46.051   5.237   9.692  0.00  0.00    +0.000 HD
BRANCH  24  26
ATOM     26  C   UNL     1      44.376   4.311   9.012  0.00  0.00    +0.000 C 
BRANCH  26  27
ATOM     27  C   UNL     1      45.349   3.403   8.287  0.00  0.00    +0.000 A 
ATOM     28  C   UNL     1      46.222   3.898   7.301  0.00  0.00    +0.000 A 
ATOM     29  C   UNL     1      47.152   3.052   6.683  0.00  0.00    +0.000 A 
ATOM     30  C   UNL     1      47.202   1.708   7.033  0.00  0.00    +0.000 A 
ATOM     31  F   UNL     1      48.105   0.907   6.454  0.00  0.00    +0.000 F 
ATOM     32  C   UNL     1      46.324   1.186   7.973  0.00  0.00    +0.000 A 
ATOM     33  C   UNL     1      45.407   2.033   8.584  0.00  0.00    +0.000 A 
ATOM     34  F   UNL     1      44.562   1.512   9.486  0.00  0.00    +0.000 F 
ENDBRANCH  26  27
ENDBRANCH  24  26
ENDBRANCH  23  24
ENDBRANCH   4  23
TORSDOF 8
ENDMDL
MODEL 6
REMARK VINA RESULT:    -6.809      1.992      2.939
REMARK INTER + INTRA:         -11.300
REMARK INTER:                  -9.999
REMARK INTRA:                  -1.301
REMARK UNBOUND:                -1.306
REMARK  Name = 
REMARK  9 active torsions:
REMARK  status: ('A' for Active; 'I' for Inactive)
REMARK    1  A    between atoms: C_1  and  O_2
REMARK    2  A    between atoms: O_2  and  C_3
REMARK    3  A    between atoms: C_10  and  C_11
REMARK    4  A    between atoms: N_13  and  C_14
REMARK    5  A    between atoms: C_14  and  C_15
REMARK    6  A    between atoms: C_18  and  C_19
REMARK    7  A    between atoms: C_19  and  N_20
REMARK    8  A    between atoms: N_20  and  C_21
REMARK    9  A    between atoms: C_21  and  C_22
REMARK                            x       y       z     vdW  Elec       q    Type
REMARK                         _______ _______ _______ _____ _____    ______ ____
ROOT
ATOM      1  C   UNL     1      47.035   4.178  14.501  0.00  0.00    +0.000 A 
ATOM      2  C   UNL     1      47.125   5.551  14.235  0.00  0.00    +0.000 A 
ATOM      3  C   UNL     1      46.488   6.123  13.124  0.00  0.00    +0.000 A 
ATOM      4  C   UNL     1      45.812   5.334  12.185  0.00  0.00    +0.000 A 
ATOM      5  C   UNL     1      45.805   3.944  12.395  0.00  0.00    +0.000 A 
ATOM      6  C   UNL     1      46.390   3.375  13.549  0.00  0.00    +0.000 A 
ENDROOT
BRANCH   1   7
ATOM      7  C   UNL     1      47.620   3.630  15.790  0.00  0.00    +0.000 C 
BRANCH   7  10
ATOM      8  C   UNL     1      47.771   5.149  17.748  0.00  0.00    +0.000 C 
ATOM      9  O   UNL     1      46.680   4.775  18.148  0.00  0.00    +0.000 OA
ATOM     10  N   UNL     1      48.311   4.639  16.578  0.00  0.00    +0.000 N 
ATOM     11  H   UNL     1      49.204   4.975  16.255  0.00  0.00    +0.000 HD
BRANCH   8  19
ATOM     12  C   UNL     1      50.981   5.292  19.066  0.00  0.00    +0.000 A 
ATOM     13  N   UNL     1      52.156   5.630  19.645  0.00  0.00    +0.000 NA
ATOM     14  C   UNL     1      52.279   6.841  20.173  0.00  0.00    +0.000 A 
ATOM     15  N   UNL     1      51.353   7.787  20.205  0.00  0.00    +0.000 NA
ATOM     16  C   UNL     1      50.194   7.414  19.627  0.00  0.00    +0.000 A 
ATOM     17  S   UNL     1      48.894   8.501  19.600  0.00  0.00    +0.000 S 
ATOM     18  C   UNL     1      47.916   7.388  18.769  0.00  0.00    +0.000 A 
ATOM     19  C   UNL     1      48.546   6.177  18.490  0.00  0.00    +0.000 A 
ATOM     20  C   UNL     1      49.906   6.193  19.021  0.00  0.00    +0.000 A 
BRANCH  12  22
ATOM     21  C   UNL     1      52.040   3.723  17.750  0.00  0.00    +0.000 C 
ATOM     22  O   UNL     1      50.883   4.020  18.535  0.00  0.00    +0.000 OA
ENDBRANCH  12  22
ENDBRANCH   8  19
ENDBRANCH   7  10
ENDBRANCH   1   7
BRANCH   4  23
ATOM     23  C   UNL     1      45.109   5.974  10.992  0.00  0.00    +0.000 C 
BRANCH  23  24
ATOM     24  N   UNL     1      45.712   5.557   9.719  0.00  0.00    +0.000 NA
ATOM     25  H   UNL     1      46.514   4.966   9.935  0.00  0.00    +0.000 HD
BRANCH  24  26
ATOM     26  C   UNL     1      44.798   4.787   8.864  0.00  0.00    +0.000 C 
BRANCH  26  27
ATOM     27  C   UNL     1      45.392   3.436   8.511  0.00  0.00    +0.000 A 
ATOM     28  C   UNL     1      44.862   2.242   9.032  0.00  0.00    +0.000 A 
ATOM     29  C   UNL     1      45.390   1.003   8.649  0.00  0.00    +0.000 A 
ATOM     30  C   UNL     1      46.458   0.952   7.760  0.00  0.00    +0.000 A 
ATOM     31  F   UNL     1      46.948  -0.235   7.382  0.00  0.00    +0.000 F 
ATOM     32  C   UNL     1      47.025   2.118   7.265  0.00  0.00    +0.000 A 
ATOM     33  C   UNL     1      46.492   3.344   7.647  0.00  0.00    +0.000 A 
ATOM     34  F   UNL     1      47.055   4.461   7.164  0.00  0.00    +0.000 F 
ENDBRANCH  26  27
ENDBRANCH  24  26
ENDBRANCH  23  24
ENDBRANCH   4  23
TORSDOF 8
ENDMDL
MODEL 7
REMARK VINA RESULT:    -6.517      2.869      3.410
REMARK INTER + INTRA:         -10.871
REMARK INTER:                  -9.657
REMARK INTRA:                  -1.214
REMARK UNBOUND:                -1.306
REMARK  Name = 
REMARK  9 active torsions:
REMARK  status: ('A' for Active; 'I' for Inactive)
REMARK    1  A    between atoms: C_1  and  O_2
REMARK    2  A    between atoms: O_2  and  C_3
REMARK    3  A    between atoms: C_10  and  C_11
REMARK    4  A    between atoms: N_13  and  C_14
REMARK    5  A    between atoms: C_14  and  C_15
REMARK    6  A    between atoms: C_18  and  C_19
REMARK    7  A    between atoms: C_19  and  N_20
REMARK    8  A    between atoms: N_20  and  C_21
REMARK    9  A    between atoms: C_21  and  C_22
REMARK                            x       y       z     vdW  Elec       q    Type
REMARK                         _______ _______ _______ _____ _____    ______ ____
ROOT
ATOM      1  C   UNL     1      47.111   4.664  14.949  0.00  0.00    +0.000 A 
ATOM      2  C   UNL     1      46.329   3.742  14.242  0.00  0.00    +0.000 A 
ATOM      3  C   UNL     1      45.879   4.012  12.941  0.00  0.00    +0.000 A 
ATOM      4  C   UNL     1      46.115   5.250  12.330  0.00  0.00    +0.000 A 
ATOM      5  C   UNL     1      46.812   6.215  13.076  0.00  0.00    +0.000 A 
ATOM      6  C   UNL     1      47.323   5.919  14.361  0.00  0.00    +0.000 A 
ENDROOT
BRANCH   1   7
ATOM      7  C   UNL     1      47.693   4.269  16.294  0.00  0.00    +0.000 C 
BRANCH   7  10
ATOM      8  C   UNL     1      49.567   5.636  17.179  0.00  0.00    +0.000 C 
ATOM      9  O   UNL     1      48.784   6.366  17.766  0.00  0.00    +0.000 OA
ATOM     10  N   UNL     1      49.110   4.573  16.415  0.00  0.00    +0.000 N 
ATOM     11  H   UNL     1      49.772   3.994  15.924  0.00  0.00    +0.000 HD
BRANCH   8  19
ATOM     12  C   UNL     1      52.335   3.615  17.745  0.00  0.00    +0.000 A 
ATOM     13  N   UNL     1      53.566   3.079  17.910  0.00  0.00    +0.000 NA
ATOM     14  C   UNL     1      54.623   3.876  17.816  0.00  0.00    +0.000 A 
ATOM     15  N   UNL     1      54.613   5.178  17.577  0.00  0.00    +0.000 NA
ATOM     16  C   UNL     1      53.370   5.679  17.425  0.00  0.00    +0.000 A 
ATOM     17  S   UNL     1      53.177   7.338  17.133  0.00  0.00    +0.000 S 
ATOM     18  C   UNL     1      51.488   7.177  17.058  0.00  0.00    +0.000 A 
ATOM     19  C   UNL     1      51.032   5.873  17.246  0.00  0.00    +0.000 A 
ATOM     20  C   UNL     1      52.165   4.983  17.482  0.00  0.00    +0.000 A 
BRANCH  12  22
ATOM     21  C   UNL     1      51.595   1.465  17.359  0.00  0.00    +0.000 C 
ATOM     22  O   UNL     1      51.255   2.760  17.859  0.00  0.00    +0.000 OA
ENDBRANCH  12  22
ENDBRANCH   8  19
ENDBRANCH   7  10
ENDBRANCH   1   7
BRANCH   4  23
ATOM     23  C   UNL     1      45.634   5.520  10.908  0.00  0.00    +0.000 C 
BRANCH  23  24
ATOM     24  N   UNL     1      44.401   4.783  10.602  0.00  0.00    +0.000 NA
ATOM     25  H   UNL     1      43.622   5.296  11.014  0.00  0.00    +0.000 HD
BRANCH  24  26
ATOM     26  C   UNL     1      44.143   4.646   9.162  0.00  0.00    +0.000 C 
BRANCH  26  27
ATOM     27  C   UNL     1      45.121   3.678   8.524  0.00  0.00    +0.000 A 
ATOM     28  C   UNL     1      46.077   4.109   7.586  0.00  0.00    +0.000 A 
ATOM     29  C   UNL     1      47.006   3.209   7.051  0.00  0.00    +0.000 A 
ATOM     30  C   UNL     1      46.975   1.874   7.436  0.00  0.00    +0.000 A 
ATOM     31  F   UNL     1      47.877   1.021   6.937  0.00  0.00    +0.000 F 
ATOM     32  C   UNL     1      46.016   1.415   8.328  0.00  0.00    +0.000 A 
ATOM     33  C   UNL     1      45.099   2.316   8.857  0.00  0.00    +0.000 A 
ATOM     34  F   UNL     1      44.175   1.855   9.713  0.00  0.00    +0.000 F 
ENDBRANCH  26  27
ENDBRANCH  24  26
ENDBRANCH  23  24
ENDBRANCH   4  23
TORSDOF 8
ENDMDL
MODEL 8
REMARK VINA RESULT:    -6.357      3.062      4.710
REMARK INTER + INTRA:         -10.637
REMARK INTER:                  -9.606
REMARK INTRA:                  -1.031
REMARK UNBOUND:                -1.306
REMARK  Name = 
REMARK  9 active torsions:
REMARK  status: ('A' for Active; 'I' for Inactive)
REMARK    1  A    between atoms: C_1  and  O_2
REMARK    2  A    between atoms: O_2  and  C_3
REMARK    3  A    between atoms: C_10  and  C_11
REMARK    4  A    between atoms: N_13  and  C_14
REMARK    5  A    between atoms: C_14  and  C_15
REMARK    6  A    between atoms: C_18  and  C_19
REMARK    7  A    between atoms: C_19  and  N_20
REMARK    8  A    between atoms: N_20  and  C_21
REMARK    9  A    between atoms: C_21  and  C_22
REMARK                            x       y       z     vdW  Elec       q    Type
REMARK                         _______ _______ _______ _____ _____    ______ ____
ROOT
ATOM      1  C   UNL     1      49.930   7.882  15.517  0.00  0.00    +0.000 A 
ATOM      2  C   UNL     1      49.930   8.863  14.516  0.00  0.00    +0.000 A 
ATOM      3  C   UNL     1      49.031   8.809  13.441  0.00  0.00    +0.000 A 
ATOM      4  C   UNL     1      48.160   7.725  13.272  0.00  0.00    +0.000 A 
ATOM      5  C   UNL     1      48.228   6.689  14.219  0.00  0.00    +0.000 A 
ATOM      6  C   UNL     1      49.087   6.775  15.339  0.00  0.00    +0.000 A 
ENDROOT
BRANCH   1   7
ATOM      7  C   UNL     1      50.821   8.059  16.732  0.00  0.00    +0.000 C 
BRANCH   7  10
ATOM      8  C   UNL     1      51.193   6.056  18.151  0.00  0.00    +0.000 C 
ATOM      9  O   UNL     1      50.237   6.350  18.851  0.00  0.00    +0.000 OA
ATOM     10  N   UNL     1      51.560   6.855  17.080  0.00  0.00    +0.000 N 
ATOM     11  H   UNL     1      52.364   6.605  16.526  0.00  0.00    +0.000 HD
BRANCH   8  19
ATOM     12  C   UNL     1      50.899   2.689  17.350  0.00  0.00    +0.000 A 
ATOM     13  N   UNL     1      51.051   1.357  17.173  0.00  0.00    +0.000 NA
ATOM     14  C   UNL     1      52.120   0.765  17.693  0.00  0.00    +0.000 A 
ATOM     15  N   UNL     1      53.084   1.344  18.391  0.00  0.00    +0.000 NA
ATOM     16  C   UNL     1      52.896   2.670  18.553  0.00  0.00    +0.000 A 
ATOM     17  S   UNL     1      54.029   3.563  19.443  0.00  0.00    +0.000 S 
ATOM     18  C   UNL     1      53.162   5.002  19.194  0.00  0.00    +0.000 A 
ATOM     19  C   UNL     1      52.005   4.845  18.434  0.00  0.00    +0.000 A 
ATOM     20  C   UNL     1      51.843   3.440  18.067  0.00  0.00    +0.000 A 
BRANCH  12  22
ATOM     21  C   UNL     1      48.690   3.224  17.739  0.00  0.00    +0.000 C 
ATOM     22  O   UNL     1      49.771   3.272  16.805  0.00  0.00    +0.000 OA
ENDBRANCH  12  22
ENDBRANCH   8  19
ENDBRANCH   7  10
ENDBRANCH   1   7
BRANCH   4  23
ATOM     23  C   UNL     1      47.176   7.691  12.107  0.00  0.00    +0.000 C 
BRANCH  23  24
ATOM     24  N   UNL     1      46.669   6.334  11.865  0.00  0.00    +0.000 NA
ATOM     25  H   UNL     1      46.557   5.879  12.770  0.00  0.00    +0.000 HD
BRANCH  24  26
ATOM     26  C   UNL     1      45.368   6.309  11.180  0.00  0.00    +0.000 C 
BRANCH  26  27
ATOM     27  C   UNL     1      45.101   4.947  10.570  0.00  0.00    +0.000 A 
ATOM     28  C   UNL     1      44.370   3.963  11.260  0.00  0.00    +0.000 A 
ATOM     29  C   UNL     1      44.087   2.732  10.655  0.00  0.00    +0.000 A 
ATOM     30  C   UNL     1      44.547   2.472   9.370  0.00  0.00    +0.000 A 
ATOM     31  F   UNL     1      44.258   1.301   8.788  0.00  0.00    +0.000 F 
ATOM     32  C   UNL     1      45.306   3.409   8.684  0.00  0.00    +0.000 A 
ATOM     33  C   UNL     1      45.579   4.631   9.290  0.00  0.00    +0.000 A 
ATOM     34  F   UNL     1      46.319   5.524   8.616  0.00  0.00    +0.000 F 
ENDBRANCH  26  27
ENDBRANCH  24  26
ENDBRANCH  23  24
ENDBRANCH   4  23
TORSDOF 8
ENDMDL
MODEL 9
REMARK VINA RESULT:    -5.852      3.765      5.705
REMARK INTER + INTRA:          -9.895
REMARK INTER:                  -8.326
REMARK INTRA:                  -1.569
REMARK UNBOUND:                -1.306
REMARK  Name = 
REMARK  9 active torsions:
REMARK  status: ('A' for Active; 'I' for Inactive)
REMARK    1  A    between atoms: C_1  and  O_2
REMARK    2  A    between atoms: O_2  and  C_3
REMARK    3  A    between atoms: C_10  and  C_11
REMARK    4  A    between atoms: N_13  and  C_14
REMARK    5  A    between atoms: C_14  and  C_15
REMARK    6  A    between atoms: C_18  and  C_19
REMARK    7  A    between atoms: C_19  and  N_20
REMARK    8  A    between atoms: N_20  and  C_21
REMARK    9  A    between atoms: C_21  and  C_22
REMARK                            x       y       z     vdW  Elec       q    Type
REMARK                         _______ _______ _______ _____ _____    ______ ____
ROOT
ATOM      1  C   UNL     1      48.464   4.789  16.389  0.00  0.00    +0.000 A 
ATOM      2  C   UNL     1      47.485   4.323  15.500  0.00  0.00    +0.000 A 
ATOM      3  C   UNL     1      47.116   5.063  14.367  0.00  0.00    +0.000 A 
ATOM      4  C   UNL     1      47.642   6.339  14.126  0.00  0.00    +0.000 A 
ATOM      5  C   UNL     1      48.548   6.852  15.070  0.00  0.00    +0.000 A 
ATOM      6  C   UNL     1      48.971   6.079  16.176  0.00  0.00    +0.000 A 
ENDROOT
BRANCH   1   7
ATOM      7  C   UNL     1      48.931   3.890  17.518  0.00  0.00    +0.000 C 
BRANCH   7  10
ATOM      8  C   UNL     1      50.776   4.653  18.994  0.00  0.00    +0.000 C 
ATOM      9  O   UNL     1      49.975   5.094  19.802  0.00  0.00    +0.000 OA
ATOM     10  N   UNL     1      50.345   4.045  17.825  0.00  0.00    +0.000 N 
ATOM     11  H   UNL     1      51.023   3.704  17.163  0.00  0.00    +0.000 HD
BRANCH   8  19
ATOM     12  C   UNL     1      53.455   2.451  18.783  0.00  0.00    +0.000 A 
ATOM     13  N   UNL     1      54.660   1.838  18.765  0.00  0.00    +0.000 NA
ATOM     14  C   UNL     1      55.740   2.548  19.067  0.00  0.00    +0.000 A 
ATOM     15  N   UNL     1      55.775   3.828  19.402  0.00  0.00    +0.000 NA
ATOM     16  C   UNL     1      54.556   4.406  19.417  0.00  0.00    +0.000 A 
ATOM     17  S   UNL     1      54.421   6.040  19.846  0.00  0.00    +0.000 S 
ATOM     18  C   UNL     1      52.736   6.007  19.629  0.00  0.00    +0.000 A 
ATOM     19  C   UNL     1      52.239   4.769  19.226  0.00  0.00    +0.000 A 
ATOM     20  C   UNL     1      53.334   3.809  19.117  0.00  0.00    +0.000 A 
BRANCH  12  22
ATOM     21  C   UNL     1      52.591   0.931  17.280  0.00  0.00    +0.000 C 
ATOM     22  O   UNL     1      52.350   1.681  18.473  0.00  0.00    +0.000 OA
ENDBRANCH  12  22
ENDBRANCH   8  19
ENDBRANCH   7  10
ENDBRANCH   1   7
BRANCH   4  23
ATOM     23  C   UNL     1      47.243   7.123  12.880  0.00  0.00    +0.000 C 
BRANCH  23  24
ATOM     24  N   UNL     1      45.902   7.705  13.012  0.00  0.00    +0.000 NA
ATOM     25  H   UNL     1      46.011   8.713  13.120  0.00  0.00    +0.000 HD
BRANCH  24  26
ATOM     26  C   UNL     1      45.042   7.465  11.844  0.00  0.00    +0.000 C 
BRANCH  26  27
ATOM     27  C   UNL     1      44.530   6.038  11.831  0.00  0.00    +0.000 A 
ATOM     28  C   UNL     1      43.755   5.524  12.886  0.00  0.00    +0.000 A 
ATOM     29  C   UNL     1      43.245   4.221  12.827  0.00  0.00    +0.000 A 
ATOM     30  C   UNL     1      43.522   3.421  11.725  0.00  0.00    +0.000 A 
ATOM     31  F   UNL     1      43.018   2.183  11.664  0.00  0.00    +0.000 F 
ATOM     32  C   UNL     1      44.319   3.889  10.690  0.00  0.00    +0.000 A 
ATOM     33  C   UNL     1      44.817   5.186  10.754  0.00  0.00    +0.000 A 
ATOM     34  F   UNL     1      45.590   5.621   9.749  0.00  0.00    +0.000 F 
ENDBRANCH  26  27
ENDBRANCH  24  26
ENDBRANCH  23  24
ENDBRANCH   4  23
TORSDOF 8
ENDMDL
