MODEL 1
REMARK VINA RESULT:    -7.258      0.000      0.000
REMARK INTER + INTRA:         -11.533
REMARK INTER:                 -10.652
REMARK INTRA:                  -0.881
REMARK UNBOUND:                -0.881
REMARK  Name = 
REMARK  10 active torsions:
REMARK  status: ('A' for Active; 'I' for Inactive)
REMARK    1  A    between atoms: C_1  and  O_2
REMARK    2  A    between atoms: O_2  and  C_3
REMARK    3  A    between atoms: C_10  and  C_11
REMARK    4  A    between atoms: N_13  and  C_14
REMARK    5  A    between atoms: C_14  and  C_15
REMARK    6  A    between atoms: C_18  and  C_19
REMARK    7  A    between atoms: C_19  and  O_20
REMARK    8  A    between atoms: O_20  and  C_21
REMARK    9  A    between atoms: C_21  and  C_22
REMARK   10  A    between atoms: N_25  and  C_26
REMARK                            x       y       z     vdW  Elec       q    Type
REMARK                         _______ _______ _______ _____ _____    ______ ____
ROOT
ATOM      1  C   UNL     1      48.656   7.852  15.064  0.00  0.00    +0.000 C 
ENDROOT
BRANCH   1   2
ATOM      2  C   UNL     1      47.783   7.235  14.000  0.00  0.00    +0.000 A 
ATOM      3  C   UNL     1      47.174   8.051  13.035  0.00  0.00    +0.000 A 
ATOM      4  C   UNL     1      46.321   7.506  12.076  0.00  0.00    +0.000 A 
ATOM      5  C   UNL     1      46.049   6.136  12.067  0.00  0.00    +0.000 A 
ATOM      6  C   UNL     1      46.648   5.318  13.036  0.00  0.00    +0.000 A 
ATOM      7  C   UNL     1      47.518   5.860  13.988  0.00  0.00    +0.000 A 
BRANCH   5   8
ATOM      8  C   UNL     1      45.055   5.537  11.113  0.00  0.00    +0.000 C 
BRANCH   8   9
ATOM      9  O   UNL     1      44.618   4.226  11.502  0.00  0.00    +0.000 OA
BRANCH   9  10
ATOM     10  C   UNL     1      45.233   3.283  10.633  0.00  0.00    +0.000 C 
BRANCH  10  11
ATOM     11  C   UNL     1      44.487   3.045   9.314  0.00  0.00    +0.000 C 
ATOM     12  C   UNL     1      44.777   1.604   8.867  0.00  0.00    +0.000 C 
ATOM     13  C   UNL     1      46.228   1.449   8.398  0.00  0.00    +0.000 C 
ATOM     14  N   UNL     1      46.509   2.349   7.275  0.00  0.00    +0.000 NA
ATOM     15  C   UNL     1      47.889   2.175   6.818  0.00  0.00    +0.000 C 
ATOM     16  C   UNL     1      46.258   3.760   7.608  0.00  0.00    +0.000 C 
ATOM     17  C   UNL     1      44.851   3.996   8.167  0.00  0.00    +0.000 C 
ENDBRANCH  10  11
ENDBRANCH   9  10
ENDBRANCH   8   9
ENDBRANCH   5   8
ENDBRANCH   1   2
BRANCH   1  20
ATOM     18  C   UNL     1      49.503   6.563  16.989  0.00  0.00    +0.000 C 
ATOM     19  O   UNL     1      48.713   7.116  17.749  0.00  0.00    +0.000 OA
ATOM     20  N   UNL     1      49.530   6.867  15.656  0.00  0.00    +0.000 N 
ATOM     21  H   UNL     1      50.112   6.325  15.027  0.00  0.00    +0.000 HD
BRANCH  18  29
ATOM     22  C   UNL     1      49.656   3.127  16.818  0.00  0.00    +0.000 A 
ATOM     23  N   UNL     1      50.015   1.828  16.797  0.00  0.00    +0.000 NA
ATOM     24  C   UNL     1      51.197   1.492  17.318  0.00  0.00    +0.000 A 
ATOM     25  N   UNL     1      52.080   2.306  17.891  0.00  0.00    +0.000 NA
ATOM     26  C   UNL     1      51.688   3.592  17.884  0.00  0.00    +0.000 A 
ATOM     27  S   UNL     1      52.684   4.774  18.587  0.00  0.00    +0.000 S 
ATOM     28  C   UNL     1      51.598   6.011  18.168  0.00  0.00    +0.000 A 
ATOM     29  C   UNL     1      50.474   5.565  17.480  0.00  0.00    +0.000 A 
ATOM     30  C   UNL     1      50.511   4.110  17.353  0.00  0.00    +0.000 A 
BRANCH  22  32
ATOM     31  C   UNL     1      47.378   3.433  17.306  0.00  0.00    +0.000 C 
ATOM     32  O   UNL     1      48.415   3.472  16.327  0.00  0.00    +0.000 OA
ENDBRANCH  22  32
ENDBRANCH  18  29
ENDBRANCH   1  20
TORSDOF 8
ENDMDL
MODEL 2
REMARK VINA RESULT:    -6.948      3.493      8.865
REMARK INTER + INTRA:         -11.078
REMARK INTER:                  -9.153
REMARK INTRA:                  -1.925
REMARK UNBOUND:                -0.881
REMARK  Name = 
REMARK  10 active torsions:
REMARK  status: ('A' for Active; 'I' for Inactive)
REMARK    1  A    between atoms: C_1  and  O_2
REMARK    2  A    between atoms: O_2  and  C_3
REMARK    3  A    between atoms: C_10  and  C_11
REMARK    4  A    between atoms: N_13  and  C_14
REMARK    5  A    between atoms: C_14  and  C_15
REMARK    6  A    between atoms: C_18  and  C_19
REMARK    7  A    between atoms: C_19  and  O_20
REMARK    8  A    between atoms: O_20  and  C_21
REMARK    9  A    between atoms: C_21  and  C_22
REMARK   10  A    between atoms: N_25  and  C_26
REMARK                            x       y       z     vdW  Elec       q    Type
REMARK                         _______ _______ _______ _____ _____    ______ ____
ROOT
ATOM      1  C   UNL     1      47.181   3.407  17.113  0.00  0.00    +0.000 C 
ENDROOT
BRANCH   1   2
ATOM      2  C   UNL     1      48.549   3.620  17.712  0.00  0.00    +0.000 A 
ATOM      3  C   UNL     1      48.713   4.511  18.782  0.00  0.00    +0.000 A 
ATOM      4  C   UNL     1      49.977   4.761  19.315  0.00  0.00    +0.000 A 
ATOM      5  C   UNL     1      51.106   4.135  18.782  0.00  0.00    +0.000 A 
ATOM      6  C   UNL     1      50.948   3.250  17.706  0.00  0.00    +0.000 A 
ATOM      7  C   UNL     1      49.678   2.984  17.182  0.00  0.00    +0.000 A 
BRANCH   5   8
ATOM      8  C   UNL     1      52.490   4.463  19.267  0.00  0.00    +0.000 C 
BRANCH   8   9
ATOM      9  O   UNL     1      53.262   5.207  18.311  0.00  0.00    +0.000 OA
BRANCH   9  10
ATOM     10  C   UNL     1      53.015   6.590  18.531  0.00  0.00    +0.000 C 
BRANCH  10  11
ATOM     11  C   UNL     1      52.962   7.442  17.258  0.00  0.00    +0.000 C 
ATOM     12  C   UNL     1      52.262   8.765  17.609  0.00  0.00    +0.000 C 
ATOM     13  C   UNL     1      50.766   8.550  17.864  0.00  0.00    +0.000 C 
ATOM     14  N   UNL     1      50.114   7.981  16.681  0.00  0.00    +0.000 NA
ATOM     15  C   UNL     1      48.681   7.804  16.926  0.00  0.00    +0.000 C 
ATOM     16  C   UNL     1      50.719   6.705  16.264  0.00  0.00    +0.000 C 
ATOM     17  C   UNL     1      52.235   6.805  16.066  0.00  0.00    +0.000 C 
ENDBRANCH  10  11
ENDBRANCH   9  10
ENDBRANCH   8   9
ENDBRANCH   5   8
ENDBRANCH   1   2
BRANCH   1  20
ATOM     18  C   UNL     1      47.075   4.155  14.765  0.00  0.00    +0.000 C 
ATOM     19  O   UNL     1      47.479   3.068  14.365  0.00  0.00    +0.000 OA
ATOM     20  N   UNL     1      46.897   4.395  16.099  0.00  0.00    +0.000 N 
ATOM     21  H   UNL     1      46.462   5.259  16.403  0.00  0.00    +0.000 HD
BRANCH  18  29
ATOM     22  C   UNL     1      44.397   4.893  12.729  0.00  0.00    +0.000 A 
ATOM     23  N   UNL     1      43.459   5.467  11.950  0.00  0.00    +0.000 NA
ATOM     24  C   UNL     1      43.721   6.667  11.427  0.00  0.00    +0.000 A 
ATOM     25  N   UNL     1      44.837   7.376  11.572  0.00  0.00    +0.000 NA
ATOM     26  C   UNL     1      45.742   6.774  12.362  0.00  0.00    +0.000 A 
ATOM     27  S   UNL     1      47.237   7.528  12.648  0.00  0.00    +0.000 S 
ATOM     28  C   UNL     1      47.735   6.265  13.671  0.00  0.00    +0.000 A 
ATOM     29  C   UNL     1      46.785   5.261  13.830  0.00  0.00    +0.000 A 
ATOM     30  C   UNL     1      45.612   5.548  13.007  0.00  0.00    +0.000 A 
BRANCH  22  32
ATOM     31  C   UNL     1      43.567   2.742  12.281  0.00  0.00    +0.000 C 
ATOM     32  O   UNL     1      44.152   3.633  13.229  0.00  0.00    +0.000 OA
ENDBRANCH  22  32
ENDBRANCH  18  29
ENDBRANCH   1  20
TORSDOF 8
ENDMDL
MODEL 3
REMARK VINA RESULT:    -6.782      3.598      9.213
REMARK INTER + INTRA:         -10.834
REMARK INTER:                  -9.518
REMARK INTRA:                  -1.316
REMARK UNBOUND:                -0.881
REMARK  Name = 
REMARK  10 active torsions:
REMARK  status: ('A' for Active; 'I' for Inactive)
REMARK    1  A    between atoms: C_1  and  O_2
REMARK    2  A    between atoms: O_2  and  C_3
REMARK    3  A    between atoms: C_10  and  C_11
REMARK    4  A    between atoms: N_13  and  C_14
REMARK    5  A    between atoms: C_14  and  C_15
REMARK    6  A    between atoms: C_18  and  C_19
REMARK    7  A    between atoms: C_19  and  O_20
REMARK    8  A    between atoms: O_20  and  C_21
REMARK    9  A    between atoms: C_21  and  C_22
REMARK   10  A    between atoms: N_25  and  C_26
REMARK                            x       y       z     vdW  Elec       q    Type
REMARK                         _______ _______ _______ _____ _____    ______ ____
ROOT
ATOM      1  C   UNL     1      47.301   3.573  17.004  0.00  0.00    +0.000 C 
ENDROOT
BRANCH   1   2
ATOM      2  C   UNL     1      48.782   3.478  17.274  0.00  0.00    +0.000 A 
ATOM      3  C   UNL     1      49.473   2.295  16.974  0.00  0.00    +0.000 A 
ATOM      4  C   UNL     1      50.832   2.169  17.266  0.00  0.00    +0.000 A 
ATOM      5  C   UNL     1      51.525   3.218  17.874  0.00  0.00    +0.000 A 
ATOM      6  C   UNL     1      50.836   4.399  18.184  0.00  0.00    +0.000 A 
ATOM      7  C   UNL     1      49.478   4.534  17.875  0.00  0.00    +0.000 A 
BRANCH   5   8
ATOM      8  C   UNL     1      52.960   3.074  18.293  0.00  0.00    +0.000 C 
BRANCH   8   9
ATOM      9  O   UNL     1      53.870   3.804  17.456  0.00  0.00    +0.000 OA
BRANCH   9  10
ATOM     10  C   UNL     1      54.362   4.909  18.204  0.00  0.00    +0.000 C 
BRANCH  10  11
ATOM     11  C   UNL     1      54.770   6.123  17.361  0.00  0.00    +0.000 C 
ATOM     12  C   UNL     1      54.524   7.383  18.206  0.00  0.00    +0.000 C 
ATOM     13  C   UNL     1      53.025   7.653  18.376  0.00  0.00    +0.000 C 
ATOM     14  N   UNL     1      52.379   7.835  17.074  0.00  0.00    +0.000 NA
ATOM     15  C   UNL     1      50.953   8.119  17.248  0.00  0.00    +0.000 C 
ATOM     16  C   UNL     1      52.562   6.674  16.187  0.00  0.00    +0.000 C 
ATOM     17  C   UNL     1      54.032   6.278  16.025  0.00  0.00    +0.000 C 
ENDBRANCH  10  11
ENDBRANCH   9  10
ENDBRANCH   8   9
ENDBRANCH   5   8
ENDBRANCH   1   2
BRANCH   1  20
ATOM     18  C   UNL     1      47.056   4.230  14.639  0.00  0.00    +0.000 C 
ATOM     19  O   UNL     1      47.318   3.093  14.261  0.00  0.00    +0.000 OA
ATOM     20  N   UNL     1      47.022   4.542  15.970  0.00  0.00    +0.000 N 
ATOM     21  H   UNL     1      46.699   5.456  16.266  0.00  0.00    +0.000 HD
BRANCH  18  29
ATOM     22  C   UNL     1      44.318   5.088  12.735  0.00  0.00    +0.000 A 
ATOM     23  N   UNL     1      43.377   5.700  11.988  0.00  0.00    +0.000 NA
ATOM     24  C   UNL     1      43.691   6.857  11.403  0.00  0.00    +0.000 A 
ATOM     25  N   UNL     1      44.862   7.488  11.453  0.00  0.00    +0.000 NA
ATOM     26  C   UNL     1      45.769   6.849  12.213  0.00  0.00    +0.000 A 
ATOM     27  S   UNL     1      47.328   7.501  12.380  0.00  0.00    +0.000 S 
ATOM     28  C   UNL     1      47.796   6.244  13.423  0.00  0.00    +0.000 A 
ATOM     29  C   UNL     1      46.789   5.319  13.678  0.00  0.00    +0.000 A 
ATOM     30  C   UNL     1      45.591   5.661  12.914  0.00  0.00    +0.000 A 
BRANCH  22  32
ATOM     31  C   UNL     1      43.607   2.882  12.353  0.00  0.00    +0.000 C 
ATOM     32  O   UNL     1      44.014   3.868  13.299  0.00  0.00    +0.000 OA
ENDBRANCH  22  32
ENDBRANCH  18  29
ENDBRANCH   1  20
TORSDOF 8
ENDMDL
MODEL 4
REMARK VINA RESULT:    -6.672      2.506      4.152
REMARK INTER + INTRA:         -10.673
REMARK INTER:                  -9.672
REMARK INTRA:                  -1.002
REMARK UNBOUND:                -0.881
REMARK  Name = 
REMARK  10 active torsions:
REMARK  status: ('A' for Active; 'I' for Inactive)
REMARK    1  A    between atoms: C_1  and  O_2
REMARK    2  A    between atoms: O_2  and  C_3
REMARK    3  A    between atoms: C_10  and  C_11
REMARK    4  A    between atoms: N_13  and  C_14
REMARK    5  A    between atoms: C_14  and  C_15
REMARK    6  A    between atoms: C_18  and  C_19
REMARK    7  A    between atoms: C_19  and  O_20
REMARK    8  A    between atoms: O_20  and  C_21
REMARK    9  A    between atoms: C_21  and  C_22
REMARK   10  A    between atoms: N_25  and  C_26
REMARK                            x       y       z     vdW  Elec       q    Type
REMARK                         _______ _______ _______ _____ _____    ______ ____
ROOT
ATOM      1  C   UNL     1      47.832   3.443  17.369  0.00  0.00    +0.000 C 
ENDROOT
BRANCH   1   2
ATOM      2  C   UNL     1      47.692   4.277  16.120  0.00  0.00    +0.000 A 
ATOM      3  C   UNL     1      47.090   3.729  14.978  0.00  0.00    +0.000 A 
ATOM      4  C   UNL     1      46.998   4.466  13.797  0.00  0.00    +0.000 A 
ATOM      5  C   UNL     1      47.517   5.760  13.729  0.00  0.00    +0.000 A 
ATOM      6  C   UNL     1      48.128   6.309  14.865  0.00  0.00    +0.000 A 
ATOM      7  C   UNL     1      48.204   5.578  16.056  0.00  0.00    +0.000 A 
BRANCH   5   8
ATOM      8  C   UNL     1      47.526   6.538  12.443  0.00  0.00    +0.000 C 
BRANCH   8   9
ATOM      9  O   UNL     1      46.413   7.437  12.318  0.00  0.00    +0.000 OA
BRANCH   9  10
ATOM     10  C   UNL     1      45.219   6.667  12.377  0.00  0.00    +0.000 C 
BRANCH  10  11
ATOM     11  C   UNL     1      44.565   6.394  11.018  0.00  0.00    +0.000 C 
ATOM     12  C   UNL     1      43.082   6.075  11.268  0.00  0.00    +0.000 C 
ATOM     13  C   UNL     1      42.915   4.706  11.938  0.00  0.00    +0.000 C 
ATOM     14  N   UNL     1      43.483   3.645  11.100  0.00  0.00    +0.000 NA
ATOM     15  C   UNL     1      43.295   2.340  11.736  0.00  0.00    +0.000 C 
ATOM     16  C   UNL     1      44.908   3.866  10.802  0.00  0.00    +0.000 C 
ATOM     17  C   UNL     1      45.182   5.249  10.205  0.00  0.00    +0.000 C 
ENDBRANCH  10  11
ENDBRANCH   9  10
ENDBRANCH   8   9
ENDBRANCH   5   8
ENDBRANCH   1   2
BRANCH   1  20
ATOM     18  C   UNL     1      50.015   2.340  17.050  0.00  0.00    +0.000 C 
ATOM     19  O   UNL     1      49.577   1.666  16.124  0.00  0.00    +0.000 OA
ATOM     20  N   UNL     1      49.221   3.239  17.706  0.00  0.00    +0.000 N 
ATOM     21  H   UNL     1      49.627   3.863  18.395  0.00  0.00    +0.000 HD
BRANCH  18  29
ATOM     22  C   UNL     1      52.327   4.557  18.314  0.00  0.00    +0.000 A 
ATOM     23  N   UNL     1      53.359   5.172  18.927  0.00  0.00    +0.000 NA
ATOM     24  C   UNL     1      54.411   4.433  19.283  0.00  0.00    +0.000 A 
ATOM     25  N   UNL     1      54.578   3.129  19.084  0.00  0.00    +0.000 NA
ATOM     26  C   UNL     1      53.524   2.552  18.480  0.00  0.00    +0.000 A 
ATOM     27  S   UNL     1      53.566   0.891  18.130  0.00  0.00    +0.000 S 
ATOM     28  C   UNL     1      52.000   0.938  17.473  0.00  0.00    +0.000 A 
ATOM     29  C   UNL     1      51.409   2.197  17.516  0.00  0.00    +0.000 A 
ATOM     30  C   UNL     1      52.344   3.169  18.077  0.00  0.00    +0.000 A 
BRANCH  22  32
ATOM     31  C   UNL     1      51.535   6.112  16.742  0.00  0.00    +0.000 C 
ATOM     32  O   UNL     1      51.260   5.324  17.899  0.00  0.00    +0.000 OA
ENDBRANCH  22  32
ENDBRANCH  18  29
ENDBRANCH   1  20
TORSDOF 8
ENDMDL
MODEL 5
REMARK VINA RESULT:    -6.588      1.639      2.400
REMARK INTER + INTRA:         -10.550
REMARK INTER:                  -9.466
REMARK INTRA:                  -1.084
REMARK UNBOUND:                -0.881
REMARK  Name = 
REMARK  10 active torsions:
REMARK  status: ('A' for Active; 'I' for Inactive)
REMARK    1  A    between atoms: C_1  and  O_2
REMARK    2  A    between atoms: O_2  and  C_3
REMARK    3  A    between atoms: C_10  and  C_11
REMARK    4  A    between atoms: N_13  and  C_14
REMARK    5  A    between atoms: C_14  and  C_15
REMARK    6  A    between atoms: C_18  and  C_19
REMARK    7  A    between atoms: C_19  and  O_20
REMARK    8  A    between atoms: O_20  and  C_21
REMARK    9  A    between atoms: C_21  and  C_22
REMARK   10  A    between atoms: N_25  and  C_26
REMARK                            x       y       z     vdW  Elec       q    Type
REMARK                         _______ _______ _______ _____ _____    ______ ____
ROOT
ATOM      1  C   UNL     1      49.765   8.320  16.196  0.00  0.00    +0.000 C 
ENDROOT
BRANCH   1   2
ATOM      2  C   UNL     1      48.892   7.973  15.015  0.00  0.00    +0.000 A 
ATOM      3  C   UNL     1      48.184   8.983  14.349  0.00  0.00    +0.000 A 
ATOM      4  C   UNL     1      47.331   8.676  13.289  0.00  0.00    +0.000 A 
ATOM      5  C   UNL     1      47.158   7.352  12.881  0.00  0.00    +0.000 A 
ATOM      6  C   UNL     1      47.857   6.338  13.550  0.00  0.00    +0.000 A 
ATOM      7  C   UNL     1      48.727   6.646  14.602  0.00  0.00    +0.000 A 
BRANCH   5   8
ATOM      8  C   UNL     1      46.169   6.980  11.813  0.00  0.00    +0.000 C 
BRANCH   8   9
ATOM      9  O   UNL     1      44.805   7.069  12.250  0.00  0.00    +0.000 OA
BRANCH   9  10
ATOM     10  C   UNL     1      44.503   5.889  12.985  0.00  0.00    +0.000 C 
BRANCH  10  11
ATOM     11  C   UNL     1      43.195   5.199  12.581  0.00  0.00    +0.000 C 
ATOM     12  C   UNL     1      43.349   3.698  12.873  0.00  0.00    +0.000 C 
ATOM     13  C   UNL     1      44.326   3.039  11.893  0.00  0.00    +0.000 C 
ATOM     14  N   UNL     1      43.863   3.197  10.512  0.00  0.00    +0.000 NA
ATOM     15  C   UNL     1      44.789   2.542   9.586  0.00  0.00    +0.000 C 
ATOM     16  C   UNL     1      43.682   4.609  10.137  0.00  0.00    +0.000 C 
ATOM     17  C   UNL     1      42.782   5.372  11.114  0.00  0.00    +0.000 C 
ENDBRANCH  10  11
ENDBRANCH   9  10
ENDBRANCH   8   9
ENDBRANCH   5   8
ENDBRANCH   1   2
BRANCH   1  20
ATOM     18  C   UNL     1      50.227   6.430  17.712  0.00  0.00    +0.000 C 
ATOM     19  O   UNL     1      49.237   6.687  18.388  0.00  0.00    +0.000 OA
ATOM     20  N   UNL     1      50.549   7.182  16.616  0.00  0.00    +0.000 N 
ATOM     21  H   UNL     1      51.306   6.891  16.009  0.00  0.00    +0.000 HD
BRANCH  18  29
ATOM     22  C   UNL     1      50.172   3.048  17.064  0.00  0.00    +0.000 A 
ATOM     23  N   UNL     1      50.452   1.745  16.863  0.00  0.00    +0.000 NA
ATOM     24  C   UNL     1      51.605   1.267  17.335  0.00  0.00    +0.000 A 
ATOM     25  N   UNL     1      52.530   1.937  18.017  0.00  0.00    +0.000 NA
ATOM     26  C   UNL     1      52.218   3.234  18.188  0.00  0.00    +0.000 A 
ATOM     27  S   UNL     1      53.277   4.242  19.052  0.00  0.00    +0.000 S 
ATOM     28  C   UNL     1      52.273   5.591  18.806  0.00  0.00    +0.000 A 
ATOM     29  C   UNL     1      51.131   5.315  18.060  0.00  0.00    +0.000 A 
ATOM     30  C   UNL     1      51.080   3.892  17.733  0.00  0.00    +0.000 A 
BRANCH  22  32
ATOM     31  C   UNL     1      47.860   3.173  17.455  0.00  0.00    +0.000 C 
ATOM     32  O   UNL     1      48.960   3.534  16.624  0.00  0.00    +0.000 OA
ENDBRANCH  22  32
ENDBRANCH  18  29
ENDBRANCH   1  20
TORSDOF 8
ENDMDL
MODEL 6
REMARK VINA RESULT:    -6.509      5.608      7.999
REMARK INTER + INTRA:         -10.434
REMARK INTER:                  -9.256
REMARK INTRA:                  -1.177
REMARK UNBOUND:                -0.881
REMARK  Name = 
REMARK  10 active torsions:
REMARK  status: ('A' for Active; 'I' for Inactive)
REMARK    1  A    between atoms: C_1  and  O_2
REMARK    2  A    between atoms: O_2  and  C_3
REMARK    3  A    between atoms: C_10  and  C_11
REMARK    4  A    between atoms: N_13  and  C_14
REMARK    5  A    between atoms: C_14  and  C_15
REMARK    6  A    between atoms: C_18  and  C_19
REMARK    7  A    between atoms: C_19  and  O_20
REMARK    8  A    between atoms: O_20  and  C_21
REMARK    9  A    between atoms: C_21  and  C_22
REMARK   10  A    between atoms: N_25  and  C_26
REMARK                            x       y       z     vdW  Elec       q    Type
REMARK                         _______ _______ _______ _____ _____    ______ ____
ROOT
ATOM      1  C   UNL     1      47.775   8.203  12.363  0.00  0.00    +0.000 C 
ENDROOT
BRANCH   1   2
ATOM      2  C   UNL     1      49.145   8.516  11.815  0.00  0.00    +0.000 A 
ATOM      3  C   UNL     1      49.497   9.844  11.531  0.00  0.00    +0.000 A 
ATOM      4  C   UNL     1      50.740  10.149  10.975  0.00  0.00    +0.000 A 
ATOM      5  C   UNL     1      51.652   9.133  10.681  0.00  0.00    +0.000 A 
ATOM      6  C   UNL     1      51.300   7.804  10.955  0.00  0.00    +0.000 A 
ATOM      7  C   UNL     1      50.062   7.498  11.530  0.00  0.00    +0.000 A 
BRANCH   5   8
ATOM      8  C   UNL     1      52.953   9.421   9.988  0.00  0.00    +0.000 C 
BRANCH   8   9
ATOM      9  O   UNL     1      53.666   8.233   9.609  0.00  0.00    +0.000 OA
BRANCH   9  10
ATOM     10  C   UNL     1      54.057   8.371   8.249  0.00  0.00    +0.000 C 
BRANCH  10  11
ATOM     11  C   UNL     1      52.951   8.070   7.231  0.00  0.00    +0.000 C 
ATOM     12  C   UNL     1      52.412   6.662   7.528  0.00  0.00    +0.000 C 
ATOM     13  C   UNL     1      53.437   5.585   7.153  0.00  0.00    +0.000 C 
ATOM     14  N   UNL     1      53.773   5.661   5.729  0.00  0.00    +0.000 NA
ATOM     15  C   UNL     1      54.731   4.613   5.376  0.00  0.00    +0.000 C 
ATOM     16  C   UNL     1      54.299   6.982   5.345  0.00  0.00    +0.000 C 
ATOM     17  C   UNL     1      53.375   8.131   5.758  0.00  0.00    +0.000 C 
ENDBRANCH  10  11
ENDBRANCH   9  10
ENDBRANCH   8   9
ENDBRANCH   5   8
ENDBRANCH   1   2
BRANCH   1  20
ATOM     18  C   UNL     1      45.923   6.965  11.304  0.00  0.00    +0.000 C 
ATOM     19  O   UNL     1      45.168   7.924  11.426  0.00  0.00    +0.000 OA
ATOM     20  N   UNL     1      47.219   7.028  11.734  0.00  0.00    +0.000 N 
ATOM     21  H   UNL     1      47.857   6.267  11.528  0.00  0.00    +0.000 HD
BRANCH  18  29
ATOM     22  C   UNL     1      44.384   4.171  12.600  0.00  0.00    +0.000 A 
ATOM     23  N   UNL     1      43.693   3.033  12.818  0.00  0.00    +0.000 NA
ATOM     24  C   UNL     1      43.415   2.255  11.770  0.00  0.00    +0.000 A 
ATOM     25  N   UNL     1      43.765   2.462  10.504  0.00  0.00    +0.000 NA
ATOM     26  C   UNL     1      44.443   3.609  10.328  0.00  0.00    +0.000 A 
ATOM     27  S   UNL     1      44.986   4.032   8.775  0.00  0.00    +0.000 S 
ATOM     28  C   UNL     1      45.648   5.488   9.348  0.00  0.00    +0.000 A 
ATOM     29  C   UNL     1      45.464   5.693  10.712  0.00  0.00    +0.000 A 
ATOM     30  C   UNL     1      44.782   4.543  11.302  0.00  0.00    +0.000 A 
BRANCH  22  32
ATOM     31  C   UNL     1      46.052   4.756  14.147  0.00  0.00    +0.000 C 
ATOM     32  O   UNL     1      44.717   4.952  13.685  0.00  0.00    +0.000 OA
ENDBRANCH  22  32
ENDBRANCH  18  29
ENDBRANCH   1  20
TORSDOF 8
ENDMDL
MODEL 7
REMARK VINA RESULT:    -6.117      2.104      2.624
REMARK INTER + INTRA:          -9.858
REMARK INTER:                  -8.754
REMARK INTRA:                  -1.104
REMARK UNBOUND:                -0.881
REMARK  Name = 
REMARK  10 active torsions:
REMARK  status: ('A' for Active; 'I' for Inactive)
REMARK    1  A    between atoms: C_1  and  O_2
REMARK    2  A    between atoms: O_2  and  C_3
REMARK    3  A    between atoms: C_10  and  C_11
REMARK    4  A    between atoms: N_13  and  C_14
REMARK    5  A    between atoms: C_14  and  C_15
REMARK    6  A    between atoms: C_18  and  C_19
REMARK    7  A    between atoms: C_19  and  O_20
REMARK    8  A    between atoms: O_20  and  C_21
REMARK    9  A    between atoms: C_21  and  C_22
REMARK   10  A    between atoms: N_25  and  C_26
REMARK                            x       y       z     vdW  Elec       q    Type
REMARK                         _______ _______ _______ _____ _____    ______ ____
ROOT
ATOM      1  C   UNL     1      48.356   8.646  13.504  0.00  0.00    +0.000 C 
ENDROOT
BRANCH   1   2
ATOM      2  C   UNL     1      47.506   7.424  13.257  0.00  0.00    +0.000 A 
ATOM      3  C   UNL     1      46.162   7.571  12.885  0.00  0.00    +0.000 A 
ATOM      4  C   UNL     1      45.347   6.454  12.704  0.00  0.00    +0.000 A 
ATOM      5  C   UNL     1      45.854   5.168  12.902  0.00  0.00    +0.000 A 
ATOM      6  C   UNL     1      47.194   5.017  13.284  0.00  0.00    +0.000 A 
ATOM      7  C   UNL     1      48.019   6.136  13.448  0.00  0.00    +0.000 A 
BRANCH   5   8
ATOM      8  C   UNL     1      44.974   3.953  12.816  0.00  0.00    +0.000 C 
BRANCH   8   9
ATOM      9  O   UNL     1      44.219   3.887  11.596  0.00  0.00    +0.000 OA
BRANCH   9  10
ATOM     10  C   UNL     1      45.055   3.325  10.593  0.00  0.00    +0.000 C 
BRANCH  10  11
ATOM     11  C   UNL     1      44.370   3.096   9.241  0.00  0.00    +0.000 C 
ATOM     12  C   UNL     1      44.684   1.659   8.795  0.00  0.00    +0.000 C 
ATOM     13  C   UNL     1      46.154   1.513   8.390  0.00  0.00    +0.000 C 
ATOM     14  N   UNL     1      46.483   2.422   7.288  0.00  0.00    +0.000 NA
ATOM     15  C   UNL     1      47.882   2.256   6.891  0.00  0.00    +0.000 C 
ATOM     16  C   UNL     1      46.212   3.830   7.621  0.00  0.00    +0.000 C 
ATOM     17  C   UNL     1      44.782   4.057   8.119  0.00  0.00    +0.000 C 
ENDBRANCH  10  11
ENDBRANCH   9  10
ENDBRANCH   8   9
ENDBRANCH   5   8
ENDBRANCH   1   2
BRANCH   1  20
ATOM     18  C   UNL     1      50.722   8.146  13.989  0.00  0.00    +0.000 C 
ATOM     19  O   UNL     1      51.014   8.213  12.800  0.00  0.00    +0.000 OA
ATOM     20  N   UNL     1      49.438   8.353  14.413  0.00  0.00    +0.000 N 
ATOM     21  H   UNL     1      49.236   8.401  15.405  0.00  0.00    +0.000 HD
BRANCH  18  29
ATOM     22  C   UNL     1      50.620   6.328  16.912  0.00  0.00    +0.000 A 
ATOM     23  N   UNL     1      50.882   5.594  18.012  0.00  0.00    +0.000 NA
ATOM     24  C   UNL     1      52.141   5.547  18.453  0.00  0.00    +0.000 A 
ATOM     25  N   UNL     1      53.195   6.171  17.933  0.00  0.00    +0.000 NA
ATOM     26  C   UNL     1      52.893   6.884  16.834  0.00  0.00    +0.000 A 
ATOM     27  S   UNL     1      54.114   7.761  16.044  0.00  0.00    +0.000 S 
ATOM     28  C   UNL     1      53.027   8.295  14.852  0.00  0.00    +0.000 A 
ATOM     29  C   UNL     1      51.732   7.816  15.014  0.00  0.00    +0.000 A 
ATOM     30  C   UNL     1      51.647   7.008  16.229  0.00  0.00    +0.000 A 
BRANCH  22  32
ATOM     31  C   UNL     1      48.519   5.283  16.810  0.00  0.00    +0.000 C 
ATOM     32  O   UNL     1      49.314   6.421  16.482  0.00  0.00    +0.000 OA
ENDBRANCH  22  32
ENDBRANCH  18  29
ENDBRANCH   1  20
TORSDOF 8
ENDMDL
MODEL 8
REMARK VINA RESULT:    -6.033      5.597      7.365
REMARK INTER + INTRA:          -9.735
REMARK INTER:                  -8.207
REMARK INTRA:                  -1.528
REMARK UNBOUND:                -0.881
REMARK  Name = 
REMARK  10 active torsions:
REMARK  status: ('A' for Active; 'I' for Inactive)
REMARK    1  A    between atoms: C_1  and  O_2
REMARK    2  A    between atoms: O_2  and  C_3
REMARK    3  A    between atoms: C_10  and  C_11
REMARK    4  A    between atoms: N_13  and  C_14
REMARK    5  A    between atoms: C_14  and  C_15
REMARK    6  A    between atoms: C_18  and  C_19
REMARK    7  A    between atoms: C_19  and  O_20
REMARK    8  A    between atoms: O_20  and  C_21
REMARK    9  A    between atoms: C_21  and  C_22
REMARK   10  A    between atoms: N_25  and  C_26
REMARK                            x       y       z     vdW  Elec       q    Type
REMARK                         _______ _______ _______ _____ _____    ______ ____
ROOT
ATOM      1  C   UNL     1      47.713  10.001  12.004  0.00  0.00    +0.000 C 
ENDROOT
BRANCH   1   2
ATOM      2  C   UNL     1      49.158  10.017  11.570  0.00  0.00    +0.000 A 
ATOM      3  C   UNL     1      49.632  11.056  10.756  0.00  0.00    +0.000 A 
ATOM      4  C   UNL     1      50.950  11.061  10.301  0.00  0.00    +0.000 A 
ATOM      5  C   UNL     1      51.819  10.022  10.640  0.00  0.00    +0.000 A 
ATOM      6  C   UNL     1      51.347   8.976  11.445  0.00  0.00    +0.000 A 
ATOM      7  C   UNL     1      50.030   8.979  11.918  0.00  0.00    +0.000 A 
BRANCH   5   8
ATOM      8  C   UNL     1      53.212   9.946  10.081  0.00  0.00    +0.000 C 
BRANCH   8   9
ATOM      9  O   UNL     1      53.243   9.622   8.682  0.00  0.00    +0.000 OA
BRANCH   9  10
ATOM     10  C   UNL     1      53.794   8.318   8.547  0.00  0.00    +0.000 C 
BRANCH  10  11
ATOM     11  C   UNL     1      52.776   7.177   8.653  0.00  0.00    +0.000 C 
ATOM     12  C   UNL     1      53.334   6.142   9.642  0.00  0.00    +0.000 C 
ATOM     13  C   UNL     1      54.530   5.393   9.046  0.00  0.00    +0.000 C 
ATOM     14  N   UNL     1      54.146   4.697   7.815  0.00  0.00    +0.000 NA
ATOM     15  C   UNL     1      55.289   3.963   7.268  0.00  0.00    +0.000 C 
ATOM     16  C   UNL     1      53.595   5.610   6.801  0.00  0.00    +0.000 C 
ATOM     17  C   UNL     1      52.442   6.465   7.336  0.00  0.00    +0.000 C 
ENDBRANCH  10  11
ENDBRANCH   9  10
ENDBRANCH   8   9
ENDBRANCH   5   8
ENDBRANCH   1   2
BRANCH   1  20
ATOM     18  C   UNL     1      45.884   8.378  12.324  0.00  0.00    +0.000 C 
ATOM     19  O   UNL     1      45.115   9.264  12.682  0.00  0.00    +0.000 OA
ATOM     20  N   UNL     1      47.173   8.663  11.969  0.00  0.00    +0.000 N 
ATOM     21  H   UNL     1      47.761   7.936  11.574  0.00  0.00    +0.000 HD
BRANCH  18  29
ATOM     22  C   UNL     1      47.333   5.447  13.404  0.00  0.00    +0.000 A 
ATOM     23  N   UNL     1      47.613   4.196  13.823  0.00  0.00    +0.000 NA
ATOM     24  C   UNL     1      46.701   3.244  13.616  0.00  0.00    +0.000 A 
ATOM     25  N   UNL     1      45.524   3.381  13.011  0.00  0.00    +0.000 NA
ATOM     26  C   UNL     1      45.280   4.643  12.618  0.00  0.00    +0.000 A 
ATOM     27  S   UNL     1      43.829   5.003  11.812  0.00  0.00    +0.000 S 
ATOM     28  C   UNL     1      44.238   6.648  11.705  0.00  0.00    +0.000 A 
ATOM     29  C   UNL     1      45.464   6.963  12.282  0.00  0.00    +0.000 A 
ATOM     30  C   UNL     1      46.105   5.750  12.787  0.00  0.00    +0.000 A 
BRANCH  22  32
ATOM     31  C   UNL     1      48.565   6.735  14.934  0.00  0.00    +0.000 C 
ATOM     32  O   UNL     1      48.293   6.422  13.569  0.00  0.00    +0.000 OA
ENDBRANCH  22  32
ENDBRANCH  18  29
ENDBRANCH   1  20
TORSDOF 8
ENDMDL
MODEL 9
REMARK VINA RESULT:    -5.857      2.371      3.372
REMARK INTER + INTRA:          -9.476
REMARK INTER:                  -7.976
REMARK INTRA:                  -1.500
REMARK UNBOUND:                -0.881
REMARK  Name = 
REMARK  10 active torsions:
REMARK  status: ('A' for Active; 'I' for Inactive)
REMARK    1  A    between atoms: C_1  and  O_2
REMARK    2  A    between atoms: O_2  and  C_3
REMARK    3  A    between atoms: C_10  and  C_11
REMARK    4  A    between atoms: N_13  and  C_14
REMARK    5  A    between atoms: C_14  and  C_15
REMARK    6  A    between atoms: C_18  and  C_19
REMARK    7  A    between atoms: C_19  and  O_20
REMARK    8  A    between atoms: O_20  and  C_21
REMARK    9  A    between atoms: C_21  and  C_22
REMARK   10  A    between atoms: N_25  and  C_26
REMARK                            x       y       z     vdW  Elec       q    Type
REMARK                         _______ _______ _______ _____ _____    ______ ____
ROOT
ATOM      1  C   UNL     1      51.669   8.563  15.157  0.00  0.00    +0.000 C 
ENDROOT
BRANCH   1   2
ATOM      2  C   UNL     1      50.371   8.640  14.392  0.00  0.00    +0.000 A 
ATOM      3  C   UNL     1      50.353   9.185  13.099  0.00  0.00    +0.000 A 
ATOM      4  C   UNL     1      49.155   9.314  12.396  0.00  0.00    +0.000 A 
ATOM      5  C   UNL     1      47.949   8.911  12.974  0.00  0.00    +0.000 A 
ATOM      6  C   UNL     1      47.962   8.375  14.269  0.00  0.00    +0.000 A 
ATOM      7  C   UNL     1      49.164   8.228  14.969  0.00  0.00    +0.000 A 
BRANCH   5   8
ATOM      8  C   UNL     1      46.633   9.133  12.284  0.00  0.00    +0.000 C 
BRANCH   8   9
ATOM      9  O   UNL     1      45.547   8.420  12.896  0.00  0.00    +0.000 OA
BRANCH   9  10
ATOM     10  C   UNL     1      45.088   7.443  11.971  0.00  0.00    +0.000 C 
BRANCH  10  11
ATOM     11  C   UNL     1      46.105   6.345  11.640  0.00  0.00    +0.000 C 
ATOM     12  C   UNL     1      45.642   5.652  10.349  0.00  0.00    +0.000 C 
ATOM     13  C   UNL     1      44.387   4.806  10.592  0.00  0.00    +0.000 C 
ATOM     14  N   UNL     1      44.643   3.777  11.604  0.00  0.00    +0.000 NA
ATOM     15  C   UNL     1      43.447   2.958  11.810  0.00  0.00    +0.000 C 
ATOM     16  C   UNL     1      45.096   4.346  12.884  0.00  0.00    +0.000 C 
ATOM     17  C   UNL     1      46.301   5.278  12.725  0.00  0.00    +0.000 C 
ENDBRANCH  10  11
ENDBRANCH   9  10
ENDBRANCH   8   9
ENDBRANCH   5   8
ENDBRANCH   1   2
BRANCH   1  20
ATOM     18  C   UNL     1      51.869   6.917  16.983  0.00  0.00    +0.000 C 
ATOM     19  O   UNL     1      51.622   7.772  17.826  0.00  0.00    +0.000 OA
ATOM     20  N   UNL     1      51.903   7.227  15.651  0.00  0.00    +0.000 N 
ATOM     21  H   UNL     1      52.002   6.489  14.963  0.00  0.00    +0.000 HD
BRANCH  18  29
ATOM     22  C   UNL     1      50.011   4.017  16.972  0.00  0.00    +0.000 A 
ATOM     23  N   UNL     1      49.558   2.748  16.962  0.00  0.00    +0.000 NA
ATOM     24  C   UNL     1      50.404   1.774  17.305  0.00  0.00    +0.000 A 
ATOM     25  N   UNL     1      51.671   1.912  17.685  0.00  0.00    +0.000 NA
ATOM     26  C   UNL     1      52.086   3.191  17.672  0.00  0.00    +0.000 A 
ATOM     27  S   UNL     1      53.675   3.560  18.144  0.00  0.00    +0.000 S 
ATOM     28  C   UNL     1      53.435   5.214  17.838  0.00  0.00    +0.000 A 
ATOM     29  C   UNL     1      52.164   5.521  17.363  0.00  0.00    +0.000 A 
ATOM     30  C   UNL     1      51.345   4.311  17.310  0.00  0.00    +0.000 A 
BRANCH  22  32
ATOM     31  C   UNL     1      47.819   4.570  16.331  0.00  0.00    +0.000 C 
ATOM     32  O   UNL     1      49.127   5.030  16.668  0.00  0.00    +0.000 OA
ENDBRANCH  22  32
ENDBRANCH  18  29
ENDBRANCH   1  20
TORSDOF 8
ENDMDL
