MODEL 1
REMARK VINA RESULT:    -7.901      0.000      0.000
REMARK INTER + INTRA:         -10.981
REMARK INTER:                 -10.210
REMARK INTRA:                  -0.771
REMARK UNBOUND:                -0.771
REMARK  Name = 
REMARK  6 active torsions:
REMARK  status: ('A' for Active; 'I' for Inactive)
REMARK    1  A    between atoms: C_1  and  C_2
REMARK    2  A    between atoms: C_2  and  C_3
REMARK    3  A    between atoms: C_2  and  C_15
REMARK    4  A    between atoms: C_3  and  N_4
REMARK    5  A    between atoms: N_4  and  C_5
REMARK    6  A    between atoms: C_8  and  C_9
REMARK                            x       y       z     vdW  Elec       q    Type
REMARK                         _______ _______ _______ _____ _____    ______ ____
ROOT
ATOM      1  C   UNL     1      44.672   4.040   9.223  0.00  0.00    +0.000 A 
ATOM      2  N   UNL     1      45.476   4.705   8.363  0.00  0.00    +0.000 NA
ATOM      3  C   UNL     1      46.348   3.985   7.616  0.00  0.00    +0.000 A 
ATOM      4  C   UNL     1      46.481   2.606   7.683  0.00  0.00    +0.000 A 
ATOM      5  C   UNL     1      45.669   1.927   8.592  0.00  0.00    +0.000 A 
ATOM      6  C   UNL     1      44.764   2.650   9.361  0.00  0.00    +0.000 A 
ATOM      7  F   UNL     1      43.975   1.993  10.228  0.00  0.00    +0.000 F 
ENDROOT
BRANCH   4   8
ATOM      8  C   UNL     1      47.432   1.843   6.841  0.00  0.00    +0.000 C 
ATOM      9  N   UNL     1      48.588   2.442   6.430  0.00  0.00    +0.000 N 
ATOM     10  O   UNL     1      47.185   0.690   6.508  0.00  0.00    +0.000 OA
ATOM     11  H   UNL     1      48.877   3.387   6.619  0.00  0.00    +0.000 HD
ATOM     12  H   UNL     1      49.197   1.883   5.843  0.00  0.00    +0.000 HD
ENDBRANCH   4   8
BRANCH   1  13
ATOM     13  N   UNL     1      43.765   4.762  10.018  0.00  0.00    +0.000 N 
ATOM     14  H   UNL     1      42.973   5.047   9.446  0.00  0.00    +0.000 HD
BRANCH  13  15
ATOM     15  C   UNL     1      44.365   5.881  10.730  0.00  0.00    +0.000 C 
BRANCH  15  17
ATOM     16  C   UNL     1      44.317   4.329  12.777  0.00  0.00    +0.000 C 
ATOM     17  C   UNL     1      45.052   5.326  11.937  0.00  0.00    +0.000 C 
BRANCH  17  18
ATOM     18  C   UNL     1      46.328   5.886  12.410  0.00  0.00    +0.000 A 
ATOM     19  C   UNL     1      46.852   5.562  13.668  0.00  0.00    +0.000 A 
ATOM     20  C   UNL     1      48.055   6.127  14.105  0.00  0.00    +0.000 A 
ATOM     21  C   UNL     1      48.753   7.010  13.284  0.00  0.00    +0.000 A 
ATOM     22  C   UNL     1      48.248   7.332  12.027  0.00  0.00    +0.000 A 
ATOM     23  C   UNL     1      47.042   6.777  11.597  0.00  0.00    +0.000 A 
ENDBRANCH  17  18
ENDBRANCH  15  17
ENDBRANCH  13  15
ENDBRANCH   1  13
TORSDOF 5
ENDMDL
MODEL 2
REMARK VINA RESULT:    -7.588      1.545      2.073
REMARK INTER + INTRA:         -10.577
REMARK INTER:                  -9.725
REMARK INTRA:                  -0.852
REMARK UNBOUND:                -0.771
REMARK  Name = 
REMARK  6 active torsions:
REMARK  status: ('A' for Active; 'I' for Inactive)
REMARK    1  A    between atoms: C_1  and  C_2
REMARK    2  A    between atoms: C_2  and  C_3
REMARK    3  A    between atoms: C_2  and  C_15
REMARK    4  A    between atoms: C_3  and  N_4
REMARK    5  A    between atoms: N_4  and  C_5
REMARK    6  A    between atoms: C_8  and  C_9
REMARK                            x       y       z     vdW  Elec       q    Type
REMARK                         _______ _______ _______ _____ _____    ______ ____
ROOT
ATOM      1  C   UNL     1      44.709   3.009   9.626  0.00  0.00    +0.000 A 
ATOM      2  N   UNL     1      44.996   1.744   9.246  0.00  0.00    +0.000 NA
ATOM      3  C   UNL     1      45.874   1.565   8.229  0.00  0.00    +0.000 A 
ATOM      4  C   UNL     1      46.492   2.597   7.540  0.00  0.00    +0.000 A 
ATOM      5  C   UNL     1      46.172   3.902   7.917  0.00  0.00    +0.000 A 
ATOM      6  C   UNL     1      45.278   4.104   8.963  0.00  0.00    +0.000 A 
ATOM      7  F   UNL     1      44.980   5.360   9.332  0.00  0.00    +0.000 F 
ENDROOT
BRANCH   4   8
ATOM      8  C   UNL     1      47.462   2.371   6.443  0.00  0.00    +0.000 C 
ATOM      9  N   UNL     1      47.424   3.176   5.341  0.00  0.00    +0.000 N 
ATOM     10  O   UNL     1      48.287   1.467   6.516  0.00  0.00    +0.000 OA
ATOM     11  H   UNL     1      46.775   3.925   5.165  0.00  0.00    +0.000 HD
ATOM     12  H   UNL     1      48.098   2.970   4.613  0.00  0.00    +0.000 HD
ENDBRANCH   4   8
BRANCH   1  13
ATOM     13  N   UNL     1      43.794   3.226  10.670  0.00  0.00    +0.000 N 
ATOM     14  H   UNL     1      43.227   4.042  10.453  0.00  0.00    +0.000 HD
BRANCH  13  15
ATOM     15  C   UNL     1      44.411   3.315  11.986  0.00  0.00    +0.000 C 
BRANCH  15  17
ATOM     16  C   UNL     1      42.749   5.197  12.539  0.00  0.00    +0.000 C 
ATOM     17  C   UNL     1      44.159   4.696  12.504  0.00  0.00    +0.000 C 
BRANCH  17  18
ATOM     18  C   UNL     1      45.272   5.618  12.782  0.00  0.00    +0.000 A 
ATOM     19  C   UNL     1      45.133   7.004  12.635  0.00  0.00    +0.000 A 
ATOM     20  C   UNL     1      46.214   7.858  12.882  0.00  0.00    +0.000 A 
ATOM     21  C   UNL     1      47.440   7.335  13.290  0.00  0.00    +0.000 A 
ATOM     22  C   UNL     1      47.587   5.961  13.450  0.00  0.00    +0.000 A 
ATOM     23  C   UNL     1      46.512   5.109  13.192  0.00  0.00    +0.000 A 
ENDBRANCH  17  18
ENDBRANCH  15  17
ENDBRANCH  13  15
ENDBRANCH   1  13
TORSDOF 5
ENDMDL
MODEL 3
REMARK VINA RESULT:    -7.194      3.245      6.456
REMARK INTER + INTRA:         -10.068
REMARK INTER:                  -9.437
REMARK INTRA:                  -0.630
REMARK UNBOUND:                -0.771
REMARK  Name = 
REMARK  6 active torsions:
REMARK  status: ('A' for Active; 'I' for Inactive)
REMARK    1  A    between atoms: C_1  and  C_2
REMARK    2  A    between atoms: C_2  and  C_3
REMARK    3  A    between atoms: C_2  and  C_15
REMARK    4  A    between atoms: C_3  and  N_4
REMARK    5  A    between atoms: N_4  and  C_5
REMARK    6  A    between atoms: C_8  and  C_9
REMARK                            x       y       z     vdW  Elec       q    Type
REMARK                         _______ _______ _______ _____ _____    ______ ____
ROOT
ATOM      1  C   UNL     1      45.098   4.010  12.186  0.00  0.00    +0.000 A 
ATOM      2  N   UNL     1      45.920   3.223  12.915  0.00  0.00    +0.000 NA
ATOM      3  C   UNL     1      46.803   3.823  13.751  0.00  0.00    +0.000 A 
ATOM      4  C   UNL     1      46.927   5.196  13.902  0.00  0.00    +0.000 A 
ATOM      5  C   UNL     1      46.095   6.004  13.128  0.00  0.00    +0.000 A 
ATOM      6  C   UNL     1      45.180   5.406  12.269  0.00  0.00    +0.000 A 
ATOM      7  F   UNL     1      44.372   6.185  11.532  0.00  0.00    +0.000 F 
ENDROOT
BRANCH   4   8
ATOM      8  C   UNL     1      47.890   5.823  14.839  0.00  0.00    +0.000 C 
ATOM      9  N   UNL     1      48.123   7.165  14.756  0.00  0.00    +0.000 N 
ATOM     10  O   UNL     1      48.477   5.146  15.675  0.00  0.00    +0.000 OA
ATOM     11  H   UNL     1      47.720   7.807  14.094  0.00  0.00    +0.000 HD
ATOM     12  H   UNL     1      48.801   7.542  15.408  0.00  0.00    +0.000 HD
ENDBRANCH   4   8
BRANCH   1  13
ATOM     13  N   UNL     1      44.180   3.417  11.301  0.00  0.00    +0.000 N 
ATOM     14  H   UNL     1      43.434   2.981  11.838  0.00  0.00    +0.000 HD
BRANCH  13  15
ATOM     15  C   UNL     1      44.788   2.498  10.350  0.00  0.00    +0.000 C 
BRANCH  15  17
ATOM     16  C   UNL     1      44.097   4.416   8.785  0.00  0.00    +0.000 C 
ATOM     17  C   UNL     1      44.987   3.247   9.070  0.00  0.00    +0.000 C 
BRANCH  17  18
ATOM     18  C   UNL     1      45.888   2.737   8.024  0.00  0.00    +0.000 A 
ATOM     19  C   UNL     1      46.425   1.445   8.081  0.00  0.00    +0.000 A 
ATOM     20  C   UNL     1      47.298   0.992   7.085  0.00  0.00    +0.000 A 
ATOM     21  C   UNL     1      47.632   1.822   6.017  0.00  0.00    +0.000 A 
ATOM     22  C   UNL     1      47.096   3.104   5.943  0.00  0.00    +0.000 A 
ATOM     23  C   UNL     1      46.234   3.559   6.943  0.00  0.00    +0.000 A 
ENDBRANCH  17  18
ENDBRANCH  15  17
ENDBRANCH  13  15
ENDBRANCH   1  13
TORSDOF 5
ENDMDL
MODEL 4
REMARK VINA RESULT:    -7.121      3.494      5.907
REMARK INTER + INTRA:          -9.974
REMARK INTER:                  -9.294
REMARK INTRA:                  -0.680
REMARK UNBOUND:                -0.771
REMARK  Name = 
REMARK  6 active torsions:
REMARK  status: ('A' for Active; 'I' for Inactive)
REMARK    1  A    between atoms: C_1  and  C_2
REMARK    2  A    between atoms: C_2  and  C_3
REMARK    3  A    between atoms: C_2  and  C_15
REMARK    4  A    between atoms: C_3  and  N_4
REMARK    5  A    between atoms: N_4  and  C_5
REMARK    6  A    between atoms: C_8  and  C_9
REMARK                            x       y       z     vdW  Elec       q    Type
REMARK                         _______ _______ _______ _____ _____    ______ ____
ROOT
ATOM      1  C   UNL     1      44.797   5.685  12.856  0.00  0.00    +0.000 A 
ATOM      2  N   UNL     1      45.593   4.880  13.595  0.00  0.00    +0.000 NA
ATOM      3  C   UNL     1      46.892   5.234  13.750  0.00  0.00    +0.000 A 
ATOM      4  C   UNL     1      47.466   6.365  13.190  0.00  0.00    +0.000 A 
ATOM      5  C   UNL     1      46.648   7.179  12.406  0.00  0.00    +0.000 A 
ATOM      6  C   UNL     1      45.311   6.834  12.241  0.00  0.00    +0.000 A 
ATOM      7  F   UNL     1      44.521   7.624  11.495  0.00  0.00    +0.000 F 
ENDROOT
BRANCH   4   8
ATOM      8  C   UNL     1      48.887   6.736  13.392  0.00  0.00    +0.000 C 
ATOM      9  N   UNL     1      49.645   7.087  12.313  0.00  0.00    +0.000 N 
ATOM     10  O   UNL     1      49.382   6.722  14.514  0.00  0.00    +0.000 OA
ATOM     11  H   UNL     1      49.350   7.106  11.351  0.00  0.00    +0.000 HD
ATOM     12  H   UNL     1      50.614   7.317  12.503  0.00  0.00    +0.000 HD
ENDBRANCH   4   8
BRANCH   1  13
ATOM     13  N   UNL     1      43.448   5.338  12.668  0.00  0.00    +0.000 N 
ATOM     14  H   UNL     1      43.212   4.567  13.288  0.00  0.00    +0.000 HD
BRANCH  13  15
ATOM     15  C   UNL     1      43.098   5.061  11.282  0.00  0.00    +0.000 C 
BRANCH  15  17
ATOM     16  C   UNL     1      43.341   2.579  11.906  0.00  0.00    +0.000 C 
ATOM     17  C   UNL     1      43.622   3.699  10.954  0.00  0.00    +0.000 C 
BRANCH  17  18
ATOM     18  C   UNL     1      44.561   3.495   9.839  0.00  0.00    +0.000 A 
ATOM     19  C   UNL     1      45.150   4.574   9.166  0.00  0.00    +0.000 A 
ATOM     20  C   UNL     1      46.021   4.354   8.094  0.00  0.00    +0.000 A 
ATOM     21  C   UNL     1      46.322   3.054   7.691  0.00  0.00    +0.000 A 
ATOM     22  C   UNL     1      45.752   1.974   8.359  0.00  0.00    +0.000 A 
ATOM     23  C   UNL     1      44.874   2.194   9.421  0.00  0.00    +0.000 A 
ENDBRANCH  17  18
ENDBRANCH  15  17
ENDBRANCH  13  15
ENDBRANCH   1  13
TORSDOF 5
ENDMDL
MODEL 5
REMARK VINA RESULT:    -6.900      3.137      6.169
REMARK INTER + INTRA:          -9.688
REMARK INTER:                  -8.992
REMARK INTRA:                  -0.696
REMARK UNBOUND:                -0.771
REMARK  Name = 
REMARK  6 active torsions:
REMARK  status: ('A' for Active; 'I' for Inactive)
REMARK    1  A    between atoms: C_1  and  C_2
REMARK    2  A    between atoms: C_2  and  C_3
REMARK    3  A    between atoms: C_2  and  C_15
REMARK    4  A    between atoms: C_3  and  N_4
REMARK    5  A    between atoms: N_4  and  C_5
REMARK    6  A    between atoms: C_8  and  C_9
REMARK                            x       y       z     vdW  Elec       q    Type
REMARK                         _______ _______ _______ _____ _____    ______ ____
ROOT
ATOM      1  C   UNL     1      44.914   5.266  11.382  0.00  0.00    +0.000 A 
ATOM      2  N   UNL     1      45.085   6.581  11.119  0.00  0.00    +0.000 NA
ATOM      3  C   UNL     1      46.019   7.259  11.830  0.00  0.00    +0.000 A 
ATOM      4  C   UNL     1      46.806   6.695  12.823  0.00  0.00    +0.000 A 
ATOM      5  C   UNL     1      46.607   5.344  13.110  0.00  0.00    +0.000 A 
ATOM      6  C   UNL     1      45.657   4.632  12.386  0.00  0.00    +0.000 A 
ATOM      7  F   UNL     1      45.474   3.329  12.656  0.00  0.00    +0.000 F 
ENDROOT
BRANCH   4   8
ATOM      8  C   UNL     1      47.832   7.458  13.572  0.00  0.00    +0.000 C 
ATOM      9  N   UNL     1      49.116   6.996  13.602  0.00  0.00    +0.000 N 
ATOM     10  O   UNL     1      47.535   8.487  14.167  0.00  0.00    +0.000 OA
ATOM     11  H   UNL     1      49.464   6.153  13.176  0.00  0.00    +0.000 HD
ATOM     12  H   UNL     1      49.777   7.546  14.141  0.00  0.00    +0.000 HD
ENDBRANCH   4   8
BRANCH   1  13
ATOM     13  N   UNL     1      43.945   4.539  10.668  0.00  0.00    +0.000 N 
ATOM     14  H   UNL     1      43.797   3.643  11.125  0.00  0.00    +0.000 HD
BRANCH  13  15
ATOM     15  C   UNL     1      44.242   4.396   9.250  0.00  0.00    +0.000 C 
BRANCH  15  17
ATOM     16  C   UNL     1      44.163   1.927   9.962  0.00  0.00    +0.000 C 
ATOM     17  C   UNL     1      44.668   2.979   9.024  0.00  0.00    +0.000 C 
BRANCH  17  18
ATOM     18  C   UNL     1      45.711   2.647   8.042  0.00  0.00    +0.000 A 
ATOM     19  C   UNL     1      46.385   1.419   8.071  0.00  0.00    +0.000 A 
ATOM     20  C   UNL     1      47.390   1.136   7.140  0.00  0.00    +0.000 A 
ATOM     21  C   UNL     1      47.722   2.072   6.162  0.00  0.00    +0.000 A 
ATOM     22  C   UNL     1      47.052   3.291   6.115  0.00  0.00    +0.000 A 
ATOM     23  C   UNL     1      46.058   3.577   7.052  0.00  0.00    +0.000 A 
ENDBRANCH  17  18
ENDBRANCH  15  17
ENDBRANCH  13  15
ENDBRANCH   1  13
TORSDOF 5
ENDMDL
MODEL 6
REMARK VINA RESULT:    -6.683      3.359      6.539
REMARK INTER + INTRA:          -9.407
REMARK INTER:                  -8.891
REMARK INTRA:                  -0.516
REMARK UNBOUND:                -0.771
REMARK  Name = 
REMARK  6 active torsions:
REMARK  status: ('A' for Active; 'I' for Inactive)
REMARK    1  A    between atoms: C_1  and  C_2
REMARK    2  A    between atoms: C_2  and  C_3
REMARK    3  A    between atoms: C_2  and  C_15
REMARK    4  A    between atoms: C_3  and  N_4
REMARK    5  A    between atoms: N_4  and  C_5
REMARK    6  A    between atoms: C_8  and  C_9
REMARK                            x       y       z     vdW  Elec       q    Type
REMARK                         _______ _______ _______ _____ _____    ______ ____
ROOT
ATOM      1  C   UNL     1      45.268   5.592  11.817  0.00  0.00    +0.000 A 
ATOM      2  N   UNL     1      46.047   4.758  12.541  0.00  0.00    +0.000 NA
ATOM      3  C   UNL     1      47.031   5.301  13.299  0.00  0.00    +0.000 A 
ATOM      4  C   UNL     1      47.301   6.659  13.374  0.00  0.00    +0.000 A 
ATOM      5  C   UNL     1      46.512   7.513  12.603  0.00  0.00    +0.000 A 
ATOM      6  C   UNL     1      45.494   6.973  11.824  0.00  0.00    +0.000 A 
ATOM      7  F   UNL     1      44.728   7.798  11.091  0.00  0.00    +0.000 F 
ENDROOT
BRANCH   4   8
ATOM      8  C   UNL     1      48.373   7.225  14.226  0.00  0.00    +0.000 C 
ATOM      9  N   UNL     1      48.536   8.579  14.282  0.00  0.00    +0.000 N 
ATOM     10  O   UNL     1      49.113   6.490  14.870  0.00  0.00    +0.000 OA
ATOM     11  H   UNL     1      48.007   9.271  13.777  0.00  0.00    +0.000 HD
ATOM     12  H   UNL     1      49.292   8.915  14.867  0.00  0.00    +0.000 HD
ENDBRANCH   4   8
BRANCH   1  13
ATOM     13  N   UNL     1      44.247   5.056  11.012  0.00  0.00    +0.000 N 
ATOM     14  H   UNL     1      43.894   4.205  11.443  0.00  0.00    +0.000 HD
BRANCH  13  15
ATOM     15  C   UNL     1      44.635   4.853   9.623  0.00  0.00    +0.000 C 
BRANCH  15  17
ATOM     16  C   UNL     1      44.149   2.455  10.408  0.00  0.00    +0.000 C 
ATOM     17  C   UNL     1      44.771   3.379   9.409  0.00  0.00    +0.000 C 
BRANCH  17  18
ATOM     18  C   UNL     1      45.659   2.842   8.366  0.00  0.00    +0.000 A 
ATOM     19  C   UNL     1      46.148   3.647   7.329  0.00  0.00    +0.000 A 
ATOM     20  C   UNL     1      46.973   3.107   6.336  0.00  0.00    +0.000 A 
ATOM     21  C   UNL     1      47.327   1.759   6.377  0.00  0.00    +0.000 A 
ATOM     22  C   UNL     1      46.857   0.952   7.408  0.00  0.00    +0.000 A 
ATOM     23  C   UNL     1      46.025   1.489   8.392  0.00  0.00    +0.000 A 
ENDBRANCH  17  18
ENDBRANCH  15  17
ENDBRANCH  13  15
ENDBRANCH   1  13
TORSDOF 5
ENDMDL
MODEL 7
REMARK VINA RESULT:    -6.333      3.706      6.065
REMARK INTER + INTRA:          -8.956
REMARK INTER:                  -8.010
REMARK INTRA:                  -0.945
REMARK UNBOUND:                -0.771
REMARK  Name = 
REMARK  6 active torsions:
REMARK  status: ('A' for Active; 'I' for Inactive)
REMARK    1  A    between atoms: C_1  and  C_2
REMARK    2  A    between atoms: C_2  and  C_3
REMARK    3  A    between atoms: C_2  and  C_15
REMARK    4  A    between atoms: C_3  and  N_4
REMARK    5  A    between atoms: N_4  and  C_5
REMARK    6  A    between atoms: C_8  and  C_9
REMARK                            x       y       z     vdW  Elec       q    Type
REMARK                         _______ _______ _______ _____ _____    ______ ____
ROOT
ATOM      1  C   UNL     1      46.740   6.303  13.171  0.00  0.00    +0.000 A 
ATOM      2  N   UNL     1      47.969   5.936  13.597  0.00  0.00    +0.000 NA
ATOM      3  C   UNL     1      49.044   6.575  13.075  0.00  0.00    +0.000 A 
ATOM      4  C   UNL     1      48.969   7.577  12.119  0.00  0.00    +0.000 A 
ATOM      5  C   UNL     1      47.700   7.934  11.662  0.00  0.00    +0.000 A 
ATOM      6  C   UNL     1      46.585   7.292  12.192  0.00  0.00    +0.000 A 
ATOM      7  F   UNL     1      45.364   7.644  11.760  0.00  0.00    +0.000 F 
ENDROOT
BRANCH   4   8
ATOM      8  C   UNL     1      50.161   8.271  11.579  0.00  0.00    +0.000 C 
ATOM      9  N   UNL     1      51.301   7.557  11.346  0.00  0.00    +0.000 N 
ATOM     10  O   UNL     1      50.133   9.475  11.350  0.00  0.00    +0.000 OA
ATOM     11  H   UNL     1      51.444   6.576  11.523  0.00  0.00    +0.000 HD
ATOM     12  H   UNL     1      52.093   8.081  10.991  0.00  0.00    +0.000 HD
ENDBRANCH   4   8
BRANCH   1  13
ATOM     13  N   UNL     1      45.607   5.650  13.687  0.00  0.00    +0.000 N 
ATOM     14  H   UNL     1      45.664   5.635  14.703  0.00  0.00    +0.000 HD
BRANCH  13  15
ATOM     15  C   UNL     1      45.384   4.324  13.127  0.00  0.00    +0.000 C 
BRANCH  15  17
ATOM     16  C   UNL     1      42.990   4.857  12.358  0.00  0.00    +0.000 C 
ATOM     17  C   UNL     1      44.395   4.471  12.014  0.00  0.00    +0.000 C 
BRANCH  17  18
ATOM     18  C   UNL     1      44.726   4.052  10.643  0.00  0.00    +0.000 A 
ATOM     19  C   UNL     1      45.377   4.911   9.749  0.00  0.00    +0.000 A 
ATOM     20  C   UNL     1      45.660   4.498   8.442  0.00  0.00    +0.000 A 
ATOM     21  C   UNL     1      45.306   3.217   8.022  0.00  0.00    +0.000 A 
ATOM     22  C   UNL     1      44.669   2.350   8.904  0.00  0.00    +0.000 A 
ATOM     23  C   UNL     1      44.377   2.768  10.204  0.00  0.00    +0.000 A 
ENDBRANCH  17  18
ENDBRANCH  15  17
ENDBRANCH  13  15
ENDBRANCH   1  13
TORSDOF 5
ENDMDL
MODEL 8
REMARK VINA RESULT:    -6.246      4.140      5.939
REMARK INTER + INTRA:          -8.842
REMARK INTER:                  -8.423
REMARK INTRA:                  -0.420
REMARK UNBOUND:                -0.771
REMARK  Name = 
REMARK  6 active torsions:
REMARK  status: ('A' for Active; 'I' for Inactive)
REMARK    1  A    between atoms: C_1  and  C_2
REMARK    2  A    between atoms: C_2  and  C_3
REMARK    3  A    between atoms: C_2  and  C_15
REMARK    4  A    between atoms: C_3  and  N_4
REMARK    5  A    between atoms: N_4  and  C_5
REMARK    6  A    between atoms: C_8  and  C_9
REMARK                            x       y       z     vdW  Elec       q    Type
REMARK                         _______ _______ _______ _____ _____    ______ ____
ROOT
ATOM      1  C   UNL     1      46.475   4.883  13.857  0.00  0.00    +0.000 A 
ATOM      2  N   UNL     1      46.250   3.575  13.603  0.00  0.00    +0.000 NA
ATOM      3  C   UNL     1      45.538   3.252  12.495  0.00  0.00    +0.000 A 
ATOM      4  C   UNL     1      45.012   4.179  11.607  0.00  0.00    +0.000 A 
ATOM      5  C   UNL     1      45.224   5.529  11.888  0.00  0.00    +0.000 A 
ATOM      6  C   UNL     1      45.958   5.877  13.018  0.00  0.00    +0.000 A 
ATOM      7  F   UNL     1      46.170   7.177  13.281  0.00  0.00    +0.000 F 
ENDROOT
BRANCH   4   8
ATOM      8  C   UNL     1      44.253   3.796  10.393  0.00  0.00    +0.000 C 
ATOM      9  N   UNL     1      43.988   4.742   9.446  0.00  0.00    +0.000 N 
ATOM     10  O   UNL     1      43.858   2.646  10.241  0.00  0.00    +0.000 OA
ATOM     11  H   UNL     1      44.239   5.716   9.480  0.00  0.00    +0.000 HD
ATOM     12  H   UNL     1      43.453   4.433   8.642  0.00  0.00    +0.000 HD
ENDBRANCH   4   8
BRANCH   1  13
ATOM     13  N   UNL     1      47.200   5.248  15.005  0.00  0.00    +0.000 N 
ATOM     14  H   UNL     1      48.133   5.546  14.729  0.00  0.00    +0.000 HD
BRANCH  13  15
ATOM     15  C   UNL     1      47.231   4.219  16.035  0.00  0.00    +0.000 C 
BRANCH  15  17
ATOM     16  C   UNL     1      48.150   5.975  17.671  0.00  0.00    +0.000 C 
ATOM     17  C   UNL     1      48.264   4.624  17.039  0.00  0.00    +0.000 C 
BRANCH  17  18
ATOM     18  C   UNL     1      49.473   3.812  17.254  0.00  0.00    +0.000 A 
ATOM     19  C   UNL     1      49.490   2.436  16.996  0.00  0.00    +0.000 A 
ATOM     20  C   UNL     1      50.645   1.682  17.231  0.00  0.00    +0.000 A 
ATOM     21  C   UNL     1      51.797   2.299  17.715  0.00  0.00    +0.000 A 
ATOM     22  C   UNL     1      51.796   3.668  17.965  0.00  0.00    +0.000 A 
ATOM     23  C   UNL     1      50.640   4.417  17.741  0.00  0.00    +0.000 A 
ENDBRANCH  17  18
ENDBRANCH  15  17
ENDBRANCH  13  15
ENDBRANCH   1  13
TORSDOF 5
ENDMDL
MODEL 9
REMARK VINA RESULT:    -6.190      2.454      4.000
REMARK INTER + INTRA:          -8.771
REMARK INTER:                  -7.714
REMARK INTRA:                  -1.057
REMARK UNBOUND:                -0.771
REMARK  Name = 
REMARK  6 active torsions:
REMARK  status: ('A' for Active; 'I' for Inactive)
REMARK    1  A    between atoms: C_1  and  C_2
REMARK    2  A    between atoms: C_2  and  C_3
REMARK    3  A    between atoms: C_2  and  C_15
REMARK    4  A    between atoms: C_3  and  N_4
REMARK    5  A    between atoms: N_4  and  C_5
REMARK    6  A    between atoms: C_8  and  C_9
REMARK                            x       y       z     vdW  Elec       q    Type
REMARK                         _______ _______ _______ _____ _____    ______ ____
ROOT
ATOM      1  C   UNL     1      45.679   4.908  12.788  0.00  0.00    +0.000 A 
ATOM      2  N   UNL     1      45.352   3.597  12.828  0.00  0.00    +0.000 NA
ATOM      3  C   UNL     1      44.993   2.992  11.670  0.00  0.00    +0.000 A 
ATOM      4  C   UNL     1      44.926   3.632  10.442  0.00  0.00    +0.000 A 
ATOM      5  C   UNL     1      45.237   4.992  10.410  0.00  0.00    +0.000 A 
ATOM      6  C   UNL     1      45.613   5.627  11.588  0.00  0.00    +0.000 A 
ATOM      7  F   UNL     1      45.923   6.934  11.554  0.00  0.00    +0.000 F 
ENDROOT
BRANCH   4   8
ATOM      8  C   UNL     1      44.547   2.940   9.188  0.00  0.00    +0.000 C 
ATOM      9  N   UNL     1      44.221   3.681   8.089  0.00  0.00    +0.000 N 
ATOM     10  O   UNL     1      44.516   1.715   9.135  0.00  0.00    +0.000 OA
ATOM     11  H   UNL     1      44.186   4.685   8.028  0.00  0.00    +0.000 HD
ATOM     12  H   UNL     1      43.955   3.160   7.261  0.00  0.00    +0.000 HD
ENDBRANCH   4   8
BRANCH   1  13
ATOM     13  N   UNL     1      46.044   5.565  13.976  0.00  0.00    +0.000 N 
ATOM     14  H   UNL     1      46.106   6.565  13.799  0.00  0.00    +0.000 HD
BRANCH  13  15
ATOM     15  C   UNL     1      47.253   5.038  14.593  0.00  0.00    +0.000 C 
BRANCH  15  17
ATOM     16  C   UNL     1      48.779   6.397  16.153  0.00  0.00    +0.000 C 
ATOM     17  C   UNL     1      48.190   6.187  14.793  0.00  0.00    +0.000 C 
BRANCH  17  18
ATOM     18  C   UNL     1      48.375   7.206  13.748  0.00  0.00    +0.000 A 
ATOM     19  C   UNL     1      47.880   8.508  13.895  0.00  0.00    +0.000 A 
ATOM     20  C   UNL     1      48.049   9.454  12.877  0.00  0.00    +0.000 A 
ATOM     21  C   UNL     1      48.724   9.109  11.708  0.00  0.00    +0.000 A 
ATOM     22  C   UNL     1      49.231   7.822  11.555  0.00  0.00    +0.000 A 
ATOM     23  C   UNL     1      49.052   6.877  12.566  0.00  0.00    +0.000 A 
ENDBRANCH  17  18
ENDBRANCH  15  17
ENDBRANCH  13  15
ENDBRANCH   1  13
TORSDOF 5
ENDMDL
