MODEL 1
REMARK VINA RESULT:    -9.187      0.000      0.000
REMARK INTER + INTRA:         -14.024
REMARK INTER:                 -12.947
REMARK INTRA:                  -1.077
REMARK UNBOUND:                -1.077
REMARK  Name = 
REMARK  8 active torsions:
REMARK  status: ('A' for Active; 'I' for Inactive)
REMARK    1  A    between atoms: C_1  and  C_2
REMARK    2  A    between atoms: C_4  and  O_5
REMARK    3  A    between atoms: O_5  and  C_6
REMARK    4  A    between atoms: C_6  and  C_7
REMARK    5  A    between atoms: C_7  and  C_10
REMARK    6  A    between atoms: C_14  and  O_15
REMARK    7  A    between atoms: O_15  and  C_16
REMARK    8  A    between atoms: C_23  and  C_24
REMARK                            x       y       z     vdW  Elec       q    Type
REMARK                         _______ _______ _______ _____ _____    ______ ____
ROOT
ATOM      1  C   UNL     1      43.459   4.291  10.870  0.00  0.00    +0.000 C 
ENDROOT
BRANCH   1   2
ATOM      2  C   UNL     1      43.770   4.480  12.363  0.00  0.00    +0.000 C 
ATOM      3  F   UNL     1      42.802   5.271  12.916  0.00  0.00    +0.000 F 
ATOM      4  F   UNL     1      43.654   3.272  12.993  0.00  0.00    +0.000 F 
BRANCH   2   5
ATOM      5  C   UNL     1      45.158   5.075  12.545  0.00  0.00    +0.000 A 
ATOM      6  C   UNL     1      45.664   6.003  11.623  0.00  0.00    +0.000 A 
ATOM      7  C   UNL     1      46.924   6.578  11.813  0.00  0.00    +0.000 A 
ATOM      8  C   UNL     1      47.699   6.233  12.923  0.00  0.00    +0.000 A 
ATOM      9  C   UNL     1      47.215   5.306  13.843  0.00  0.00    +0.000 A 
ATOM     10  C   UNL     1      45.949   4.737  13.656  0.00  0.00    +0.000 A 
BRANCH   9  11
ATOM     11  O   UNL     1      47.868   4.913  14.984  0.00  0.00    +0.000 OA
BRANCH  11  12
ATOM     12  C   UNL     1      47.232   3.986  15.890  0.00  0.00    +0.000 C 
ATOM     13  C   UNL     1      47.165   4.388  17.386  0.00  0.00    +0.000 C 
ATOM     14  C   UNL     1      47.566   2.947  17.747  0.00  0.00    +0.000 C 
ATOM     15  C   UNL     1      48.149   2.813  16.333  0.00  0.00    +0.000 C 
ENDBRANCH  11  12
ENDBRANCH   9  11
ENDBRANCH   2   5
ENDBRANCH   1   2
BRANCH   1  16
ATOM     16  O   UNL     1      43.706   2.936  10.437  0.00  0.00    +0.000 OA
BRANCH  16  20
ATOM     17  C   UNL     1      46.696   0.232   7.677  0.00  0.00    +0.000 C 
ATOM     18  C   UNL     1      46.084   1.565   8.012  0.00  0.00    +0.000 A 
ATOM     19  C   UNL     1      45.168   1.654   9.078  0.00  0.00    +0.000 A 
ATOM     20  C   UNL     1      44.605   2.886   9.389  0.00  0.00    +0.000 A 
ATOM     21  N   UNL     1      44.895   4.019   8.720  0.00  0.00    +0.000 NA
ATOM     22  C   UNL     1      45.784   3.918   7.705  0.00  0.00    +0.000 A 
ATOM     23  C   UNL     1      46.391   2.737   7.296  0.00  0.00    +0.000 A 
BRANCH  23  24
ATOM     24  C   UNL     1      47.355   2.766   6.164  0.00  0.00    +0.000 C 
ATOM     25  N   UNL     1      48.689   2.672   6.463  0.00  0.00    +0.000 N 
ATOM     26  O   UNL     1      47.001   2.880   4.999  0.00  0.00    +0.000 OA
ATOM     27  H   UNL     1      49.073   2.773   7.392  0.00  0.00    +0.000 HD
ATOM     28  H   UNL     1      49.330   2.762   5.684  0.00  0.00    +0.000 HD
ENDBRANCH  23  24
ENDBRANCH  16  20
ENDBRANCH   1  16
TORSDOF 7
ENDMDL
MODEL 2
REMARK VINA RESULT:    -7.653      1.729      3.270
REMARK INTER + INTRA:         -11.861
REMARK INTER:                 -10.946
REMARK INTRA:                  -0.915
REMARK UNBOUND:                -1.077
REMARK  Name = 
REMARK  8 active torsions:
REMARK  status: ('A' for Active; 'I' for Inactive)
REMARK    1  A    between atoms: C_1  and  C_2
REMARK    2  A    between atoms: C_4  and  O_5
REMARK    3  A    between atoms: O_5  and  C_6
REMARK    4  A    between atoms: C_6  and  C_7
REMARK    5  A    between atoms: C_7  and  C_10
REMARK    6  A    between atoms: C_14  and  O_15
REMARK    7  A    between atoms: O_15  and  C_16
REMARK    8  A    between atoms: C_23  and  C_24
REMARK                            x       y       z     vdW  Elec       q    Type
REMARK                         _______ _______ _______ _____ _____    ______ ____
ROOT
ATOM      1  C   UNL     1      44.423   3.332  11.492  0.00  0.00    +0.000 C 
ENDROOT
BRANCH   1   2
ATOM      2  C   UNL     1      44.253   4.765  12.022  0.00  0.00    +0.000 C 
ATOM      3  F   UNL     1      43.772   5.552  11.014  0.00  0.00    +0.000 F 
ATOM      4  F   UNL     1      43.276   4.766  12.979  0.00  0.00    +0.000 F 
BRANCH   2   5
ATOM      5  C   UNL     1      45.572   5.289  12.569  0.00  0.00    +0.000 A 
ATOM      6  C   UNL     1      46.057   4.848  13.808  0.00  0.00    +0.000 A 
ATOM      7  C   UNL     1      47.288   5.302  14.291  0.00  0.00    +0.000 A 
ATOM      8  C   UNL     1      48.052   6.203  13.545  0.00  0.00    +0.000 A 
ATOM      9  C   UNL     1      47.580   6.658  12.316  0.00  0.00    +0.000 A 
ATOM     10  C   UNL     1      46.350   6.197  11.830  0.00  0.00    +0.000 A 
BRANCH   9  11
ATOM     11  O   UNL     1      48.252   7.516  11.483  0.00  0.00    +0.000 OA
BRANCH  11  12
ATOM     12  C   UNL     1      48.298   8.926  11.795  0.00  0.00    +0.000 C 
ATOM     13  C   UNL     1      49.513   9.431  12.614  0.00  0.00    +0.000 C 
ATOM     14  C   UNL     1      48.541  10.276  13.455  0.00  0.00    +0.000 C 
ATOM     15  C   UNL     1      47.418   9.328  13.009  0.00  0.00    +0.000 C 
ENDBRANCH  11  12
ENDBRANCH   9  11
ENDBRANCH   2   5
ENDBRANCH   1   2
BRANCH   1  16
ATOM     16  O   UNL     1      43.819   3.165  10.192  0.00  0.00    +0.000 OA
BRANCH  16  20
ATOM     17  C   UNL     1      46.703   0.132   7.672  0.00  0.00    +0.000 C 
ATOM     18  C   UNL     1      46.196   1.523   7.941  0.00  0.00    +0.000 A 
ATOM     19  C   UNL     1      45.234   1.721   8.950  0.00  0.00    +0.000 A 
ATOM     20  C   UNL     1      44.767   3.007   9.200  0.00  0.00    +0.000 A 
ATOM     21  N   UNL     1      45.195   4.091   8.525  0.00  0.00    +0.000 NA
ATOM     22  C   UNL     1      46.127   3.884   7.565  0.00  0.00    +0.000 A 
ATOM     23  C   UNL     1      46.647   2.643   7.219  0.00  0.00    +0.000 A 
BRANCH  23  24
ATOM     24  C   UNL     1      47.672   2.555   6.144  0.00  0.00    +0.000 C 
ATOM     25  N   UNL     1      48.989   2.524   6.524  0.00  0.00    +0.000 N 
ATOM     26  O   UNL     1      47.383   2.523   4.957  0.00  0.00    +0.000 OA
ATOM     27  H   UNL     1      49.319   2.742   7.453  0.00  0.00    +0.000 HD
ATOM     28  H   UNL     1      49.671   2.533   5.776  0.00  0.00    +0.000 HD
ENDBRANCH  23  24
ENDBRANCH  16  20
ENDBRANCH   1  16
TORSDOF 7
ENDMDL
MODEL 3
REMARK VINA RESULT:    -7.513      3.170      8.116
REMARK INTER + INTRA:         -11.664
REMARK INTER:                 -10.828
REMARK INTRA:                  -0.836
REMARK UNBOUND:                -1.077
REMARK  Name = 
REMARK  8 active torsions:
REMARK  status: ('A' for Active; 'I' for Inactive)
REMARK    1  A    between atoms: C_1  and  C_2
REMARK    2  A    between atoms: C_4  and  O_5
REMARK    3  A    between atoms: O_5  and  C_6
REMARK    4  A    between atoms: C_6  and  C_7
REMARK    5  A    between atoms: C_7  and  C_10
REMARK    6  A    between atoms: C_14  and  O_15
REMARK    7  A    between atoms: O_15  and  C_16
REMARK    8  A    between atoms: C_23  and  C_24
REMARK                            x       y       z     vdW  Elec       q    Type
REMARK                         _______ _______ _______ _____ _____    ______ ____
ROOT
ATOM      1  C   UNL     1      46.786   6.258  12.532  0.00  0.00    +0.000 C 
ENDROOT
BRANCH   1   2
ATOM      2  C   UNL     1      45.361   6.399  11.975  0.00  0.00    +0.000 C 
ATOM      3  F   UNL     1      44.502   6.609  13.017  0.00  0.00    +0.000 F 
ATOM      4  F   UNL     1      45.296   7.535  11.218  0.00  0.00    +0.000 F 
BRANCH   2   5
ATOM      5  C   UNL     1      44.982   5.166  11.169  0.00  0.00    +0.000 A 
ATOM      6  C   UNL     1      44.241   4.129  11.755  0.00  0.00    +0.000 A 
ATOM      7  C   UNL     1      43.860   3.015  11.002  0.00  0.00    +0.000 A 
ATOM      8  C   UNL     1      44.213   2.918   9.653  0.00  0.00    +0.000 A 
ATOM      9  C   UNL     1      44.956   3.936   9.059  0.00  0.00    +0.000 A 
ATOM     10  C   UNL     1      45.331   5.054   9.812  0.00  0.00    +0.000 A 
BRANCH   9  11
ATOM     11  O   UNL     1      45.334   3.967   7.740  0.00  0.00    +0.000 OA
BRANCH  11  12
ATOM     12  C   UNL     1      46.633   3.465   7.356  0.00  0.00    +0.000 C 
ATOM     13  C   UNL     1      46.868   3.183   5.850  0.00  0.00    +0.000 C 
ATOM     14  C   UNL     1      47.562   1.869   6.248  0.00  0.00    +0.000 C 
ATOM     15  C   UNL     1      46.807   1.939   7.583  0.00  0.00    +0.000 C 
ENDBRANCH  11  12
ENDBRANCH   9  11
ENDBRANCH   2   5
ENDBRANCH   1   2
BRANCH   1  16
ATOM     16  O   UNL     1      47.010   4.957  13.115  0.00  0.00    +0.000 OA
BRANCH  16  20
ATOM     17  C   UNL     1      47.303   2.985  17.575  0.00  0.00    +0.000 C 
ATOM     18  C   UNL     1      47.660   4.085  16.612  0.00  0.00    +0.000 A 
ATOM     19  C   UNL     1      47.172   4.028  15.292  0.00  0.00    +0.000 A 
ATOM     20  C   UNL     1      47.500   5.046  14.404  0.00  0.00    +0.000 A 
ATOM     21  N   UNL     1      48.264   6.103  14.742  0.00  0.00    +0.000 NA
ATOM     22  C   UNL     1      48.717   6.146  16.016  0.00  0.00    +0.000 A 
ATOM     23  C   UNL     1      48.468   5.176  16.980  0.00  0.00    +0.000 A 
BRANCH  23  24
ATOM     24  C   UNL     1      49.024   5.348  18.349  0.00  0.00    +0.000 C 
ATOM     25  N   UNL     1      48.291   6.084  19.244  0.00  0.00    +0.000 N 
ATOM     26  O   UNL     1      50.097   4.873  18.690  0.00  0.00    +0.000 OA
ATOM     27  H   UNL     1      47.505   6.667  18.993  0.00  0.00    +0.000 HD
ATOM     28  H   UNL     1      48.719   6.245  20.147  0.00  0.00    +0.000 HD
ENDBRANCH  23  24
ENDBRANCH  16  20
ENDBRANCH   1  16
TORSDOF 7
ENDMDL
MODEL 4
REMARK VINA RESULT:    -6.916      3.613      6.247
REMARK INTER + INTRA:         -10.824
REMARK INTER:                  -9.972
REMARK INTRA:                  -0.852
REMARK UNBOUND:                -1.077
REMARK  Name = 
REMARK  8 active torsions:
REMARK  status: ('A' for Active; 'I' for Inactive)
REMARK    1  A    between atoms: C_1  and  C_2
REMARK    2  A    between atoms: C_4  and  O_5
REMARK    3  A    between atoms: O_5  and  C_6
REMARK    4  A    between atoms: C_6  and  C_7
REMARK    5  A    between atoms: C_7  and  C_10
REMARK    6  A    between atoms: C_14  and  O_15
REMARK    7  A    between atoms: O_15  and  C_16
REMARK    8  A    between atoms: C_23  and  C_24
REMARK                            x       y       z     vdW  Elec       q    Type
REMARK                         _______ _______ _______ _____ _____    ______ ____
ROOT
ATOM      1  C   UNL     1      47.200   3.863  15.843  0.00  0.00    +0.000 C 
ENDROOT
BRANCH   1   2
ATOM      2  C   UNL     1      47.859   3.052  16.970  0.00  0.00    +0.000 C 
ATOM      3  F   UNL     1      46.884   2.395  17.666  0.00  0.00    +0.000 F 
ATOM      4  F   UNL     1      48.630   2.071  16.411  0.00  0.00    +0.000 F 
BRANCH   2   5
ATOM      5  C   UNL     1      48.680   3.964  17.870  0.00  0.00    +0.000 A 
ATOM      6  C   UNL     1      50.081   3.925  17.838  0.00  0.00    +0.000 A 
ATOM      7  C   UNL     1      50.834   4.790  18.637  0.00  0.00    +0.000 A 
ATOM      8  C   UNL     1      50.199   5.705  19.481  0.00  0.00    +0.000 A 
ATOM      9  C   UNL     1      48.808   5.751  19.531  0.00  0.00    +0.000 A 
ATOM     10  C   UNL     1      48.055   4.888  18.724  0.00  0.00    +0.000 A 
BRANCH   9  11
ATOM     11  O   UNL     1      48.075   6.624  20.294  0.00  0.00    +0.000 OA
BRANCH  11  12
ATOM     12  C   UNL     1      48.233   8.047  20.105  0.00  0.00    +0.000 C 
ATOM     13  C   UNL     1      47.315   8.980  20.936  0.00  0.00    +0.000 C 
ATOM     14  C   UNL     1      47.098   9.824  19.669  0.00  0.00    +0.000 C 
ATOM     15  C   UNL     1      47.510   8.595  18.845  0.00  0.00    +0.000 C 
ENDBRANCH  11  12
ENDBRANCH   9  11
ENDBRANCH   2   5
ENDBRANCH   1   2
BRANCH   1  16
ATOM     16  O   UNL     1      47.551   3.355  14.539  0.00  0.00    +0.000 OA
BRANCH  16  20
ATOM     17  C   UNL     1      45.863   7.000  11.758  0.00  0.00    +0.000 C 
ATOM     18  C   UNL     1      45.816   5.557  12.182  0.00  0.00    +0.000 A 
ATOM     19  C   UNL     1      46.706   5.102  13.174  0.00  0.00    +0.000 A 
ATOM     20  C   UNL     1      46.660   3.769  13.567  0.00  0.00    +0.000 A 
ATOM     21  N   UNL     1      45.794   2.877  13.049  0.00  0.00    +0.000 NA
ATOM     22  C   UNL     1      44.940   3.333  12.104  0.00  0.00    +0.000 A 
ATOM     23  C   UNL     1      44.912   4.637  11.622  0.00  0.00    +0.000 A 
BRANCH  23  24
ATOM     24  C   UNL     1      43.916   5.008  10.581  0.00  0.00    +0.000 C 
ATOM     25  N   UNL     1      44.202   4.676   9.282  0.00  0.00    +0.000 N 
ATOM     26  O   UNL     1      42.878   5.598  10.841  0.00  0.00    +0.000 OA
ATOM     27  H   UNL     1      45.110   4.372   8.958  0.00  0.00    +0.000 HD
ATOM     28  H   UNL     1      43.544   4.998   8.583  0.00  0.00    +0.000 HD
ENDBRANCH  23  24
ENDBRANCH  16  20
ENDBRANCH   1  16
TORSDOF 7
ENDMDL
MODEL 5
REMARK VINA RESULT:    -6.878      3.395      7.518
REMARK INTER + INTRA:         -10.769
REMARK INTER:                  -9.758
REMARK INTRA:                  -1.011
REMARK UNBOUND:                -1.077
REMARK  Name = 
REMARK  8 active torsions:
REMARK  status: ('A' for Active; 'I' for Inactive)
REMARK    1  A    between atoms: C_1  and  C_2
REMARK    2  A    between atoms: C_4  and  O_5
REMARK    3  A    between atoms: O_5  and  C_6
REMARK    4  A    between atoms: C_6  and  C_7
REMARK    5  A    between atoms: C_7  and  C_10
REMARK    6  A    between atoms: C_14  and  O_15
REMARK    7  A    between atoms: O_15  and  C_16
REMARK    8  A    between atoms: C_23  and  C_24
REMARK                            x       y       z     vdW  Elec       q    Type
REMARK                         _______ _______ _______ _____ _____    ______ ____
ROOT
ATOM      1  C   UNL     1      45.590   6.586  12.872  0.00  0.00    +0.000 C 
ENDROOT
BRANCH   1   2
ATOM      2  C   UNL     1      44.952   6.393  11.487  0.00  0.00    +0.000 C 
ATOM      3  F   UNL     1      43.875   7.228  11.380  0.00  0.00    +0.000 F 
ATOM      4  F   UNL     1      45.835   6.817  10.533  0.00  0.00    +0.000 F 
BRANCH   2   5
ATOM      5  C   UNL     1      44.561   4.938  11.280  0.00  0.00    +0.000 A 
ATOM      6  C   UNL     1      43.833   4.248  12.260  0.00  0.00    +0.000 A 
ATOM      7  C   UNL     1      43.441   2.922  12.052  0.00  0.00    +0.000 A 
ATOM      8  C   UNL     1      43.772   2.265  10.864  0.00  0.00    +0.000 A 
ATOM      9  C   UNL     1      44.502   2.934   9.884  0.00  0.00    +0.000 A 
ATOM     10  C   UNL     1      44.887   4.264  10.091  0.00  0.00    +0.000 A 
BRANCH   9  11
ATOM     11  O   UNL     1      44.858   2.405   8.669  0.00  0.00    +0.000 OA
BRANCH  11  12
ATOM     12  C   UNL     1      46.210   2.563   8.189  0.00  0.00    +0.000 C 
ATOM     13  C   UNL     1      46.395   3.179   6.778  0.00  0.00    +0.000 C 
ATOM     14  C   UNL     1      47.461   2.106   6.496  0.00  0.00    +0.000 C 
ATOM     15  C   UNL     1      46.826   1.261   7.609  0.00  0.00    +0.000 C 
ENDBRANCH  11  12
ENDBRANCH   9  11
ENDBRANCH   2   5
ENDBRANCH   1   2
BRANCH   1  16
ATOM     16  O   UNL     1      46.689   5.676  13.089  0.00  0.00    +0.000 OA
BRANCH  16  20
ATOM     17  C   UNL     1      50.428   8.395  11.508  0.00  0.00    +0.000 C 
ATOM     18  C   UNL     1      49.712   7.693  12.630  0.00  0.00    +0.000 A 
ATOM     19  C   UNL     1      48.519   6.996  12.355  0.00  0.00    +0.000 A 
ATOM     20  C   UNL     1      47.859   6.345  13.392  0.00  0.00    +0.000 A 
ATOM     21  N   UNL     1      48.308   6.337  14.662  0.00  0.00    +0.000 NA
ATOM     22  C   UNL     1      49.461   7.003  14.906  0.00  0.00    +0.000 A 
ATOM     23  C   UNL     1      50.190   7.704  13.953  0.00  0.00    +0.000 A 
BRANCH  23  24
ATOM     24  C   UNL     1      51.446   8.391  14.355  0.00  0.00    +0.000 C 
ATOM     25  N   UNL     1      52.606   7.661  14.326  0.00  0.00    +0.000 N 
ATOM     26  O   UNL     1      51.473   9.559  14.715  0.00  0.00    +0.000 OA
ATOM     27  H   UNL     1      52.645   6.656  14.236  0.00  0.00    +0.000 HD
ATOM     28  H   UNL     1      53.437   8.128  14.669  0.00  0.00    +0.000 HD
ENDBRANCH  23  24
ENDBRANCH  16  20
ENDBRANCH   1  16
TORSDOF 7
ENDMDL
MODEL 6
REMARK VINA RESULT:    -6.674      3.747      6.417
REMARK INTER + INTRA:         -10.482
REMARK INTER:                  -9.730
REMARK INTRA:                  -0.752
REMARK UNBOUND:                -1.077
REMARK  Name = 
REMARK  8 active torsions:
REMARK  status: ('A' for Active; 'I' for Inactive)
REMARK    1  A    between atoms: C_1  and  C_2
REMARK    2  A    between atoms: C_4  and  O_5
REMARK    3  A    between atoms: O_5  and  C_6
REMARK    4  A    between atoms: C_6  and  C_7
REMARK    5  A    between atoms: C_7  and  C_10
REMARK    6  A    between atoms: C_14  and  O_15
REMARK    7  A    between atoms: O_15  and  C_16
REMARK    8  A    between atoms: C_23  and  C_24
REMARK                            x       y       z     vdW  Elec       q    Type
REMARK                         _______ _______ _______ _____ _____    ______ ____
ROOT
ATOM      1  C   UNL     1      47.222   3.902  15.867  0.00  0.00    +0.000 C 
ENDROOT
BRANCH   1   2
ATOM      2  C   UNL     1      47.946   3.072  16.939  0.00  0.00    +0.000 C 
ATOM      3  F   UNL     1      47.011   2.458  17.724  0.00  0.00    +0.000 F 
ATOM      4  F   UNL     1      48.625   2.057  16.324  0.00  0.00    +0.000 F 
BRANCH   2   5
ATOM      5  C   UNL     1      48.878   3.956  17.754  0.00  0.00    +0.000 A 
ATOM      6  C   UNL     1      48.419   5.161  18.305  0.00  0.00    +0.000 A 
ATOM      7  C   UNL     1      49.266   5.952  19.087  0.00  0.00    +0.000 A 
ATOM      8  C   UNL     1      50.583   5.554  19.329  0.00  0.00    +0.000 A 
ATOM      9  C   UNL     1      51.057   4.363  18.781  0.00  0.00    +0.000 A 
ATOM     10  C   UNL     1      50.205   3.568  18.005  0.00  0.00    +0.000 A 
BRANCH   9  11
ATOM     11  O   UNL     1      52.317   3.854  18.973  0.00  0.00    +0.000 OA
BRANCH  11  12
ATOM     12  C   UNL     1      52.954   3.104  17.917  0.00  0.00    +0.000 C 
ATOM     13  C   UNL     1      53.516   1.705  18.278  0.00  0.00    +0.000 C 
ATOM     14  C   UNL     1      54.775   2.047  17.463  0.00  0.00    +0.000 C 
ATOM     15  C   UNL     1      54.422   3.531  17.643  0.00  0.00    +0.000 C 
ENDBRANCH  11  12
ENDBRANCH   9  11
ENDBRANCH   2   5
ENDBRANCH   1   2
BRANCH   1  16
ATOM     16  O   UNL     1      47.521   3.436  14.534  0.00  0.00    +0.000 OA
BRANCH  16  20
ATOM     17  C   UNL     1      45.212   7.165  12.382  0.00  0.00    +0.000 C 
ATOM     18  C   UNL     1      45.427   5.685  12.540  0.00  0.00    +0.000 A 
ATOM     19  C   UNL     1      46.379   5.223  13.470  0.00  0.00    +0.000 A 
ATOM     20  C   UNL     1      46.575   3.854  13.618  0.00  0.00    +0.000 A 
ATOM     21  N   UNL     1      45.890   2.931  12.915  0.00  0.00    +0.000 NA
ATOM     22  C   UNL     1      44.972   3.391  12.033  0.00  0.00    +0.000 A 
ATOM     23  C   UNL     1      44.709   4.735  11.791  0.00  0.00    +0.000 A 
BRANCH  23  24
ATOM     24  C   UNL     1      43.669   5.106  10.795  0.00  0.00    +0.000 C 
ATOM     25  N   UNL     1      43.944   4.871   9.472  0.00  0.00    +0.000 N 
ATOM     26  O   UNL     1      42.603   5.613  11.111  0.00  0.00    +0.000 OA
ATOM     27  H   UNL     1      44.860   4.644   9.112  0.00  0.00    +0.000 HD
ATOM     28  H   UNL     1      43.251   5.193   8.807  0.00  0.00    +0.000 HD
ENDBRANCH  23  24
ENDBRANCH  16  20
ENDBRANCH   1  16
TORSDOF 7
ENDMDL
MODEL 7
REMARK VINA RESULT:    -6.665      3.693      8.724
REMARK INTER + INTRA:         -10.469
REMARK INTER:                  -9.529
REMARK INTRA:                  -0.940
REMARK UNBOUND:                -1.077
REMARK  Name = 
REMARK  8 active torsions:
REMARK  status: ('A' for Active; 'I' for Inactive)
REMARK    1  A    between atoms: C_1  and  C_2
REMARK    2  A    between atoms: C_4  and  O_5
REMARK    3  A    between atoms: O_5  and  C_6
REMARK    4  A    between atoms: C_6  and  C_7
REMARK    5  A    between atoms: C_7  and  C_10
REMARK    6  A    between atoms: C_14  and  O_15
REMARK    7  A    between atoms: O_15  and  C_16
REMARK    8  A    between atoms: C_23  and  C_24
REMARK                            x       y       z     vdW  Elec       q    Type
REMARK                         _______ _______ _______ _____ _____    ______ ____
ROOT
ATOM      1  C   UNL     1      48.250   6.151  13.052  0.00  0.00    +0.000 C 
ENDROOT
BRANCH   1   2
ATOM      2  C   UNL     1      47.199   6.772  12.119  0.00  0.00    +0.000 C 
ATOM      3  F   UNL     1      46.744   7.933  12.679  0.00  0.00    +0.000 F 
ATOM      4  F   UNL     1      47.811   7.147  10.955  0.00  0.00    +0.000 F 
BRANCH   2   5
ATOM      5  C   UNL     1      46.068   5.787  11.863  0.00  0.00    +0.000 A 
ATOM      6  C   UNL     1      45.418   5.153  12.932  0.00  0.00    +0.000 A 
ATOM      7  C   UNL     1      44.353   4.278  12.697  0.00  0.00    +0.000 A 
ATOM      8  C   UNL     1      43.922   4.021  11.393  0.00  0.00    +0.000 A 
ATOM      9  C   UNL     1      44.563   4.637  10.320  0.00  0.00    +0.000 A 
ATOM     10  C   UNL     1      45.624   5.518  10.557  0.00  0.00    +0.000 A 
BRANCH   9  11
ATOM     11  O   UNL     1      44.212   4.487   9.002  0.00  0.00    +0.000 OA
BRANCH  11  12
ATOM     12  C   UNL     1      44.617   3.302   8.283  0.00  0.00    +0.000 C 
ATOM     13  C   UNL     1      45.370   2.209   9.084  0.00  0.00    +0.000 C 
ATOM     14  C   UNL     1      46.343   2.072   7.901  0.00  0.00    +0.000 C 
ATOM     15  C   UNL     1      45.923   3.483   7.463  0.00  0.00    +0.000 C 
ENDBRANCH  11  12
ENDBRANCH   9  11
ENDBRANCH   2   5
ENDBRANCH   1   2
BRANCH   1  16
ATOM     16  O   UNL     1      48.782   7.120  13.981  0.00  0.00    +0.000 OA
BRANCH  16  20
ATOM     17  C   UNL     1      48.924   8.286  18.723  0.00  0.00    +0.000 C 
ATOM     18  C   UNL     1      48.706   7.265  17.640  0.00  0.00    +0.000 A 
ATOM     19  C   UNL     1      48.844   7.651  16.292  0.00  0.00    +0.000 A 
ATOM     20  C   UNL     1      48.645   6.706  15.292  0.00  0.00    +0.000 A 
ATOM     21  N   UNL     1      48.330   5.420  15.544  0.00  0.00    +0.000 NA
ATOM     22  C   UNL     1      48.212   5.064  16.844  0.00  0.00    +0.000 A 
ATOM     23  C   UNL     1      48.368   5.929  17.921  0.00  0.00    +0.000 A 
BRANCH  23  24
ATOM     24  C   UNL     1      48.214   5.405  19.304  0.00  0.00    +0.000 C 
ATOM     25  N   UNL     1      46.979   5.513  19.890  0.00  0.00    +0.000 N 
ATOM     26  O   UNL     1      49.138   4.903  19.927  0.00  0.00    +0.000 OA
ATOM     27  H   UNL     1      46.225   6.082  19.530  0.00  0.00    +0.000 HD
ATOM     28  H   UNL     1      46.913   5.212  20.854  0.00  0.00    +0.000 HD
ENDBRANCH  23  24
ENDBRANCH  16  20
ENDBRANCH   1  16
TORSDOF 7
ENDMDL
MODEL 8
REMARK VINA RESULT:    -6.455      3.955      5.516
REMARK INTER + INTRA:         -10.174
REMARK INTER:                  -8.622
REMARK INTRA:                  -1.552
REMARK UNBOUND:                -1.077
REMARK  Name = 
REMARK  8 active torsions:
REMARK  status: ('A' for Active; 'I' for Inactive)
REMARK    1  A    between atoms: C_1  and  C_2
REMARK    2  A    between atoms: C_4  and  O_5
REMARK    3  A    between atoms: O_5  and  C_6
REMARK    4  A    between atoms: C_6  and  C_7
REMARK    5  A    between atoms: C_7  and  C_10
REMARK    6  A    between atoms: C_14  and  O_15
REMARK    7  A    between atoms: O_15  and  C_16
REMARK    8  A    between atoms: C_23  and  C_24
REMARK                            x       y       z     vdW  Elec       q    Type
REMARK                         _______ _______ _______ _____ _____    ______ ____
ROOT
ATOM      1  C   UNL     1      46.764   8.813  13.478  0.00  0.00    +0.000 C 
ENDROOT
BRANCH   1   2
ATOM      2  C   UNL     1      48.254   9.029  13.783  0.00  0.00    +0.000 C 
ATOM      3  F   UNL     1      48.994   8.450  12.791  0.00  0.00    +0.000 F 
ATOM      4  F   UNL     1      48.529  10.366  13.707  0.00  0.00    +0.000 F 
BRANCH   2   5
ATOM      5  C   UNL     1      48.603   8.464  15.152  0.00  0.00    +0.000 A 
ATOM      6  C   UNL     1      48.545   9.274  16.295  0.00  0.00    +0.000 A 
ATOM      7  C   UNL     1      48.828   8.743  17.557  0.00  0.00    +0.000 A 
ATOM      8  C   UNL     1      49.176   7.396  17.696  0.00  0.00    +0.000 A 
ATOM      9  C   UNL     1      49.246   6.581  16.569  0.00  0.00    +0.000 A 
ATOM     10  C   UNL     1      48.955   7.112  15.307  0.00  0.00    +0.000 A 
BRANCH   9  11
ATOM     11  O   UNL     1      49.545   5.241  16.584  0.00  0.00    +0.000 OA
BRANCH  11  12
ATOM     12  C   UNL     1      48.834   4.359  17.478  0.00  0.00    +0.000 C 
ATOM     13  C   UNL     1      48.788   2.855  17.105  0.00  0.00    +0.000 C 
ATOM     14  C   UNL     1      47.298   2.849  17.486  0.00  0.00    +0.000 C 
ATOM     15  C   UNL     1      47.294   4.370  17.276  0.00  0.00    +0.000 C 
ENDBRANCH  11  12
ENDBRANCH   9  11
ENDBRANCH   2   5
ENDBRANCH   1   2
BRANCH   1  16
ATOM     16  O   UNL     1      46.553   8.358  12.125  0.00  0.00    +0.000 OA
BRANCH  16  20
ATOM     17  C   UNL     1      46.766   3.709  13.610  0.00  0.00    +0.000 C 
ATOM     18  C   UNL     1      46.089   4.791  12.814  0.00  0.00    +0.000 A 
ATOM     19  C   UNL     1      46.627   6.092  12.825  0.00  0.00    +0.000 A 
ATOM     20  C   UNL     1      46.002   7.092  12.087  0.00  0.00    +0.000 A 
ATOM     21  N   UNL     1      44.898   6.879  11.345  0.00  0.00    +0.000 NA
ATOM     22  C   UNL     1      44.399   5.621  11.338  0.00  0.00    +0.000 A 
ATOM     23  C   UNL     1      44.930   4.553  12.053  0.00  0.00    +0.000 A 
BRANCH  23  24
ATOM     24  C   UNL     1      44.285   3.217  11.953  0.00  0.00    +0.000 C 
ATOM     25  N   UNL     1      44.503   2.490  10.811  0.00  0.00    +0.000 N 
ATOM     26  O   UNL     1      43.572   2.761  12.835  0.00  0.00    +0.000 OA
ATOM     27  H   UNL     1      44.907   2.866   9.966  0.00  0.00    +0.000 HD
ATOM     28  H   UNL     1      44.000   1.614  10.736  0.00  0.00    +0.000 HD
ENDBRANCH  23  24
ENDBRANCH  16  20
ENDBRANCH   1  16
TORSDOF 7
ENDMDL
