MODEL 1
REMARK VINA RESULT:    -8.541      0.000      0.000
REMARK INTER + INTRA:         -12.136
REMARK INTER:                 -11.287
REMARK INTRA:                  -0.849
REMARK UNBOUND:                -0.849
REMARK  Name = 
REMARK  6 active torsions:
REMARK  status: ('A' for Active; 'I' for Inactive)
REMARK    1  A    between atoms: N_1  and  C_2
REMARK    2  A    between atoms: C_2  and  N_3
REMARK    3  A    between atoms: C_2  and  C_16
REMARK    4  A    between atoms: C_4  and  C_6
REMARK    5  A    between atoms: C_19  and  C_20
REMARK    6  A    between atoms: C_20  and  N_21
REMARK                            x       y       z     vdW  Elec       q    Type
REMARK                         _______ _______ _______ _____ _____    ______ ____
ROOT
ATOM      1  C   UNL     1      47.134   7.637  13.474  0.00  0.00    +0.000 C 
ENDROOT
BRANCH   1   2
ATOM      2  C   UNL     1      46.273   6.539  12.882  0.00  0.00    +0.000 A 
ATOM      3  C   UNL     1      46.623   5.195  13.082  0.00  0.00    +0.000 A 
ATOM      4  C   UNL     1      45.873   4.158  12.511  0.00  0.00    +0.000 A 
ATOM      5  C   UNL     1      44.755   4.439  11.717  0.00  0.00    +0.000 A 
ATOM      6  C   UNL     1      44.379   5.778  11.541  0.00  0.00    +0.000 A 
ATOM      7  C   UNL     1      45.130   6.813  12.112  0.00  0.00    +0.000 A 
BRANCH   5   8
ATOM      8  C   UNL     1      43.987   3.335  11.032  0.00  0.00    +0.000 C 
BRANCH   8   9
ATOM      9  N   UNL     1      44.768   2.668  10.014  0.00  0.00    +0.000 N 
ATOM     10  C   UNL     1      44.974   3.302   8.811  0.00  0.00    +0.000 C 
ATOM     11  O   UNL     1      44.458   4.381   8.536  0.00  0.00    +0.000 OA
ATOM     12  N   UNL     1      45.796   2.634   7.936  0.00  0.00    +0.000 N 
ATOM     13  C   UNL     1      46.344   1.298   8.057  0.00  0.00    +0.000 C 
ATOM     14  C   UNL     1      47.567   1.349   7.161  0.00  0.00    +0.000 C 
ATOM     15  C   UNL     1      47.118   2.235   6.004  0.00  0.00    +0.000 C 
ATOM     16  C   UNL     1      46.093   3.184   6.622  0.00  0.00    +0.000 C 
ATOM     17  H   UNL     1      45.547   2.134  10.353  0.00  0.00    +0.000 HD
ENDBRANCH   8   9
ENDBRANCH   5   8
ENDBRANCH   1   2
BRANCH   1  18
ATOM     18  N   UNL     1      47.624   7.311  14.779  0.00  0.00    +0.000 N 
ATOM     19  C   UNL     1      48.939   6.974  14.985  0.00  0.00    +0.000 C 
ATOM     20  O   UNL     1      49.761   6.980  14.071  0.00  0.00    +0.000 OA
ATOM     21  H   UNL     1      46.935   7.042  15.476  0.00  0.00    +0.000 HD
BRANCH  19  22
ATOM     22  C   UNL     1      49.355   6.680  16.363  0.00  0.00    +0.000 A 
ATOM     23  C   UNL     1      50.363   7.443  16.939  0.00  0.00    +0.000 A 
ATOM     24  S   UNL     1      50.742   6.988  18.538  0.00  0.00    +0.000 S 
ATOM     25  C   UNL     1      49.601   5.727  18.501  0.00  0.00    +0.000 A 
ATOM     26  N   UNL     1      49.453   4.891  19.568  0.00  0.00    +0.000 NA
ATOM     27  C   UNL     1      48.575   3.965  19.394  0.00  0.00    +0.000 A 
ATOM     28  N   UNL     1      47.817   3.804  18.264  0.00  0.00    +0.000 N 
ATOM     29  C   UNL     1      47.900   4.649  17.183  0.00  0.00    +0.000 A 
ATOM     30  O   UNL     1      47.162   4.531  16.211  0.00  0.00    +0.000 OA
ATOM     31  C   UNL     1      48.909   5.685  17.304  0.00  0.00    +0.000 A 
ATOM     32  H   UNL     1      47.127   3.069  18.207  0.00  0.00    +0.000 HD
ENDBRANCH  19  22
ENDBRANCH   1  18
BRANCH   1  33
ATOM     33  N   UNL     1      46.384   8.869  13.635  0.00  0.00    +0.000 NA
ATOM     34  H   UNL     1      46.000   9.101  12.719  0.00  0.00    +0.000 HD
ATOM     35  H   UNL     1      47.036   9.612  13.860  0.00  0.00    +0.000 HD
ENDBRANCH   1  33
TORSDOF 6
ENDMDL
MODEL 2
REMARK VINA RESULT:    -7.802      1.696      1.936
REMARK INTER + INTRA:         -11.160
REMARK INTER:                 -10.234
REMARK INTRA:                  -0.925
REMARK UNBOUND:                -0.849
REMARK  Name = 
REMARK  6 active torsions:
REMARK  status: ('A' for Active; 'I' for Inactive)
REMARK    1  A    between atoms: N_1  and  C_2
REMARK    2  A    between atoms: C_2  and  N_3
REMARK    3  A    between atoms: C_2  and  C_16
REMARK    4  A    between atoms: C_4  and  C_6
REMARK    5  A    between atoms: C_19  and  C_20
REMARK    6  A    between atoms: C_20  and  N_21
REMARK                            x       y       z     vdW  Elec       q    Type
REMARK                         _______ _______ _______ _____ _____    ______ ____
ROOT
ATOM      1  C   UNL     1      47.859   7.203  14.019  0.00  0.00    +0.000 C 
ENDROOT
BRANCH   1   2
ATOM      2  C   UNL     1      46.781   6.603  13.139  0.00  0.00    +0.000 A 
ATOM      3  C   UNL     1      46.577   5.214  13.134  0.00  0.00    +0.000 A 
ATOM      4  C   UNL     1      45.620   4.625  12.298  0.00  0.00    +0.000 A 
ATOM      5  C   UNL     1      44.842   5.410  11.439  0.00  0.00    +0.000 A 
ATOM      6  C   UNL     1      45.015   6.801  11.464  0.00  0.00    +0.000 A 
ATOM      7  C   UNL     1      45.973   7.388  12.298  0.00  0.00    +0.000 A 
BRANCH   5   8
ATOM      8  C   UNL     1      43.863   4.779  10.478  0.00  0.00    +0.000 C 
BRANCH   8   9
ATOM      9  N   UNL     1      44.452   3.700   9.719  0.00  0.00    +0.000 N 
ATOM     10  C   UNL     1      45.340   4.001   8.712  0.00  0.00    +0.000 C 
ATOM     11  O   UNL     1      45.596   5.154   8.380  0.00  0.00    +0.000 OA
ATOM     12  N   UNL     1      45.914   2.913   8.099  0.00  0.00    +0.000 N 
ATOM     13  C   UNL     1      45.597   1.510   8.275  0.00  0.00    +0.000 C 
ATOM     14  C   UNL     1      46.873   0.815   7.839  0.00  0.00    +0.000 C 
ATOM     15  C   UNL     1      47.365   1.678   6.682  0.00  0.00    +0.000 C 
ATOM     16  C   UNL     1      46.864   3.083   7.011  0.00  0.00    +0.000 C 
ATOM     17  H   UNL     1      44.670   2.874  10.246  0.00  0.00    +0.000 HD
ENDBRANCH   8   9
ENDBRANCH   5   8
ENDBRANCH   1   2
BRANCH   1  18
ATOM     18  N   UNL     1      47.908   6.602  15.317  0.00  0.00    +0.000 N 
ATOM     19  C   UNL     1      49.105   6.364  15.949  0.00  0.00    +0.000 C 
ATOM     20  O   UNL     1      50.178   6.694  15.451  0.00  0.00    +0.000 OA
ATOM     21  H   UNL     1      47.085   6.091  15.621  0.00  0.00    +0.000 HD
BRANCH  19  22
ATOM     22  C   UNL     1      49.054   5.768  17.290  0.00  0.00    +0.000 A 
ATOM     23  C   UNL     1      49.538   4.478  17.473  0.00  0.00    +0.000 A 
ATOM     24  S   UNL     1      49.412   3.917  19.078  0.00  0.00    +0.000 S 
ATOM     25  C   UNL     1      48.666   5.362  19.577  0.00  0.00    +0.000 A 
ATOM     26  N   UNL     1      48.243   5.518  20.863  0.00  0.00    +0.000 NA
ATOM     27  C   UNL     1      47.671   6.649  21.096  0.00  0.00    +0.000 A 
ATOM     28  N   UNL     1      47.497   7.646  20.172  0.00  0.00    +0.000 N 
ATOM     29  C   UNL     1      47.947   7.549  18.876  0.00  0.00    +0.000 A 
ATOM     30  O   UNL     1      47.846   8.480  18.085  0.00  0.00    +0.000 OA
ATOM     31  C   UNL     1      48.558   6.276  18.544  0.00  0.00    +0.000 A 
ATOM     32  H   UNL     1      47.062   8.519  20.432  0.00  0.00    +0.000 HD
ENDBRANCH  19  22
ENDBRANCH   1  18
BRANCH   1  33
ATOM     33  N   UNL     1      47.627   8.617  14.251  0.00  0.00    +0.000 NA
ATOM     34  H   UNL     1      48.146   8.866  15.092  0.00  0.00    +0.000 HD
ATOM     35  H   UNL     1      46.647   8.745  14.479  0.00  0.00    +0.000 HD
ENDBRANCH   1  33
TORSDOF 6
ENDMDL
MODEL 3
REMARK VINA RESULT:    -7.727      4.853      9.245
REMARK INTER + INTRA:         -11.061
REMARK INTER:                 -10.265
REMARK INTRA:                  -0.795
REMARK UNBOUND:                -0.849
REMARK  Name = 
REMARK  6 active torsions:
REMARK  status: ('A' for Active; 'I' for Inactive)
REMARK    1  A    between atoms: N_1  and  C_2
REMARK    2  A    between atoms: C_2  and  N_3
REMARK    3  A    between atoms: C_2  and  C_16
REMARK    4  A    between atoms: C_4  and  C_6
REMARK    5  A    between atoms: C_19  and  C_20
REMARK    6  A    between atoms: C_20  and  N_21
REMARK                            x       y       z     vdW  Elec       q    Type
REMARK                         _______ _______ _______ _____ _____    ______ ____
ROOT
ATOM      1  C   UNL     1      47.525   3.570  16.908  0.00  0.00    +0.000 C 
ENDROOT
BRANCH   1   2
ATOM      2  C   UNL     1      48.996   3.431  17.248  0.00  0.00    +0.000 A 
ATOM      3  C   UNL     1      49.711   4.544  17.716  0.00  0.00    +0.000 A 
ATOM      4  C   UNL     1      51.081   4.459  17.996  0.00  0.00    +0.000 A 
ATOM      5  C   UNL     1      51.776   3.258  17.809  0.00  0.00    +0.000 A 
ATOM      6  C   UNL     1      51.060   2.133  17.374  0.00  0.00    +0.000 A 
ATOM      7  C   UNL     1      49.692   2.220  17.094  0.00  0.00    +0.000 A 
BRANCH   5   8
ATOM      8  C   UNL     1      53.266   3.175  18.031  0.00  0.00    +0.000 C 
BRANCH   8   9
ATOM      9  N   UNL     1      53.847   1.989  17.446  0.00  0.00    +0.000 N 
ATOM     10  C   UNL     1      54.278   0.979  18.275  0.00  0.00    +0.000 C 
ATOM     11  O   UNL     1      54.259   1.076  19.498  0.00  0.00    +0.000 OA
ATOM     12  N   UNL     1      54.738  -0.144  17.632  0.00  0.00    +0.000 N 
ATOM     13  C   UNL     1      54.964  -0.341  16.213  0.00  0.00    +0.000 C 
ATOM     14  C   UNL     1      54.886  -1.848  16.062  0.00  0.00    +0.000 C 
ATOM     15  C   UNL     1      55.533  -2.364  17.344  0.00  0.00    +0.000 C 
ATOM     16  C   UNL     1      55.234  -1.286  18.385  0.00  0.00    +0.000 C 
ATOM     17  H   UNL     1      53.426   1.684  16.587  0.00  0.00    +0.000 HD
ENDBRANCH   8   9
ENDBRANCH   5   8
ENDBRANCH   1   2
BRANCH   1  18
ATOM     18  N   UNL     1      47.279   4.581  15.925  0.00  0.00    +0.000 N 
ATOM     19  C   UNL     1      47.179   4.271  14.591  0.00  0.00    +0.000 C 
ATOM     20  O   UNL     1      47.251   3.114  14.187  0.00  0.00    +0.000 OA
ATOM     21  H   UNL     1      47.480   5.541  16.191  0.00  0.00    +0.000 HD
BRANCH  19  22
ATOM     22  C   UNL     1      46.898   5.373  13.660  0.00  0.00    +0.000 A 
ATOM     23  C   UNL     1      47.900   6.296  13.388  0.00  0.00    +0.000 A 
ATOM     24  S   UNL     1      47.431   7.518  12.295  0.00  0.00    +0.000 S 
ATOM     25  C   UNL     1      45.858   6.880  12.180  0.00  0.00    +0.000 A 
ATOM     26  N   UNL     1      44.909   7.501  11.424  0.00  0.00    +0.000 NA
ATOM     27  C   UNL     1      43.757   6.927  11.450  0.00  0.00    +0.000 A 
ATOM     28  N   UNL     1      43.465   5.782  12.144  0.00  0.00    +0.000 N 
ATOM     29  C   UNL     1      44.402   5.098  12.882  0.00  0.00    +0.000 A 
ATOM     30  O   UNL     1      44.139   4.036  13.437  0.00  0.00    +0.000 OA
ATOM     31  C   UNL     1      45.709   5.727  12.928  0.00  0.00    +0.000 A 
ATOM     32  H   UNL     1      42.544   5.372  12.097  0.00  0.00    +0.000 HD
ENDBRANCH  19  22
ENDBRANCH   1  18
BRANCH   1  33
ATOM     33  N   UNL     1      46.748   3.957  18.071  0.00  0.00    +0.000 NA
ATOM     34  H   UNL     1      47.156   3.475  18.871  0.00  0.00    +0.000 HD
ATOM     35  H   UNL     1      45.811   3.583  17.967  0.00  0.00    +0.000 HD
ENDBRANCH   1  33
TORSDOF 6
ENDMDL
MODEL 4
REMARK VINA RESULT:    -7.494      2.960      4.311
REMARK INTER + INTRA:         -10.753
REMARK INTER:                  -9.664
REMARK INTRA:                  -1.089
REMARK UNBOUND:                -0.849
REMARK  Name = 
REMARK  6 active torsions:
REMARK  status: ('A' for Active; 'I' for Inactive)
REMARK    1  A    between atoms: N_1  and  C_2
REMARK    2  A    between atoms: C_2  and  N_3
REMARK    3  A    between atoms: C_2  and  C_16
REMARK    4  A    between atoms: C_4  and  C_6
REMARK    5  A    between atoms: C_19  and  C_20
REMARK    6  A    between atoms: C_20  and  N_21
REMARK                            x       y       z     vdW  Elec       q    Type
REMARK                         _______ _______ _______ _____ _____    ______ ____
ROOT
ATOM      1  C   UNL     1      47.539   6.135  14.522  0.00  0.00    +0.000 C 
ENDROOT
BRANCH   1   2
ATOM      2  C   UNL     1      46.605   5.390  13.590  0.00  0.00    +0.000 A 
ATOM      3  C   UNL     1      46.577   3.987  13.605  0.00  0.00    +0.000 A 
ATOM      4  C   UNL     1      45.757   3.268  12.725  0.00  0.00    +0.000 A 
ATOM      5  C   UNL     1      44.946   3.935  11.799  0.00  0.00    +0.000 A 
ATOM      6  C   UNL     1      44.942   5.337  11.801  0.00  0.00    +0.000 A 
ATOM      7  C   UNL     1      45.762   6.053  12.681  0.00  0.00    +0.000 A 
BRANCH   5   8
ATOM      8  C   UNL     1      44.119   3.171  10.793  0.00  0.00    +0.000 C 
BRANCH   8   9
ATOM      9  N   UNL     1      44.926   2.576   9.753  0.00  0.00    +0.000 N 
ATOM     10  C   UNL     1      45.200   3.308   8.620  0.00  0.00    +0.000 C 
ATOM     11  O   UNL     1      44.723   4.421   8.423  0.00  0.00    +0.000 OA
ATOM     12  N   UNL     1      46.042   2.698   7.723  0.00  0.00    +0.000 N 
ATOM     13  C   UNL     1      46.552   1.341   7.747  0.00  0.00    +0.000 C 
ATOM     14  C   UNL     1      47.813   1.437   6.910  0.00  0.00    +0.000 C 
ATOM     15  C   UNL     1      47.436   2.434   5.819  0.00  0.00    +0.000 C 
ATOM     16  C   UNL     1      46.409   3.353   6.477  0.00  0.00    +0.000 C 
ATOM     17  H   UNL     1      45.677   1.992  10.074  0.00  0.00    +0.000 HD
ENDBRANCH   8   9
ENDBRANCH   5   8
ENDBRANCH   1   2
BRANCH   1  18
ATOM     18  N   UNL     1      48.600   6.797  13.826  0.00  0.00    +0.000 N 
ATOM     19  C   UNL     1      48.580   8.154  13.616  0.00  0.00    +0.000 C 
ATOM     20  O   UNL     1      47.677   8.864  14.052  0.00  0.00    +0.000 OA
ATOM     21  H   UNL     1      49.198   6.221  13.241  0.00  0.00    +0.000 HD
BRANCH  19  22
ATOM     22  C   UNL     1      49.726   8.748  12.916  0.00  0.00    +0.000 A 
ATOM     23  C   UNL     1      49.506   9.448  11.736  0.00  0.00    +0.000 A 
ATOM     24  S   UNL     1      50.926  10.076  11.033  0.00  0.00    +0.000 S 
ATOM     25  C   UNL     1      51.892   9.398  12.259  0.00  0.00    +0.000 A 
ATOM     26  N   UNL     1      53.249   9.523  12.225  0.00  0.00    +0.000 NA
ATOM     27  C   UNL     1      53.856   8.938  13.198  0.00  0.00    +0.000 A 
ATOM     28  N   UNL     1      53.238   8.255  14.212  0.00  0.00    +0.000 N 
ATOM     29  C   UNL     1      51.871   8.141  14.311  0.00  0.00    +0.000 A 
ATOM     30  O   UNL     1      51.335   7.589  15.265  0.00  0.00    +0.000 OA
ATOM     31  C   UNL     1      51.136   8.742  13.214  0.00  0.00    +0.000 A 
ATOM     32  H   UNL     1      53.777   7.842  14.959  0.00  0.00    +0.000 HD
ENDBRANCH  19  22
ENDBRANCH   1  18
BRANCH   1  33
ATOM     33  N   UNL     1      48.186   5.232  15.455  0.00  0.00    +0.000 NA
ATOM     34  H   UNL     1      49.190   5.327  15.307  0.00  0.00    +0.000 HD
ATOM     35  H   UNL     1      47.953   4.281  15.192  0.00  0.00    +0.000 HD
ENDBRANCH   1  33
TORSDOF 6
ENDMDL
MODEL 5
REMARK VINA RESULT:    -7.441      3.153      4.746
REMARK INTER + INTRA:         -10.683
REMARK INTER:                  -9.461
REMARK INTRA:                  -1.222
REMARK UNBOUND:                -0.849
REMARK  Name = 
REMARK  6 active torsions:
REMARK  status: ('A' for Active; 'I' for Inactive)
REMARK    1  A    between atoms: N_1  and  C_2
REMARK    2  A    between atoms: C_2  and  N_3
REMARK    3  A    between atoms: C_2  and  C_16
REMARK    4  A    between atoms: C_4  and  C_6
REMARK    5  A    between atoms: C_19  and  C_20
REMARK    6  A    between atoms: C_20  and  N_21
REMARK                            x       y       z     vdW  Elec       q    Type
REMARK                         _______ _______ _______ _____ _____    ______ ____
ROOT
ATOM      1  C   UNL     1      48.282   6.608  14.654  0.00  0.00    +0.000 C 
ENDROOT
BRANCH   1   2
ATOM      2  C   UNL     1      47.322   6.076  13.609  0.00  0.00    +0.000 A 
ATOM      3  C   UNL     1      47.043   6.840  12.465  0.00  0.00    +0.000 A 
ATOM      4  C   UNL     1      46.127   6.397  11.502  0.00  0.00    +0.000 A 
ATOM      5  C   UNL     1      45.460   5.176  11.661  0.00  0.00    +0.000 A 
ATOM      6  C   UNL     1      45.760   4.391  12.783  0.00  0.00    +0.000 A 
ATOM      7  C   UNL     1      46.674   4.836  13.744  0.00  0.00    +0.000 A 
BRANCH   5   8
ATOM      8  C   UNL     1      44.413   4.725  10.671  0.00  0.00    +0.000 C 
BRANCH   8   9
ATOM      9  N   UNL     1      44.871   3.637   9.839  0.00  0.00    +0.000 N 
ATOM     10  C   UNL     1      45.591   3.925   8.702  0.00  0.00    +0.000 C 
ATOM     11  O   UNL     1      45.795   5.074   8.324  0.00  0.00    +0.000 OA
ATOM     12  N   UNL     1      46.058   2.829   8.017  0.00  0.00    +0.000 N 
ATOM     13  C   UNL     1      45.769   1.429   8.254  0.00  0.00    +0.000 C 
ATOM     14  C   UNL     1      46.958   0.725   7.629  0.00  0.00    +0.000 C 
ATOM     15  C   UNL     1      47.265   1.576   6.401  0.00  0.00    +0.000 C 
ATOM     16  C   UNL     1      46.826   2.986   6.792  0.00  0.00    +0.000 C 
ATOM     17  H   UNL     1      45.167   2.814  10.333  0.00  0.00    +0.000 HD
ENDBRANCH   8   9
ENDBRANCH   5   8
ENDBRANCH   1   2
BRANCH   1  18
ATOM     18  N   UNL     1      49.538   7.010  14.097  0.00  0.00    +0.000 N 
ATOM     19  C   UNL     1      50.380   7.860  14.772  0.00  0.00    +0.000 C 
ATOM     20  O   UNL     1      50.116   8.275  15.898  0.00  0.00    +0.000 OA
ATOM     21  H   UNL     1      49.651   6.905  13.092  0.00  0.00    +0.000 HD
BRANCH  19  22
ATOM     22  C   UNL     1      51.658   8.195  14.131  0.00  0.00    +0.000 A 
ATOM     23  C   UNL     1      52.832   8.075  14.864  0.00  0.00    +0.000 A 
ATOM     24  S   UNL     1      54.234   8.501  13.995  0.00  0.00    +0.000 S 
ATOM     25  C   UNL     1      53.318   8.902  12.619  0.00  0.00    +0.000 A 
ATOM     26  N   UNL     1      53.922   9.400  11.502  0.00  0.00    +0.000 NA
ATOM     27  C   UNL     1      53.107   9.687  10.547  0.00  0.00    +0.000 A 
ATOM     28  N   UNL     1      51.750   9.508  10.592  0.00  0.00    +0.000 N 
ATOM     29  C   UNL     1      51.104   8.969  11.680  0.00  0.00    +0.000 A 
ATOM     30  O   UNL     1      49.898   8.750  11.673  0.00  0.00    +0.000 OA
ATOM     31  C   UNL     1      51.968   8.670  12.806  0.00  0.00    +0.000 A 
ATOM     32  H   UNL     1      51.174   9.732   9.794  0.00  0.00    +0.000 HD
ENDBRANCH  19  22
ENDBRANCH   1  18
BRANCH   1  33
ATOM     33  N   UNL     1      48.601   5.596  15.644  0.00  0.00    +0.000 NA
ATOM     34  H   UNL     1      48.024   4.783  15.430  0.00  0.00    +0.000 HD
ATOM     35  H   UNL     1      48.289   5.928  16.550  0.00  0.00    +0.000 HD
ENDBRANCH   1  33
TORSDOF 6
ENDMDL
MODEL 6
REMARK VINA RESULT:    -7.128      3.800      8.700
REMARK INTER + INTRA:         -10.268
REMARK INTER:                  -9.009
REMARK INTRA:                  -1.259
REMARK UNBOUND:                -0.849
REMARK  Name = 
REMARK  6 active torsions:
REMARK  status: ('A' for Active; 'I' for Inactive)
REMARK    1  A    between atoms: N_1  and  C_2
REMARK    2  A    between atoms: C_2  and  N_3
REMARK    3  A    between atoms: C_2  and  C_16
REMARK    4  A    between atoms: C_4  and  C_6
REMARK    5  A    between atoms: C_19  and  C_20
REMARK    6  A    between atoms: C_20  and  N_21
REMARK                            x       y       z     vdW  Elec       q    Type
REMARK                         _______ _______ _______ _____ _____    ______ ____
ROOT
ATOM      1  C   UNL     1      48.165   7.120  13.837  0.00  0.00    +0.000 C 
ENDROOT
BRANCH   1   2
ATOM      2  C   UNL     1      48.661   6.475  15.116  0.00  0.00    +0.000 A 
ATOM      3  C   UNL     1      49.832   6.948  15.728  0.00  0.00    +0.000 A 
ATOM      4  C   UNL     1      50.340   6.345  16.886  0.00  0.00    +0.000 A 
ATOM      5  C   UNL     1      49.692   5.245  17.462  0.00  0.00    +0.000 A 
ATOM      6  C   UNL     1      48.502   4.789  16.876  0.00  0.00    +0.000 A 
ATOM      7  C   UNL     1      47.997   5.392  15.719  0.00  0.00    +0.000 A 
BRANCH   5   8
ATOM      8  C   UNL     1      50.272   4.538  18.662  0.00  0.00    +0.000 C 
BRANCH   8   9
ATOM      9  N   UNL     1      51.019   3.356  18.299  0.00  0.00    +0.000 N 
ATOM     10  C   UNL     1      52.387   3.443  18.182  0.00  0.00    +0.000 C 
ATOM     11  O   UNL     1      52.994   4.502  18.300  0.00  0.00    +0.000 OA
ATOM     12  N   UNL     1      53.024   2.254  17.917  0.00  0.00    +0.000 N 
ATOM     13  C   UNL     1      52.435   0.968  17.601  0.00  0.00    +0.000 C 
ATOM     14  C   UNL     1      53.526  -0.011  17.990  0.00  0.00    +0.000 C 
ATOM     15  C   UNL     1      54.808   0.718  17.601  0.00  0.00    +0.000 C 
ATOM     16  C   UNL     1      54.469   2.200  17.759  0.00  0.00    +0.000 C 
ATOM     17  H   UNL     1      50.679   2.496  18.690  0.00  0.00    +0.000 HD
ENDBRANCH   8   9
ENDBRANCH   5   8
ENDBRANCH   1   2
BRANCH   1  18
ATOM     18  N   UNL     1      47.422   6.214  13.015  0.00  0.00    +0.000 N 
ATOM     19  C   UNL     1      46.555   6.670  12.053  0.00  0.00    +0.000 C 
ATOM     20  O   UNL     1      46.411   7.869  11.824  0.00  0.00    +0.000 OA
ATOM     21  H   UNL     1      47.320   5.261  13.353  0.00  0.00    +0.000 HD
BRANCH  19  22
ATOM     22  C   UNL     1      45.856   5.665  11.240  0.00  0.00    +0.000 A 
ATOM     23  C   UNL     1      45.941   5.742   9.855  0.00  0.00    +0.000 A 
ATOM     24  S   UNL     1      45.079   4.514   9.045  0.00  0.00    +0.000 S 
ATOM     25  C   UNL     1      44.528   3.862  10.516  0.00  0.00    +0.000 A 
ATOM     26  N   UNL     1      43.680   2.795  10.528  0.00  0.00    +0.000 NA
ATOM     27  C   UNL     1      43.320   2.422  11.708  0.00  0.00    +0.000 A 
ATOM     28  N   UNL     1      43.740   3.001  12.876  0.00  0.00    +0.000 N 
ATOM     29  C   UNL     1      44.629   4.050  12.913  0.00  0.00    +0.000 A 
ATOM     30  O   UNL     1      45.048   4.507  13.970  0.00  0.00    +0.000 OA
ATOM     31  C   UNL     1      45.031   4.543  11.609  0.00  0.00    +0.000 A 
ATOM     32  H   UNL     1      43.437   2.640  13.769  0.00  0.00    +0.000 HD
ENDBRANCH  19  22
ENDBRANCH   1  18
BRANCH   1  33
ATOM     33  N   UNL     1      49.268   7.580  13.015  0.00  0.00    +0.000 NA
ATOM     34  H   UNL     1      48.883   8.259  12.359  0.00  0.00    +0.000 HD
ATOM     35  H   UNL     1      49.592   6.801  12.452  0.00  0.00    +0.000 HD
ENDBRANCH   1  33
TORSDOF 6
ENDMDL
MODEL 7
REMARK VINA RESULT:    -6.851      4.832      7.867
REMARK INTER + INTRA:          -9.903
REMARK INTER:                  -8.991
REMARK INTRA:                  -0.911
REMARK UNBOUND:                -0.849
REMARK  Name = 
REMARK  6 active torsions:
REMARK  status: ('A' for Active; 'I' for Inactive)
REMARK    1  A    between atoms: N_1  and  C_2
REMARK    2  A    between atoms: C_2  and  N_3
REMARK    3  A    between atoms: C_2  and  C_16
REMARK    4  A    between atoms: C_4  and  C_6
REMARK    5  A    between atoms: C_19  and  C_20
REMARK    6  A    between atoms: C_20  and  N_21
REMARK                            x       y       z     vdW  Elec       q    Type
REMARK                         _______ _______ _______ _____ _____    ______ ____
ROOT
ATOM      1  C   UNL     1      45.852   8.201  12.896  0.00  0.00    +0.000 C 
ENDROOT
BRANCH   1   2
ATOM      2  C   UNL     1      47.221   8.579  12.366  0.00  0.00    +0.000 A 
ATOM      3  C   UNL     1      48.135   7.573  12.017  0.00  0.00    +0.000 A 
ATOM      4  C   UNL     1      49.424   7.889  11.567  0.00  0.00    +0.000 A 
ATOM      5  C   UNL     1      49.836   9.223  11.459  0.00  0.00    +0.000 A 
ATOM      6  C   UNL     1      48.916  10.234  11.773  0.00  0.00    +0.000 A 
ATOM      7  C   UNL     1      47.629   9.916  12.223  0.00  0.00    +0.000 A 
BRANCH   5   8
ATOM      8  C   UNL     1      51.246   9.574  11.052  0.00  0.00    +0.000 C 
BRANCH   8   9
ATOM      9  N   UNL     1      51.999   8.420  10.618  0.00  0.00    +0.000 N 
ATOM     10  C   UNL     1      52.727   8.499   9.453  0.00  0.00    +0.000 C 
ATOM     11  O   UNL     1      52.704   9.487   8.726  0.00  0.00    +0.000 OA
ATOM     12  N   UNL     1      53.478   7.386   9.161  0.00  0.00    +0.000 N 
ATOM     13  C   UNL     1      53.486   6.103   9.834  0.00  0.00    +0.000 C 
ATOM     14  C   UNL     1      54.847   5.539   9.477  0.00  0.00    +0.000 C 
ATOM     15  C   UNL     1      55.058   6.011   8.042  0.00  0.00    +0.000 C 
ATOM     16  C   UNL     1      54.290   7.329   7.955  0.00  0.00    +0.000 C 
ATOM     17  H   UNL     1      52.427   7.885  11.352  0.00  0.00    +0.000 HD
ENDBRANCH   8   9
ENDBRANCH   5   8
ENDBRANCH   1   2
BRANCH   1  18
ATOM     18  N   UNL     1      45.304   7.053  12.239  0.00  0.00    +0.000 N 
ATOM     19  C   UNL     1      45.438   5.794  12.771  0.00  0.00    +0.000 C 
ATOM     20  O   UNL     1      45.992   5.601  13.850  0.00  0.00    +0.000 OA
ATOM     21  H   UNL     1      45.089   7.146  11.250  0.00  0.00    +0.000 HD
BRANCH  19  22
ATOM     22  C   UNL     1      44.819   4.681  12.038  0.00  0.00    +0.000 A 
ATOM     23  C   UNL     1      44.010   3.788  12.728  0.00  0.00    +0.000 A 
ATOM     24  S   UNL     1      43.364   2.548  11.753  0.00  0.00    +0.000 S 
ATOM     25  C   UNL     1      44.179   3.137  10.380  0.00  0.00    +0.000 A 
ATOM     26  N   UNL     1      44.092   2.484   9.187  0.00  0.00    +0.000 NA
ATOM     27  C   UNL     1      44.780   3.024   8.241  0.00  0.00    +0.000 A 
ATOM     28  N   UNL     1      45.532   4.162   8.368  0.00  0.00    +0.000 N 
ATOM     29  C   UNL     1      45.613   4.877   9.539  0.00  0.00    +0.000 A 
ATOM     30  O   UNL     1      46.232   5.932   9.612  0.00  0.00    +0.000 OA
ATOM     31  C   UNL     1      44.894   4.288  10.654  0.00  0.00    +0.000 A 
ATOM     32  H   UNL     1      46.027   4.543   7.574  0.00  0.00    +0.000 HD
ENDBRANCH  19  22
ENDBRANCH   1  18
BRANCH   1  33
ATOM     33  N   UNL     1      44.891   9.268  12.686  0.00  0.00    +0.000 NA
ATOM     34  H   UNL     1      44.300   8.982  11.905  0.00  0.00    +0.000 HD
ATOM     35  H   UNL     1      45.392  10.090  12.370  0.00  0.00    +0.000 HD
ENDBRANCH   1  33
TORSDOF 6
ENDMDL
MODEL 8
REMARK VINA RESULT:    -5.799      4.707      8.718
REMARK INTER + INTRA:          -8.512
REMARK INTER:                  -7.387
REMARK INTRA:                  -1.125
REMARK UNBOUND:                -0.849
REMARK  Name = 
REMARK  6 active torsions:
REMARK  status: ('A' for Active; 'I' for Inactive)
REMARK    1  A    between atoms: N_1  and  C_2
REMARK    2  A    between atoms: C_2  and  N_3
REMARK    3  A    between atoms: C_2  and  C_16
REMARK    4  A    between atoms: C_4  and  C_6
REMARK    5  A    between atoms: C_19  and  C_20
REMARK    6  A    between atoms: C_20  and  N_21
REMARK                            x       y       z     vdW  Elec       q    Type
REMARK                         _______ _______ _______ _____ _____    ______ ____
ROOT
ATOM      1  C   UNL     1      45.281   7.012  11.995  0.00  0.00    +0.000 C 
ENDROOT
BRANCH   1   2
ATOM      2  C   UNL     1      46.584   7.756  12.208  0.00  0.00    +0.000 A 
ATOM      3  C   UNL     1      46.572   9.149  12.376  0.00  0.00    +0.000 A 
ATOM      4  C   UNL     1      47.763   9.871  12.530  0.00  0.00    +0.000 A 
ATOM      5  C   UNL     1      49.001   9.218  12.515  0.00  0.00    +0.000 A 
ATOM      6  C   UNL     1      49.019   7.822  12.383  0.00  0.00    +0.000 A 
ATOM      7  C   UNL     1      47.829   7.102  12.228  0.00  0.00    +0.000 A 
BRANCH   5   8
ATOM      8  C   UNL     1      50.294   9.993  12.600  0.00  0.00    +0.000 C 
BRANCH   8   9
ATOM      9  N   UNL     1      51.304   9.483  11.702  0.00  0.00    +0.000 N 
ATOM     10  C   UNL     1      51.465  10.079  10.473  0.00  0.00    +0.000 C 
ATOM     11  O   UNL     1      50.733  10.979  10.075  0.00  0.00    +0.000 OA
ATOM     12  N   UNL     1      52.502   9.586   9.719  0.00  0.00    +0.000 N 
ATOM     13  C   UNL     1      53.342   8.435   9.987  0.00  0.00    +0.000 C 
ATOM     14  C   UNL     1      54.596   8.736   9.188  0.00  0.00    +0.000 C 
ATOM     15  C   UNL     1      54.058   9.415   7.933  0.00  0.00    +0.000 C 
ATOM     16  C   UNL     1      52.781  10.116   8.393  0.00  0.00    +0.000 C 
ATOM     17  H   UNL     1      52.154   9.177  12.142  0.00  0.00    +0.000 HD
ENDBRANCH   8   9
ENDBRANCH   5   8
ENDBRANCH   1   2
BRANCH   1  18
ATOM     18  N   UNL     1      45.435   5.855  11.166  0.00  0.00    +0.000 N 
ATOM     19  C   UNL     1      44.379   5.018  10.904  0.00  0.00    +0.000 C 
ATOM     20  O   UNL     1      43.249   5.246  11.330  0.00  0.00    +0.000 OA
ATOM     21  H   UNL     1      46.380   5.507  11.031  0.00  0.00    +0.000 HD
BRANCH  19  22
ATOM     22  C   UNL     1      44.627   3.871  10.020  0.00  0.00    +0.000 A 
ATOM     23  C   UNL     1      43.981   2.669  10.278  0.00  0.00    +0.000 A 
ATOM     24  S   UNL     1      44.367   1.429   9.175  0.00  0.00    +0.000 S 
ATOM     25  C   UNL     1      45.447   2.442   8.338  0.00  0.00    +0.000 A 
ATOM     26  N   UNL     1      46.171   1.969   7.284  0.00  0.00    +0.000 NA
ATOM     27  C   UNL     1      46.968   2.835   6.762  0.00  0.00    +0.000 A 
ATOM     28  N   UNL     1      47.100   4.133   7.179  0.00  0.00    +0.000 N 
ATOM     29  C   UNL     1      46.358   4.666   8.207  0.00  0.00    +0.000 A 
ATOM     30  O   UNL     1      46.438   5.849   8.517  0.00  0.00    +0.000 OA
ATOM     31  C   UNL     1      45.475   3.721   8.864  0.00  0.00    +0.000 A 
ATOM     32  H   UNL     1      47.728   4.766   6.704  0.00  0.00    +0.000 HD
ENDBRANCH  19  22
ENDBRANCH   1  18
BRANCH   1  33
ATOM     33  N   UNL     1      44.299   7.844  11.327  0.00  0.00    +0.000 NA
ATOM     34  H   UNL     1      44.553   7.864  10.340  0.00  0.00    +0.000 HD
ATOM     35  H   UNL     1      44.407   8.795  11.661  0.00  0.00    +0.000 HD
ENDBRANCH   1  33
TORSDOF 6
ENDMDL
