MODEL 1
REMARK VINA RESULT:    -8.027      0.000      0.000
REMARK INTER + INTRA:         -12.799
REMARK INTER:                 -11.780
REMARK INTRA:                  -1.018
REMARK UNBOUND:                -1.018
REMARK  Name = 
REMARK  9 active torsions:
REMARK  status: ('A' for Active; 'I' for Inactive)
REMARK    1  A    between atoms: C_1  and  C_2
REMARK    2  A    between atoms: C_2  and  C_3
REMARK    3  A    between atoms: C_3  and  N_4
REMARK    4  A    between atoms: C_3  and  C_26
REMARK    5  A    between atoms: N_4  and  C_5
REMARK    6  A    between atoms: C_5  and  C_6
REMARK    7  A    between atoms: C_9  and  C_10
REMARK    8  A    between atoms: C_10  and  N_11
REMARK    9  A    between atoms: C_12  and  C_14
REMARK                            x       y       z     vdW  Elec       q    Type
REMARK                         _______ _______ _______ _____ _____    ______ ____
ROOT
ATOM      1  C   UNL     1      44.171   6.651  11.741  0.00  0.00    +0.000 A 
ATOM      2  C   UNL     1      44.966   5.968  12.672  0.00  0.00    +0.000 A 
ATOM      3  C   UNL     1      46.060   6.597  13.268  0.00  0.00    +0.000 A 
ATOM      4  C   UNL     1      46.372   7.924  12.948  0.00  0.00    +0.000 A 
ATOM      5  C   UNL     1      45.596   8.596  11.996  0.00  0.00    +0.000 A 
ATOM      6  C   UNL     1      44.502   7.968  11.400  0.00  0.00    +0.000 A 
ENDROOT
BRANCH   1   7
ATOM      7  C   UNL     1      43.046   5.941  11.030  0.00  0.00    +0.000 C 
BRANCH   7   8
ATOM      8  N   UNL     1      43.516   5.149   9.890  0.00  0.00    +0.000 NA
ATOM      9  H   UNL     1      44.097   5.754   9.308  0.00  0.00    +0.000 HD
BRANCH   8  10
ATOM     10  C   UNL     1      44.352   4.001  10.315  0.00  0.00    +0.000 C 
BRANCH  10  11
ATOM     11  C   UNL     1      45.170   3.450   9.142  0.00  0.00    +0.000 A 
ATOM     12  C   UNL     1      45.422   2.082   9.021  0.00  0.00    +0.000 A 
ATOM     13  C   UNL     1      46.271   1.633   8.013  0.00  0.00    +0.000 A 
ATOM     14  C   UNL     1      46.838   2.555   7.141  0.00  0.00    +0.000 A 
ATOM     15  C   UNL     1      46.520   3.891   7.309  0.00  0.00    +0.000 A 
ATOM     16  N   UNL     1      45.707   4.359   8.283  0.00  0.00    +0.000 NA
ENDBRANCH  10  11
BRANCH  10  18
ATOM     17  C   UNL     1      43.710   2.717  12.449  0.00  0.00    +0.000 C 
ATOM     18  C   UNL     1      43.506   2.870  10.948  0.00  0.00    +0.000 C 
ENDBRANCH  10  18
ENDBRANCH   8  10
ENDBRANCH   7   8
ENDBRANCH   1   7
BRANCH   4  19
ATOM     19  C   UNL     1      47.557   8.606  13.571  0.00  0.00    +0.000 C 
BRANCH  19  20
ATOM     20  N   UNL     1      47.895   8.003  14.835  0.00  0.00    +0.000 N 
ATOM     21  C   UNL     1      49.000   7.204  14.959  0.00  0.00    +0.000 C 
ATOM     22  O   UNL     1      49.765   7.004  14.019  0.00  0.00    +0.000 OA
ATOM     23  H   UNL     1      47.171   7.979  15.546  0.00  0.00    +0.000 HD
BRANCH  21  24
ATOM     24  C   UNL     1      49.262   6.648  16.291  0.00  0.00    +0.000 A 
ATOM     25  C   UNL     1      50.029   7.372  17.193  0.00  0.00    +0.000 A 
ATOM     26  S   UNL     1      50.199   6.614  18.710  0.00  0.00    +0.000 S 
ATOM     27  C   UNL     1      49.293   5.267  18.199  0.00  0.00    +0.000 A 
ATOM     28  N   UNL     1      49.075   4.216  19.033  0.00  0.00    +0.000 NA
ATOM     29  C   UNL     1      48.396   3.251  18.508  0.00  0.00    +0.000 A 
ATOM     30  N   UNL     1      47.914   3.243  17.227  0.00  0.00    +0.000 N 
ATOM     31  C   UNL     1      48.086   4.294  16.355  0.00  0.00    +0.000 A 
ATOM     32  O   UNL     1      47.611   4.269  15.228  0.00  0.00    +0.000 OA
ATOM     33  C   UNL     1      48.854   5.402  16.894  0.00  0.00    +0.000 A 
ATOM     34  H   UNL     1      47.385   2.457  16.876  0.00  0.00    +0.000 HD
ENDBRANCH  21  24
ENDBRANCH  19  20
ENDBRANCH   4  19
TORSDOF 8
ENDMDL
MODEL 2
REMARK VINA RESULT:    -7.751      1.657      2.166
REMARK INTER + INTRA:         -12.394
REMARK INTER:                 -11.400
REMARK INTRA:                  -0.994
REMARK UNBOUND:                -1.018
REMARK  Name = 
REMARK  9 active torsions:
REMARK  status: ('A' for Active; 'I' for Inactive)
REMARK    1  A    between atoms: C_1  and  C_2
REMARK    2  A    between atoms: C_2  and  C_3
REMARK    3  A    between atoms: C_3  and  N_4
REMARK    4  A    between atoms: C_3  and  C_26
REMARK    5  A    between atoms: N_4  and  C_5
REMARK    6  A    between atoms: C_5  and  C_6
REMARK    7  A    between atoms: C_9  and  C_10
REMARK    8  A    between atoms: C_10  and  N_11
REMARK    9  A    between atoms: C_12  and  C_14
REMARK                            x       y       z     vdW  Elec       q    Type
REMARK                         _______ _______ _______ _____ _____    ______ ____
ROOT
ATOM      1  C   UNL     1      45.011   5.724  11.597  0.00  0.00    +0.000 A 
ATOM      2  C   UNL     1      46.041   6.498  11.044  0.00  0.00    +0.000 A 
ATOM      3  C   UNL     1      47.198   6.768  11.776  0.00  0.00    +0.000 A 
ATOM      4  C   UNL     1      47.348   6.259  13.072  0.00  0.00    +0.000 A 
ATOM      5  C   UNL     1      46.307   5.510  13.635  0.00  0.00    +0.000 A 
ATOM      6  C   UNL     1      45.150   5.240  12.903  0.00  0.00    +0.000 A 
ENDROOT
BRANCH   1   7
ATOM      7  C   UNL     1      43.724   5.511  10.839  0.00  0.00    +0.000 C 
BRANCH   7   8
ATOM      8  N   UNL     1      43.892   4.611   9.696  0.00  0.00    +0.000 NA
ATOM      9  H   UNL     1      44.383   5.125   8.962  0.00  0.00    +0.000 HD
BRANCH   8  10
ATOM     10  C   UNL     1      44.712   3.423  10.035  0.00  0.00    +0.000 C 
BRANCH  10  11
ATOM     11  C   UNL     1      45.567   2.983   8.841  0.00  0.00    +0.000 A 
ATOM     12  C   UNL     1      45.891   3.879   7.821  0.00  0.00    +0.000 A 
ATOM     13  C   UNL     1      46.563   3.412   6.694  0.00  0.00    +0.000 A 
ATOM     14  C   UNL     1      46.908   2.068   6.617  0.00  0.00    +0.000 A 
ATOM     15  C   UNL     1      46.574   1.248   7.680  0.00  0.00    +0.000 A 
ATOM     16  N   UNL     1      45.915   1.669   8.783  0.00  0.00    +0.000 NA
ENDBRANCH  10  11
BRANCH  10  18
ATOM     17  C   UNL     1      43.448   2.341  11.996  0.00  0.00    +0.000 C 
ATOM     18  C   UNL     1      43.843   2.241  10.530  0.00  0.00    +0.000 C 
ENDBRANCH  10  18
ENDBRANCH   8  10
ENDBRANCH   7   8
ENDBRANCH   1   7
BRANCH   4  19
ATOM     19  C   UNL     1      48.582   6.556  13.877  0.00  0.00    +0.000 C 
BRANCH  19  20
ATOM     20  N   UNL     1      48.259   6.737  15.268  0.00  0.00    +0.000 N 
ATOM     21  C   UNL     1      49.225   6.634  16.233  0.00  0.00    +0.000 C 
ATOM     22  O   UNL     1      50.404   6.426  15.952  0.00  0.00    +0.000 OA
ATOM     23  H   UNL     1      47.279   6.690  15.528  0.00  0.00    +0.000 HD
BRANCH  21  24
ATOM     24  C   UNL     1      48.796   6.848  17.619  0.00  0.00    +0.000 A 
ATOM     25  C   UNL     1      48.428   8.122  18.029  0.00  0.00    +0.000 A 
ATOM     26  S   UNL     1      47.907   8.194  19.652  0.00  0.00    +0.000 S 
ATOM     27  C   UNL     1      48.200   6.533  19.876  0.00  0.00    +0.000 A 
ATOM     28  N   UNL     1      47.976   5.942  21.079  0.00  0.00    +0.000 NA
ATOM     29  C   UNL     1      48.266   4.684  21.118  0.00  0.00    +0.000 A 
ATOM     30  N   UNL     1      48.757   3.964  20.063  0.00  0.00    +0.000 N 
ATOM     31  C   UNL     1      48.976   4.512  18.819  0.00  0.00    +0.000 A 
ATOM     32  O   UNL     1      49.381   3.832  17.887  0.00  0.00    +0.000 OA
ATOM     33  C   UNL     1      48.674   5.929  18.725  0.00  0.00    +0.000 A 
ATOM     34  H   UNL     1      48.961   2.980  20.156  0.00  0.00    +0.000 HD
ENDBRANCH  21  24
ENDBRANCH  19  20
ENDBRANCH   4  19
TORSDOF 8
ENDMDL
MODEL 3
REMARK VINA RESULT:    -7.573      2.075      2.718
REMARK INTER + INTRA:         -12.133
REMARK INTER:                 -11.213
REMARK INTRA:                  -0.920
REMARK UNBOUND:                -1.018
REMARK  Name = 
REMARK  9 active torsions:
REMARK  status: ('A' for Active; 'I' for Inactive)
REMARK    1  A    between atoms: C_1  and  C_2
REMARK    2  A    between atoms: C_2  and  C_3
REMARK    3  A    between atoms: C_3  and  N_4
REMARK    4  A    between atoms: C_3  and  C_26
REMARK    5  A    between atoms: N_4  and  C_5
REMARK    6  A    between atoms: C_5  and  C_6
REMARK    7  A    between atoms: C_9  and  C_10
REMARK    8  A    between atoms: C_10  and  N_11
REMARK    9  A    between atoms: C_12  and  C_14
REMARK                            x       y       z     vdW  Elec       q    Type
REMARK                         _______ _______ _______ _____ _____    ______ ____
ROOT
ATOM      1  C   UNL     1      45.087   5.749  11.686  0.00  0.00    +0.000 A 
ATOM      2  C   UNL     1      45.991   6.716  11.225  0.00  0.00    +0.000 A 
ATOM      3  C   UNL     1      47.110   7.062  11.983  0.00  0.00    +0.000 A 
ATOM      4  C   UNL     1      47.348   6.438  13.214  0.00  0.00    +0.000 A 
ATOM      5  C   UNL     1      46.429   5.493  13.689  0.00  0.00    +0.000 A 
ATOM      6  C   UNL     1      45.311   5.147  12.930  0.00  0.00    +0.000 A 
ENDROOT
BRANCH   1   7
ATOM      7  C   UNL     1      43.832   5.443  10.907  0.00  0.00    +0.000 C 
BRANCH   7   8
ATOM      8  N   UNL     1      44.108   4.727   9.660  0.00  0.00    +0.000 NA
ATOM      9  H   UNL     1      44.703   5.323   9.082  0.00  0.00    +0.000 HD
BRANCH   8  10
ATOM     10  C   UNL     1      44.840   3.459   9.895  0.00  0.00    +0.000 C 
BRANCH  10  11
ATOM     11  C   UNL     1      45.618   3.031   8.645  0.00  0.00    +0.000 A 
ATOM     12  C   UNL     1      46.023   1.706   8.470  0.00  0.00    +0.000 A 
ATOM     13  C   UNL     1      46.833   1.381   7.384  0.00  0.00    +0.000 A 
ATOM     14  C   UNL     1      47.208   2.379   6.493  0.00  0.00    +0.000 A 
ATOM     15  C   UNL     1      46.744   3.663   6.720  0.00  0.00    +0.000 A 
ATOM     16  N   UNL     1      45.964   4.012   7.769  0.00  0.00    +0.000 NA
ENDBRANCH  10  11
BRANCH  10  18
ATOM     17  C   UNL     1      43.335   2.506  11.749  0.00  0.00    +0.000 C 
ATOM     18  C   UNL     1      43.894   2.319  10.346  0.00  0.00    +0.000 C 
ENDBRANCH  10  18
ENDBRANCH   8  10
ENDBRANCH   7   8
ENDBRANCH   1   7
BRANCH   4  19
ATOM     19  C   UNL     1      48.540   6.814  14.048  0.00  0.00    +0.000 C 
BRANCH  19  20
ATOM     20  N   UNL     1      48.259   6.655  15.452  0.00  0.00    +0.000 N 
ATOM     21  C   UNL     1      49.254   6.332  16.335  0.00  0.00    +0.000 C 
ATOM     22  O   UNL     1      50.423   6.208  15.979  0.00  0.00    +0.000 OA
ATOM     23  H   UNL     1      47.287   6.539  15.720  0.00  0.00    +0.000 HD
BRANCH  21  24
ATOM     24  C   UNL     1      48.865   6.204  17.744  0.00  0.00    +0.000 A 
ATOM     25  C   UNL     1      49.049   4.991  18.394  0.00  0.00    +0.000 A 
ATOM     26  S   UNL     1      48.596   5.020  20.038  0.00  0.00    +0.000 S 
ATOM     27  C   UNL     1      48.095   6.642  19.927  0.00  0.00    +0.000 A 
ATOM     28  N   UNL     1      47.572   7.286  21.004  0.00  0.00    +0.000 NA
ATOM     29  C   UNL     1      47.207   8.503  20.773  0.00  0.00    +0.000 A 
ATOM     30  N   UNL     1      47.322   9.136  19.565  0.00  0.00    +0.000 N 
ATOM     31  C   UNL     1      47.868   8.535  18.453  0.00  0.00    +0.000 A 
ATOM     32  O   UNL     1      47.988   9.141  17.398  0.00  0.00    +0.000 OA
ATOM     33  C   UNL     1      48.284   7.159  18.658  0.00  0.00    +0.000 A 
ATOM     34  H   UNL     1      47.021  10.093  19.449  0.00  0.00    +0.000 HD
ENDBRANCH  21  24
ENDBRANCH  19  20
ENDBRANCH   4  19
TORSDOF 8
ENDMDL
MODEL 4
REMARK VINA RESULT:    -7.226      2.940      8.245
REMARK INTER + INTRA:         -11.624
REMARK INTER:                  -9.945
REMARK INTRA:                  -1.679
REMARK UNBOUND:                -1.018
REMARK  Name = 
REMARK  9 active torsions:
REMARK  status: ('A' for Active; 'I' for Inactive)
REMARK    1  A    between atoms: C_1  and  C_2
REMARK    2  A    between atoms: C_2  and  C_3
REMARK    3  A    between atoms: C_3  and  N_4
REMARK    4  A    between atoms: C_3  and  C_26
REMARK    5  A    between atoms: N_4  and  C_5
REMARK    6  A    between atoms: C_5  and  C_6
REMARK    7  A    between atoms: C_9  and  C_10
REMARK    8  A    between atoms: C_10  and  N_11
REMARK    9  A    between atoms: C_12  and  C_14
REMARK                            x       y       z     vdW  Elec       q    Type
REMARK                         _______ _______ _______ _____ _____    ______ ____
ROOT
ATOM      1  C   UNL     1      49.142   7.877  16.010  0.00  0.00    +0.000 A 
ATOM      2  C   UNL     1      49.293   6.770  15.163  0.00  0.00    +0.000 A 
ATOM      3  C   UNL     1      48.707   6.758  13.897  0.00  0.00    +0.000 A 
ATOM      4  C   UNL     1      47.963   7.859  13.454  0.00  0.00    +0.000 A 
ATOM      5  C   UNL     1      47.787   8.953  14.311  0.00  0.00    +0.000 A 
ATOM      6  C   UNL     1      48.375   8.965  15.576  0.00  0.00    +0.000 A 
ENDROOT
BRANCH   1   7
ATOM      7  C   UNL     1      49.700   7.850  17.411  0.00  0.00    +0.000 C 
BRANCH   7   8
ATOM      8  N   UNL     1      48.707   7.423  18.400  0.00  0.00    +0.000 NA
ATOM      9  H   UNL     1      47.839   7.216  17.902  0.00  0.00    +0.000 HD
BRANCH   8  10
ATOM     10  C   UNL     1      49.120   6.187  19.108  0.00  0.00    +0.000 C 
BRANCH  10  11
ATOM     11  C   UNL     1      48.732   4.938  18.309  0.00  0.00    +0.000 A 
ATOM     12  C   UNL     1      49.679   3.957  18.004  0.00  0.00    +0.000 A 
ATOM     13  C   UNL     1      49.318   2.900  17.173  0.00  0.00    +0.000 A 
ATOM     14  C   UNL     1      48.022   2.837  16.677  0.00  0.00    +0.000 A 
ATOM     15  C   UNL     1      47.134   3.832  17.045  0.00  0.00    +0.000 A 
ATOM     16  N   UNL     1      47.456   4.876  17.842  0.00  0.00    +0.000 NA
ENDBRANCH  10  11
BRANCH  10  18
ATOM     17  C   UNL     1      47.441   7.145  20.803  0.00  0.00    +0.000 C 
ATOM     18  C   UNL     1      48.524   6.110  20.535  0.00  0.00    +0.000 C 
ENDBRANCH  10  18
ENDBRANCH   8  10
ENDBRANCH   7   8
ENDBRANCH   1   7
BRANCH   4  19
ATOM     19  C   UNL     1      47.313   7.851  12.099  0.00  0.00    +0.000 C 
BRANCH  19  20
ATOM     20  N   UNL     1      46.685   6.582  11.835  0.00  0.00    +0.000 N 
ATOM     21  C   UNL     1      45.328   6.487  11.688  0.00  0.00    +0.000 C 
ATOM     22  O   UNL     1      44.599   7.475  11.732  0.00  0.00    +0.000 OA
ATOM     23  H   UNL     1      47.235   5.747  12.012  0.00  0.00    +0.000 HD
BRANCH  21  24
ATOM     24  C   UNL     1      44.789   5.151  11.410  0.00  0.00    +0.000 A 
ATOM     25  C   UNL     1      44.033   4.506  12.380  0.00  0.00    +0.000 A 
ATOM     26  S   UNL     1      43.439   2.986  11.886  0.00  0.00    +0.000 S 
ATOM     27  C   UNL     1      44.210   3.116  10.374  0.00  0.00    +0.000 A 
ATOM     28  N   UNL     1      44.119   2.117   9.457  0.00  0.00    +0.000 NA
ATOM     29  C   UNL     1      44.774   2.334   8.365  0.00  0.00    +0.000 A 
ATOM     30  N   UNL     1      45.509   3.459   8.107  0.00  0.00    +0.000 N 
ATOM     31  C   UNL     1      45.610   4.508   8.994  0.00  0.00    +0.000 A 
ATOM     32  O   UNL     1      46.246   5.515   8.717  0.00  0.00    +0.000 OA
ATOM     33  C   UNL     1      44.898   4.308  10.243  0.00  0.00    +0.000 A 
ATOM     34  H   UNL     1      45.997   3.571   7.231  0.00  0.00    +0.000 HD
ENDBRANCH  21  24
ENDBRANCH  19  20
ENDBRANCH   4  19
TORSDOF 8
ENDMDL
MODEL 5
REMARK VINA RESULT:    -6.601      3.099      7.939
REMARK INTER + INTRA:         -10.707
REMARK INTER:                  -8.627
REMARK INTRA:                  -2.080
REMARK UNBOUND:                -1.018
REMARK  Name = 
REMARK  9 active torsions:
REMARK  status: ('A' for Active; 'I' for Inactive)
REMARK    1  A    between atoms: C_1  and  C_2
REMARK    2  A    between atoms: C_2  and  C_3
REMARK    3  A    between atoms: C_3  and  N_4
REMARK    4  A    between atoms: C_3  and  C_26
REMARK    5  A    between atoms: N_4  and  C_5
REMARK    6  A    between atoms: C_5  and  C_6
REMARK    7  A    between atoms: C_9  and  C_10
REMARK    8  A    between atoms: C_10  and  N_11
REMARK    9  A    between atoms: C_12  and  C_14
REMARK                            x       y       z     vdW  Elec       q    Type
REMARK                         _______ _______ _______ _____ _____    ______ ____
ROOT
ATOM      1  C   UNL     1      51.260   7.366  17.255  0.00  0.00    +0.000 A 
ATOM      2  C   UNL     1      51.306   7.324  15.855  0.00  0.00    +0.000 A 
ATOM      3  C   UNL     1      50.313   7.941  15.092  0.00  0.00    +0.000 A 
ATOM      4  C   UNL     1      49.259   8.617  15.720  0.00  0.00    +0.000 A 
ATOM      5  C   UNL     1      49.197   8.634  17.119  0.00  0.00    +0.000 A 
ATOM      6  C   UNL     1      50.191   8.018  17.881  0.00  0.00    +0.000 A 
ENDROOT
BRANCH   1   7
ATOM      7  C   UNL     1      52.284   6.622  18.076  0.00  0.00    +0.000 C 
BRANCH   7   8
ATOM      8  N   UNL     1      51.732   5.416  18.697  0.00  0.00    +0.000 NA
ATOM      9  H   UNL     1      50.791   5.637  19.029  0.00  0.00    +0.000 HD
BRANCH   8  10
ATOM     10  C   UNL     1      51.613   4.296  17.733  0.00  0.00    +0.000 C 
BRANCH  10  11
ATOM     11  C   UNL     1      50.146   3.908  17.515  0.00  0.00    +0.000 A 
ATOM     12  C   UNL     1      49.117   4.606  18.150  0.00  0.00    +0.000 A 
ATOM     13  C   UNL     1      47.807   4.149  18.026  0.00  0.00    +0.000 A 
ATOM     14  C   UNL     1      47.553   3.016  17.263  0.00  0.00    +0.000 A 
ATOM     15  C   UNL     1      48.622   2.394  16.643  0.00  0.00    +0.000 A 
ATOM     16  N   UNL     1      49.905   2.809  16.751  0.00  0.00    +0.000 NA
ENDBRANCH  10  11
BRANCH  10  18
ATOM     17  C   UNL     1      53.273   3.295  19.423  0.00  0.00    +0.000 C 
ATOM     18  C   UNL     1      52.427   3.057  18.180  0.00  0.00    +0.000 C 
ENDBRANCH  10  18
ENDBRANCH   8  10
ENDBRANCH   7   8
ENDBRANCH   1   7
BRANCH   4  19
ATOM     19  C   UNL     1      48.175   9.271  14.911  0.00  0.00    +0.000 C 
BRANCH  19  20
ATOM     20  N   UNL     1      47.277   8.288  14.363  0.00  0.00    +0.000 N 
ATOM     21  C   UNL     1      46.983   8.273  13.025  0.00  0.00    +0.000 C 
ATOM     22  O   UNL     1      47.500   9.062  12.238  0.00  0.00    +0.000 OA
ATOM     23  H   UNL     1      46.685   7.784  15.016  0.00  0.00    +0.000 HD
BRANCH  21  24
ATOM     24  C   UNL     1      46.066   7.224  12.565  0.00  0.00    +0.000 A 
ATOM     25  C   UNL     1      44.967   7.572  11.791  0.00  0.00    +0.000 A 
ATOM     26  S   UNL     1      44.029   6.237  11.295  0.00  0.00    +0.000 S 
ATOM     27  C   UNL     1      45.032   5.151  12.138  0.00  0.00    +0.000 A 
ATOM     28  N   UNL     1      44.767   3.818  12.143  0.00  0.00    +0.000 NA
ATOM     29  C   UNL     1      45.591   3.113  12.844  0.00  0.00    +0.000 A 
ATOM     30  N   UNL     1      46.657   3.620  13.538  0.00  0.00    +0.000 N 
ATOM     31  C   UNL     1      46.980   4.958  13.543  0.00  0.00    +0.000 A 
ATOM     32  O   UNL     1      47.960   5.373  14.145  0.00  0.00    +0.000 OA
ATOM     33  C   UNL     1      46.076   5.797  12.776  0.00  0.00    +0.000 A 
ATOM     34  H   UNL     1      47.268   3.014  14.066  0.00  0.00    +0.000 HD
ENDBRANCH  21  24
ENDBRANCH  19  20
ENDBRANCH   4  19
TORSDOF 8
ENDMDL
MODEL 6
REMARK VINA RESULT:    -6.599      3.072      7.966
REMARK INTER + INTRA:         -10.703
REMARK INTER:                  -9.433
REMARK INTRA:                  -1.270
REMARK UNBOUND:                -1.018
REMARK  Name = 
REMARK  9 active torsions:
REMARK  status: ('A' for Active; 'I' for Inactive)
REMARK    1  A    between atoms: C_1  and  C_2
REMARK    2  A    between atoms: C_2  and  C_3
REMARK    3  A    between atoms: C_3  and  N_4
REMARK    4  A    between atoms: C_3  and  C_26
REMARK    5  A    between atoms: N_4  and  C_5
REMARK    6  A    between atoms: C_5  and  C_6
REMARK    7  A    between atoms: C_9  and  C_10
REMARK    8  A    between atoms: C_10  and  N_11
REMARK    9  A    between atoms: C_12  and  C_14
REMARK                            x       y       z     vdW  Elec       q    Type
REMARK                         _______ _______ _______ _____ _____    ______ ____
ROOT
ATOM      1  C   UNL     1      48.657   7.643  16.458  0.00  0.00    +0.000 A 
ATOM      2  C   UNL     1      48.734   6.526  15.615  0.00  0.00    +0.000 A 
ATOM      3  C   UNL     1      48.594   6.668  14.233  0.00  0.00    +0.000 A 
ATOM      4  C   UNL     1      48.381   7.933  13.672  0.00  0.00    +0.000 A 
ATOM      5  C   UNL     1      48.275   9.044  14.517  0.00  0.00    +0.000 A 
ATOM      6  C   UNL     1      48.416   8.903  15.898  0.00  0.00    +0.000 A 
ENDROOT
BRANCH   1   7
ATOM      7  C   UNL     1      48.717   7.475  17.956  0.00  0.00    +0.000 C 
BRANCH   7   8
ATOM      8  N   UNL     1      49.946   6.809  18.395  0.00  0.00    +0.000 NA
ATOM      9  H   UNL     1      50.449   7.453  19.007  0.00  0.00    +0.000 HD
BRANCH   8  10
ATOM     10  C   UNL     1      49.666   5.579  19.174  0.00  0.00    +0.000 C 
BRANCH  10  11
ATOM     11  C   UNL     1      49.341   4.401  18.248  0.00  0.00    +0.000 A 
ATOM     12  C   UNL     1      48.022   3.989  18.046  0.00  0.00    +0.000 A 
ATOM     13  C   UNL     1      47.775   2.841  17.298  0.00  0.00    +0.000 A 
ATOM     14  C   UNL     1      48.846   2.138  16.758  0.00  0.00    +0.000 A 
ATOM     15  C   UNL     1      50.122   2.624  16.981  0.00  0.00    +0.000 A 
ATOM     16  N   UNL     1      50.394   3.730  17.709  0.00  0.00    +0.000 NA
ENDBRANCH  10  11
BRANCH  10  18
ATOM     17  C   UNL     1      48.740   6.958  21.136  0.00  0.00    +0.000 C 
ATOM     18  C   UNL     1      48.518   5.786  20.191  0.00  0.00    +0.000 C 
ENDBRANCH  10  18
ENDBRANCH   8  10
ENDBRANCH   7   8
ENDBRANCH   1   7
BRANCH   4  19
ATOM     19  C   UNL     1      48.212   8.096  12.188  0.00  0.00    +0.000 C 
BRANCH  19  20
ATOM     20  N   UNL     1      47.538   6.959  11.617  0.00  0.00    +0.000 N 
ATOM     21  C   UNL     1      46.188   6.983  11.392  0.00  0.00    +0.000 C 
ATOM     22  O   UNL     1      45.508   7.980  11.625  0.00  0.00    +0.000 OA
ATOM     23  H   UNL     1      48.034   6.073  11.625  0.00  0.00    +0.000 HD
BRANCH  21  24
ATOM     24  C   UNL     1      45.599   5.778  10.796  0.00  0.00    +0.000 A 
ATOM     25  C   UNL     1      45.769   5.537   9.439  0.00  0.00    +0.000 A 
ATOM     26  S   UNL     1      45.069   4.074   8.912  0.00  0.00    +0.000 S 
ATOM     27  C   UNL     1      44.474   3.735  10.470  0.00  0.00    +0.000 A 
ATOM     28  N   UNL     1      43.747   2.612  10.710  0.00  0.00    +0.000 NA
ATOM     29  C   UNL     1      43.335   2.493  11.928  0.00  0.00    +0.000 A 
ATOM     30  N   UNL     1      43.586   3.393  12.928  0.00  0.00    +0.000 N 
ATOM     31  C   UNL     1      44.338   4.530  12.740  0.00  0.00    +0.000 A 
ATOM     32  O   UNL     1      44.574   5.296  13.664  0.00  0.00    +0.000 OA
ATOM     33  C   UNL     1      44.817   4.717  11.382  0.00  0.00    +0.000 A 
ATOM     34  H   UNL     1      43.238   3.241  13.863  0.00  0.00    +0.000 HD
ENDBRANCH  21  24
ENDBRANCH  19  20
ENDBRANCH   4  19
TORSDOF 8
ENDMDL
MODEL 7
REMARK VINA RESULT:    -6.358      5.295      8.100
REMARK INTER + INTRA:         -10.350
REMARK INTER:                  -9.249
REMARK INTRA:                  -1.101
REMARK UNBOUND:                -1.018
REMARK  Name = 
REMARK  9 active torsions:
REMARK  status: ('A' for Active; 'I' for Inactive)
REMARK    1  A    between atoms: C_1  and  C_2
REMARK    2  A    between atoms: C_2  and  C_3
REMARK    3  A    between atoms: C_3  and  N_4
REMARK    4  A    between atoms: C_3  and  C_26
REMARK    5  A    between atoms: N_4  and  C_5
REMARK    6  A    between atoms: C_5  and  C_6
REMARK    7  A    between atoms: C_9  and  C_10
REMARK    8  A    between atoms: C_10  and  N_11
REMARK    9  A    between atoms: C_12  and  C_14
REMARK                            x       y       z     vdW  Elec       q    Type
REMARK                         _______ _______ _______ _____ _____    ______ ____
ROOT
ATOM      1  C   UNL     1      50.359   8.857  11.438  0.00  0.00    +0.000 A 
ATOM      2  C   UNL     1      49.389   9.869  11.431  0.00  0.00    +0.000 A 
ATOM      3  C   UNL     1      48.107   9.628  11.926  0.00  0.00    +0.000 A 
ATOM      4  C   UNL     1      47.776   8.370  12.445  0.00  0.00    +0.000 A 
ATOM      5  C   UNL     1      48.737   7.350  12.425  0.00  0.00    +0.000 A 
ATOM      6  C   UNL     1      50.018   7.592  11.931  0.00  0.00    +0.000 A 
ENDROOT
BRANCH   1   7
ATOM      7  C   UNL     1      51.715   9.093  10.819  0.00  0.00    +0.000 C 
BRANCH   7   8
ATOM      8  N   UNL     1      52.330   7.856  10.333  0.00  0.00    +0.000 NA
ATOM      9  H   UNL     1      51.593   7.152  10.249  0.00  0.00    +0.000 HD
BRANCH   8  10
ATOM     10  C   UNL     1      52.940   8.025   8.992  0.00  0.00    +0.000 C 
BRANCH  10  11
ATOM     11  C   UNL     1      53.436   6.685   8.438  0.00  0.00    +0.000 A 
ATOM     12  C   UNL     1      54.622   6.111   8.901  0.00  0.00    +0.000 A 
ATOM     13  C   UNL     1      55.103   4.957   8.287  0.00  0.00    +0.000 A 
ATOM     14  C   UNL     1      54.386   4.396   7.238  0.00  0.00    +0.000 A 
ATOM     15  C   UNL     1      53.207   5.008   6.853  0.00  0.00    +0.000 A 
ATOM     16  N   UNL     1      52.718   6.133   7.423  0.00  0.00    +0.000 NA
ENDBRANCH  10  11
BRANCH  10  18
ATOM     17  C   UNL     1      53.932  10.181   8.000  0.00  0.00    +0.000 C 
ATOM     18  C   UNL     1      54.099   9.053   9.008  0.00  0.00    +0.000 C 
ENDBRANCH  10  18
ENDBRANCH   8  10
ENDBRANCH   7   8
ENDBRANCH   1   7
BRANCH   4  19
ATOM     19  C   UNL     1      46.395   8.092  12.966  0.00  0.00    +0.000 C 
BRANCH  19  20
ATOM     20  N   UNL     1      45.966   6.764  12.611  0.00  0.00    +0.000 N 
ATOM     21  C   UNL     1      44.886   6.570  11.792  0.00  0.00    +0.000 C 
ATOM     22  O   UNL     1      44.270   7.511  11.296  0.00  0.00    +0.000 OA
ATOM     23  H   UNL     1      46.318   5.997  13.174  0.00  0.00    +0.000 HD
BRANCH  21  24
ATOM     24  C   UNL     1      44.538   5.179  11.481  0.00  0.00    +0.000 A 
ATOM     25  C   UNL     1      43.785   4.447  12.389  0.00  0.00    +0.000 A 
ATOM     26  S   UNL     1      43.422   2.867  11.860  0.00  0.00    +0.000 S 
ATOM     27  C   UNL     1      44.300   3.090  10.419  0.00  0.00    +0.000 A 
ATOM     28  N   UNL     1      44.410   2.089   9.507  0.00  0.00    +0.000 NA
ATOM     29  C   UNL     1      45.126   2.383   8.474  0.00  0.00    +0.000 A 
ATOM     30  N   UNL     1      45.740   3.589   8.269  0.00  0.00    +0.000 N 
ATOM     31  C   UNL     1      45.637   4.642   9.151  0.00  0.00    +0.000 A 
ATOM     32  O   UNL     1      46.169   5.719   8.920  0.00  0.00    +0.000 OA
ATOM     33  C   UNL     1      44.849   4.357  10.337  0.00  0.00    +0.000 A 
ATOM     34  H   UNL     1      46.285   3.760   7.437  0.00  0.00    +0.000 HD
ENDBRANCH  21  24
ENDBRANCH  19  20
ENDBRANCH   4  19
TORSDOF 8
ENDMDL
MODEL 8
REMARK VINA RESULT:    -5.881      1.585      2.081
REMARK INTER + INTRA:          -9.649
REMARK INTER:                  -8.599
REMARK INTRA:                  -1.049
REMARK UNBOUND:                -1.018
REMARK  Name = 
REMARK  9 active torsions:
REMARK  status: ('A' for Active; 'I' for Inactive)
REMARK    1  A    between atoms: C_1  and  C_2
REMARK    2  A    between atoms: C_2  and  C_3
REMARK    3  A    between atoms: C_3  and  N_4
REMARK    4  A    between atoms: C_3  and  C_26
REMARK    5  A    between atoms: N_4  and  C_5
REMARK    6  A    between atoms: C_5  and  C_6
REMARK    7  A    between atoms: C_9  and  C_10
REMARK    8  A    between atoms: C_10  and  N_11
REMARK    9  A    between atoms: C_12  and  C_14
REMARK                            x       y       z     vdW  Elec       q    Type
REMARK                         _______ _______ _______ _____ _____    ______ ____
ROOT
ATOM      1  C   UNL     1      45.857   7.734  11.991  0.00  0.00    +0.000 A 
ATOM      2  C   UNL     1      45.775   8.724  12.979  0.00  0.00    +0.000 A 
ATOM      3  C   UNL     1      46.926   9.188  13.617  0.00  0.00    +0.000 A 
ATOM      4  C   UNL     1      48.181   8.672  13.271  0.00  0.00    +0.000 A 
ATOM      5  C   UNL     1      48.260   7.661  12.305  0.00  0.00    +0.000 A 
ATOM      6  C   UNL     1      47.109   7.199  11.666  0.00  0.00    +0.000 A 
ENDROOT
BRANCH   1   7
ATOM      7  C   UNL     1      44.604   7.170  11.368  0.00  0.00    +0.000 C 
BRANCH   7   8
ATOM      8  N   UNL     1      44.275   5.838  11.880  0.00  0.00    +0.000 NA
ATOM      9  H   UNL     1      43.433   5.516  11.398  0.00  0.00    +0.000 HD
BRANCH   8  10
ATOM     10  C   UNL     1      45.350   4.854  11.606  0.00  0.00    +0.000 C 
BRANCH  10  11
ATOM     11  C   UNL     1      45.126   4.151  10.263  0.00  0.00    +0.000 A 
ATOM     12  C   UNL     1      44.522   2.893  10.202  0.00  0.00    +0.000 A 
ATOM     13  C   UNL     1      44.447   2.234   8.978  0.00  0.00    +0.000 A 
ATOM     14  C   UNL     1      44.963   2.847   7.843  0.00  0.00    +0.000 A 
ATOM     15  C   UNL     1      45.523   4.105   7.979  0.00  0.00    +0.000 A 
ATOM     16  N   UNL     1      45.618   4.767   9.154  0.00  0.00    +0.000 NA
ENDBRANCH  10  11
BRANCH  10  18
ATOM     17  C   UNL     1      46.138   4.342  14.000  0.00  0.00    +0.000 C 
ATOM     18  C   UNL     1      45.478   3.805  12.738  0.00  0.00    +0.000 C 
ENDBRANCH  10  18
ENDBRANCH   8  10
ENDBRANCH   7   8
ENDBRANCH   1   7
BRANCH   4  19
ATOM     19  C   UNL     1      49.426   9.150  13.963  0.00  0.00    +0.000 C 
BRANCH  19  20
ATOM     20  N   UNL     1      49.741   8.316  15.094  0.00  0.00    +0.000 N 
ATOM     21  C   UNL     1      50.979   7.746  15.223  0.00  0.00    +0.000 C 
ATOM     22  O   UNL     1      51.878   7.953  14.411  0.00  0.00    +0.000 OA
ATOM     23  H   UNL     1      48.963   7.965  15.643  0.00  0.00    +0.000 HD
BRANCH  21  24
ATOM     24  C   UNL     1      51.202   6.923  16.417  0.00  0.00    +0.000 A 
ATOM     25  C   UNL     1      52.367   7.093  17.153  0.00  0.00    +0.000 A 
ATOM     26  S   UNL     1      52.453   6.100  18.537  0.00  0.00    +0.000 S 
ATOM     27  C   UNL     1      50.958   5.373  18.174  0.00  0.00    +0.000 A 
ATOM     28  N   UNL     1      50.445   4.397  18.969  0.00  0.00    +0.000 NA
ATOM     29  C   UNL     1      49.318   3.914  18.563  0.00  0.00    +0.000 A 
ATOM     30  N   UNL     1      48.657   4.321  17.436  0.00  0.00    +0.000 N 
ATOM     31  C   UNL     1      49.122   5.323  16.614  0.00  0.00    +0.000 A 
ATOM     32  O   UNL     1      48.488   5.687  15.634  0.00  0.00    +0.000 OA
ATOM     33  C   UNL     1      50.394   5.892  17.022  0.00  0.00    +0.000 A 
ATOM     34  H   UNL     1      47.775   3.906  17.173  0.00  0.00    +0.000 HD
ENDBRANCH  21  24
ENDBRANCH  19  20
ENDBRANCH   4  19
TORSDOF 8
ENDMDL
MODEL 9
REMARK VINA RESULT:    -5.658      5.641      7.975
REMARK INTER + INTRA:          -9.322
REMARK INTER:                  -7.994
REMARK INTRA:                  -1.328
REMARK UNBOUND:                -1.018
REMARK  Name = 
REMARK  9 active torsions:
REMARK  status: ('A' for Active; 'I' for Inactive)
REMARK    1  A    between atoms: C_1  and  C_2
REMARK    2  A    between atoms: C_2  and  C_3
REMARK    3  A    between atoms: C_3  and  N_4
REMARK    4  A    between atoms: C_3  and  C_26
REMARK    5  A    between atoms: N_4  and  C_5
REMARK    6  A    between atoms: C_5  and  C_6
REMARK    7  A    between atoms: C_9  and  C_10
REMARK    8  A    between atoms: C_10  and  N_11
REMARK    9  A    between atoms: C_12  and  C_14
REMARK                            x       y       z     vdW  Elec       q    Type
REMARK                         _______ _______ _______ _____ _____    ______ ____
ROOT
ATOM      1  C   UNL     1      48.239   8.972  12.601  0.00  0.00    +0.000 A 
ATOM      2  C   UNL     1      49.214   9.806  13.167  0.00  0.00    +0.000 A 
ATOM      3  C   UNL     1      50.564   9.630  12.860  0.00  0.00    +0.000 A 
ATOM      4  C   UNL     1      50.960   8.621  11.974  0.00  0.00    +0.000 A 
ATOM      5  C   UNL     1      49.989   7.769  11.431  0.00  0.00    +0.000 A 
ATOM      6  C   UNL     1      48.640   7.946  11.738  0.00  0.00    +0.000 A 
ENDROOT
BRANCH   1   7
ATOM      7  C   UNL     1      46.791   9.105  13.005  0.00  0.00    +0.000 C 
BRANCH   7   8
ATOM      8  N   UNL     1      46.180   7.814  13.326  0.00  0.00    +0.000 NA
ATOM      9  H   UNL     1      45.928   7.825  14.317  0.00  0.00    +0.000 HD
BRANCH   8  10
ATOM     10  C   UNL     1      44.937   7.577  12.552  0.00  0.00    +0.000 C 
BRANCH  10  11
ATOM     11  C   UNL     1      44.700   6.078  12.336  0.00  0.00    +0.000 A 
ATOM     12  C   UNL     1      45.215   5.423  11.215  0.00  0.00    +0.000 A 
ATOM     13  C   UNL     1      44.875   4.092  10.989  0.00  0.00    +0.000 A 
ATOM     14  C   UNL     1      44.042   3.441  11.891  0.00  0.00    +0.000 A 
ATOM     15  C   UNL     1      43.592   4.150  12.991  0.00  0.00    +0.000 A 
ATOM     16  N   UNL     1      43.897   5.445  13.234  0.00  0.00    +0.000 NA
ENDBRANCH  10  11
BRANCH  10  18
ATOM     17  C   UNL     1      43.754   9.225  10.972  0.00  0.00    +0.000 C 
ATOM     18  C   UNL     1      44.954   8.313  11.190  0.00  0.00    +0.000 C 
ENDBRANCH  10  18
ENDBRANCH   8  10
ENDBRANCH   7   8
ENDBRANCH   1   7
BRANCH   4  19
ATOM     19  C   UNL     1      52.412   8.411  11.648  0.00  0.00    +0.000 C 
BRANCH  19  20
ATOM     20  N   UNL     1      52.576   7.956  10.292  0.00  0.00    +0.000 N 
ATOM     21  C   UNL     1      53.538   8.496   9.481  0.00  0.00    +0.000 C 
ATOM     22  O   UNL     1      54.321   9.352   9.885  0.00  0.00    +0.000 OA
ATOM     23  H   UNL     1      51.814   7.422   9.885  0.00  0.00    +0.000 HD
BRANCH  21  24
ATOM     24  C   UNL     1      53.630   7.955   8.120  0.00  0.00    +0.000 A 
ATOM     25  C   UNL     1      53.576   8.822   7.038  0.00  0.00    +0.000 A 
ATOM     26  S   UNL     1      53.747   8.046   5.529  0.00  0.00    +0.000 S 
ATOM     27  C   UNL     1      53.853   6.516   6.268  0.00  0.00    +0.000 A 
ATOM     28  N   UNL     1      53.992   5.389   5.522  0.00  0.00    +0.000 NA
ATOM     29  C   UNL     1      54.032   4.296   6.208  0.00  0.00    +0.000 A 
ATOM     30  N   UNL     1      53.949   4.229   7.573  0.00  0.00    +0.000 N 
ATOM     31  C   UNL     1      53.835   5.343   8.372  0.00  0.00    +0.000 A 
ATOM     32  O   UNL     1      53.799   5.250   9.591  0.00  0.00    +0.000 OA
ATOM     33  C   UNL     1      53.774   6.599   7.647  0.00  0.00    +0.000 A 
ATOM     34  H   UNL     1      53.990   3.341   8.052  0.00  0.00    +0.000 HD
ENDBRANCH  21  24
ENDBRANCH  19  20
ENDBRANCH   4  19
TORSDOF 8
ENDMDL
