MODEL 1
REMARK VINA RESULT:    -7.871      0.000      0.000
REMARK INTER + INTRA:         -11.447
REMARK INTER:                 -10.861
REMARK INTRA:                  -0.586
REMARK UNBOUND:                -0.586
REMARK  Name = 
REMARK  7 active torsions:
REMARK  status: ('A' for Active; 'I' for Inactive)
REMARK    1  A    between atoms: N_1  and  C_2
REMARK    2  A    between atoms: C_2  and  C_3
REMARK    3  A    between atoms: C_6  and  O_7
REMARK    4  A    between atoms: O_7  and  C_8
REMARK    5  A    between atoms: C_8  and  C_9
REMARK    6  A    between atoms: C_9  and  C_10
REMARK    7  A    between atoms: C_13  and  C_14
REMARK                            x       y       z     vdW  Elec       q    Type
REMARK                         _______ _______ _______ _____ _____    ______ ____
ROOT
ATOM      1  C   UNL     1      45.224   5.791  11.073  0.00  0.00    +0.000 C 
ENDROOT
BRANCH   1   2
ATOM      2  C   UNL     1      45.906   5.516  12.390  0.00  0.00    +0.000 A 
ATOM      3  C   UNL     1      45.518   4.397  13.123  0.00  0.00    +0.000 A 
ATOM      4  N   UNL     1      46.086   4.000  14.282  0.00  0.00    +0.000 NA
ATOM      5  C   UNL     1      47.098   4.775  14.754  0.00  0.00    +0.000 A 
ATOM      6  C   UNL     1      47.553   5.922  14.127  0.00  0.00    +0.000 A 
ATOM      7  C   UNL     1      46.941   6.292  12.929  0.00  0.00    +0.000 A 
ATOM      8 BR   UNL     1      47.592   7.858  12.074  0.00  0.00    +0.000 Br
BRANCH   5   9
ATOM      9  C   UNL     1      47.748   4.318  16.024  0.00  0.00    +0.000 C 
ATOM     10  N   UNL     1      46.989   3.492  16.807  0.00  0.00    +0.000 N 
ATOM     11  O   UNL     1      48.882   4.650  16.341  0.00  0.00    +0.000 OA
ATOM     12  H   UNL     1      46.054   3.239  16.506  0.00  0.00    +0.000 HD
ATOM     13  H   UNL     1      47.363   3.140  17.675  0.00  0.00    +0.000 HD
ENDBRANCH   5   9
ENDBRANCH   1   2
BRANCH   1  14
ATOM     14  C   UNL     1      43.897   5.060  10.873  0.00  0.00    +0.000 C 
BRANCH  14  15
ATOM     15  O   UNL     1      43.662   4.753   9.493  0.00  0.00    +0.000 OA
BRANCH  15  19
ATOM     16  C   UNL     1      46.435   2.091   7.796  0.00  0.00    +0.000 A 
ATOM     17  C   UNL     1      46.472   3.443   7.440  0.00  0.00    +0.000 A 
ATOM     18  C   UNL     1      45.569   4.354   7.992  0.00  0.00    +0.000 A 
ATOM     19  C   UNL     1      44.603   3.937   8.909  0.00  0.00    +0.000 A 
ATOM     20  C   UNL     1      44.569   2.589   9.280  0.00  0.00    +0.000 A 
ATOM     21  C   UNL     1      45.475   1.672   8.727  0.00  0.00    +0.000 A 
BRANCH  16  22
ATOM     22  C   UNL     1      47.385   1.119   7.144  0.00  0.00    +0.000 C 
BRANCH  22  23
ATOM     23  N   UNL     1      48.256   1.779   6.176  0.00  0.00    +0.000 NA
ATOM     24  H   UNL     1      48.726   2.561   6.628  0.00  0.00    +0.000 HD
ATOM     25  H   UNL     1      47.681   2.174   5.434  0.00  0.00    +0.000 HD
ENDBRANCH  22  23
ENDBRANCH  16  22
ENDBRANCH  15  19
ENDBRANCH  14  15
ENDBRANCH   1  14
TORSDOF 7
ENDMDL
MODEL 2
REMARK VINA RESULT:    -7.616      1.817      2.268
REMARK INTER + INTRA:         -11.097
REMARK INTER:                 -10.265
REMARK INTRA:                  -0.832
REMARK UNBOUND:                -0.586
REMARK  Name = 
REMARK  7 active torsions:
REMARK  status: ('A' for Active; 'I' for Inactive)
REMARK    1  A    between atoms: N_1  and  C_2
REMARK    2  A    between atoms: C_2  and  C_3
REMARK    3  A    between atoms: C_6  and  O_7
REMARK    4  A    between atoms: O_7  and  C_8
REMARK    5  A    between atoms: C_8  and  C_9
REMARK    6  A    between atoms: C_9  and  C_10
REMARK    7  A    between atoms: C_13  and  C_14
REMARK                            x       y       z     vdW  Elec       q    Type
REMARK                         _______ _______ _______ _____ _____    ______ ____
ROOT
ATOM      1  C   UNL     1      43.913   4.318  12.771  0.00  0.00    +0.000 C 
ENDROOT
BRANCH   1   2
ATOM      2  C   UNL     1      45.223   5.047  12.929  0.00  0.00    +0.000 A 
ATOM      3  C   UNL     1      46.250   4.430  13.639  0.00  0.00    +0.000 A 
ATOM      4  N   UNL     1      47.489   4.941  13.802  0.00  0.00    +0.000 NA
ATOM      5  C   UNL     1      47.721   6.155  13.235  0.00  0.00    +0.000 A 
ATOM      6  C   UNL     1      46.772   6.874  12.529  0.00  0.00    +0.000 A 
ATOM      7  C   UNL     1      45.507   6.305  12.381  0.00  0.00    +0.000 A 
ATOM      8 BR   UNL     1      44.225   7.298  11.392  0.00  0.00    +0.000 Br
BRANCH   5   9
ATOM      9  C   UNL     1      49.105   6.707  13.390  0.00  0.00    +0.000 C 
ATOM     10  N   UNL     1      49.740   7.034  12.224  0.00  0.00    +0.000 N 
ATOM     11  O   UNL     1      49.633   6.866  14.482  0.00  0.00    +0.000 OA
ATOM     12  H   UNL     1      49.265   6.890  11.339  0.00  0.00    +0.000 HD
ATOM     13  H   UNL     1      50.673   7.417  12.250  0.00  0.00    +0.000 HD
ENDBRANCH   5   9
ENDBRANCH   1   2
BRANCH   1  14
ATOM     14  C   UNL     1      43.884   3.287  11.643  0.00  0.00    +0.000 C 
BRANCH  14  15
ATOM     15  O   UNL     1      43.763   3.909  10.357  0.00  0.00    +0.000 OA
BRANCH  15  19
ATOM     16  C   UNL     1      46.477   2.392   7.531  0.00  0.00    +0.000 A 
ATOM     17  C   UNL     1      46.200   3.762   7.553  0.00  0.00    +0.000 A 
ATOM     18  C   UNL     1      45.308   4.299   8.484  0.00  0.00    +0.000 A 
ATOM     19  C   UNL     1      44.667   3.478   9.414  0.00  0.00    +0.000 A 
ATOM     20  C   UNL     1      44.950   2.110   9.407  0.00  0.00    +0.000 A 
ATOM     21  C   UNL     1      45.845   1.569   8.472  0.00  0.00    +0.000 A 
BRANCH  16  22
ATOM     22  C   UNL     1      47.401   1.831   6.480  0.00  0.00    +0.000 C 
BRANCH  22  23
ATOM     23  N   UNL     1      48.657   2.572   6.411  0.00  0.00    +0.000 NA
ATOM     24  H   UNL     1      48.505   3.520   6.752  0.00  0.00    +0.000 HD
ATOM     25  H   UNL     1      48.935   2.655   5.435  0.00  0.00    +0.000 HD
ENDBRANCH  22  23
ENDBRANCH  16  22
ENDBRANCH  15  19
ENDBRANCH  14  15
ENDBRANCH   1  14
TORSDOF 7
ENDMDL
MODEL 3
REMARK VINA RESULT:    -7.337      2.795      3.404
REMARK INTER + INTRA:         -10.711
REMARK INTER:                 -10.025
REMARK INTRA:                  -0.686
REMARK UNBOUND:                -0.586
REMARK  Name = 
REMARK  7 active torsions:
REMARK  status: ('A' for Active; 'I' for Inactive)
REMARK    1  A    between atoms: N_1  and  C_2
REMARK    2  A    between atoms: C_2  and  C_3
REMARK    3  A    between atoms: C_6  and  O_7
REMARK    4  A    between atoms: O_7  and  C_8
REMARK    5  A    between atoms: C_8  and  C_9
REMARK    6  A    between atoms: C_9  and  C_10
REMARK    7  A    between atoms: C_13  and  C_14
REMARK                            x       y       z     vdW  Elec       q    Type
REMARK                         _______ _______ _______ _____ _____    ______ ____
ROOT
ATOM      1  C   UNL     1      43.496   4.673  12.452  0.00  0.00    +0.000 C 
ENDROOT
BRANCH   1   2
ATOM      2  C   UNL     1      44.601   5.694  12.351  0.00  0.00    +0.000 A 
ATOM      3  C   UNL     1      44.298   6.960  11.855  0.00  0.00    +0.000 A 
ATOM      4  N   UNL     1      45.174   7.984  11.770  0.00  0.00    +0.000 NA
ATOM      5  C   UNL     1      46.442   7.730  12.192  0.00  0.00    +0.000 A 
ATOM      6  C   UNL     1      46.865   6.506  12.679  0.00  0.00    +0.000 A 
ATOM      7  C   UNL     1      45.925   5.478  12.754  0.00  0.00    +0.000 A 
ATOM      8 BR   UNL     1      46.521   3.812  13.444  0.00  0.00    +0.000 Br
BRANCH   5   9
ATOM      9  C   UNL     1      47.405   8.875  12.126  0.00  0.00    +0.000 C 
ATOM     10  N   UNL     1      46.971  10.041  12.694  0.00  0.00    +0.000 N 
ATOM     11  O   UNL     1      48.510   8.779  11.608  0.00  0.00    +0.000 OA
ATOM     12  H   UNL     1      46.049  10.078  13.116  0.00  0.00    +0.000 HD
ATOM     13  H   UNL     1      47.568  10.853  12.693  0.00  0.00    +0.000 HD
ENDBRANCH   5   9
ENDBRANCH   1   2
BRANCH   1  14
ATOM     14  C   UNL     1      43.458   3.654  11.314  0.00  0.00    +0.000 C 
BRANCH  14  15
ATOM     15  O   UNL     1      43.762   4.256  10.050  0.00  0.00    +0.000 OA
BRANCH  15  19
ATOM     16  C   UNL     1      46.598   2.327   7.622  0.00  0.00    +0.000 A 
ATOM     17  C   UNL     1      45.803   1.569   8.488  0.00  0.00    +0.000 A 
ATOM     18  C   UNL     1      44.846   2.179   9.302  0.00  0.00    +0.000 A 
ATOM     19  C   UNL     1      44.664   3.563   9.276  0.00  0.00    +0.000 A 
ATOM     20  C   UNL     1      45.445   4.325   8.403  0.00  0.00    +0.000 A 
ATOM     21  C   UNL     1      46.407   3.714   7.584  0.00  0.00    +0.000 A 
BRANCH  16  22
ATOM     22  C   UNL     1      47.660   1.650   6.795  0.00  0.00    +0.000 C 
BRANCH  22  23
ATOM     23  N   UNL     1      48.627   2.608   6.265  0.00  0.00    +0.000 NA
ATOM     24  H   UNL     1      48.550   3.481   6.782  0.00  0.00    +0.000 HD
ATOM     25  H   UNL     1      48.383   2.819   5.299  0.00  0.00    +0.000 HD
ENDBRANCH  22  23
ENDBRANCH  16  22
ENDBRANCH  15  19
ENDBRANCH  14  15
ENDBRANCH   1  14
TORSDOF 7
ENDMDL
MODEL 4
REMARK VINA RESULT:    -6.613      1.751      2.143
REMARK INTER + INTRA:          -9.711
REMARK INTER:                  -9.287
REMARK INTRA:                  -0.425
REMARK UNBOUND:                -0.586
REMARK  Name = 
REMARK  7 active torsions:
REMARK  status: ('A' for Active; 'I' for Inactive)
REMARK    1  A    between atoms: N_1  and  C_2
REMARK    2  A    between atoms: C_2  and  C_3
REMARK    3  A    between atoms: C_6  and  O_7
REMARK    4  A    between atoms: O_7  and  C_8
REMARK    5  A    between atoms: C_8  and  C_9
REMARK    6  A    between atoms: C_9  and  C_10
REMARK    7  A    between atoms: C_13  and  C_14
REMARK                            x       y       z     vdW  Elec       q    Type
REMARK                         _______ _______ _______ _____ _____    ______ ____
ROOT
ATOM      1  C   UNL     1      45.975   6.307  11.257  0.00  0.00    +0.000 C 
ENDROOT
BRANCH   1   2
ATOM      2  C   UNL     1      46.783   6.487  12.516  0.00  0.00    +0.000 A 
ATOM      3  C   UNL     1      47.174   5.355  13.227  0.00  0.00    +0.000 A 
ATOM      4  N   UNL     1      47.950   5.368  14.332  0.00  0.00    +0.000 NA
ATOM      5  C   UNL     1      48.354   6.590  14.771  0.00  0.00    +0.000 A 
ATOM      6  C   UNL     1      48.009   7.785  14.163  0.00  0.00    +0.000 A 
ATOM      7  C   UNL     1      47.210   7.723  13.020  0.00  0.00    +0.000 A 
ATOM      8 BR   UNL     1      46.763   9.371  12.189  0.00  0.00    +0.000 Br
BRANCH   5   9
ATOM      9  C   UNL     1      49.240   6.603  15.979  0.00  0.00    +0.000 C 
ATOM     10  N   UNL     1      50.342   7.407  15.889  0.00  0.00    +0.000 N 
ATOM     11  O   UNL     1      48.995   5.948  16.983  0.00  0.00    +0.000 OA
ATOM     12  H   UNL     1      50.507   7.936  15.038  0.00  0.00    +0.000 HD
ATOM     13  H   UNL     1      50.982   7.471  16.666  0.00  0.00    +0.000 HD
ENDBRANCH   5   9
ENDBRANCH   1   2
BRANCH   1  14
ATOM     14  C   UNL     1      44.818   5.315  11.372  0.00  0.00    +0.000 C 
BRANCH  14  15
ATOM     15  O   UNL     1      44.238   5.023  10.094  0.00  0.00    +0.000 OA
BRANCH  15  19
ATOM     16  C   UNL     1      46.245   2.095   7.845  0.00  0.00    +0.000 A 
ATOM     17  C   UNL     1      45.379   1.703   8.872  0.00  0.00    +0.000 A 
ATOM     18  C   UNL     1      44.692   2.651   9.632  0.00  0.00    +0.000 A 
ATOM     19  C   UNL     1      44.856   4.016   9.391  0.00  0.00    +0.000 A 
ATOM     20  C   UNL     1      45.709   4.416   8.358  0.00  0.00    +0.000 A 
ATOM     21  C   UNL     1      46.400   3.464   7.593  0.00  0.00    +0.000 A 
BRANCH  16  22
ATOM     22  C   UNL     1      47.016   1.054   7.077  0.00  0.00    +0.000 C 
BRANCH  22  23
ATOM     23  N   UNL     1      46.924  -0.262   7.704  0.00  0.00    +0.000 NA
ATOM     24  H   UNL     1      46.569  -0.155   8.653  0.00  0.00    +0.000 HD
ATOM     25  H   UNL     1      47.861  -0.652   7.786  0.00  0.00    +0.000 HD
ENDBRANCH  22  23
ENDBRANCH  16  22
ENDBRANCH  15  19
ENDBRANCH  14  15
ENDBRANCH   1  14
TORSDOF 7
ENDMDL
MODEL 5
REMARK VINA RESULT:    -6.465      3.161      4.714
REMARK INTER + INTRA:          -9.508
REMARK INTER:                  -9.125
REMARK INTRA:                  -0.383
REMARK UNBOUND:                -0.586
REMARK  Name = 
REMARK  7 active torsions:
REMARK  status: ('A' for Active; 'I' for Inactive)
REMARK    1  A    between atoms: N_1  and  C_2
REMARK    2  A    between atoms: C_2  and  C_3
REMARK    3  A    between atoms: C_6  and  O_7
REMARK    4  A    between atoms: O_7  and  C_8
REMARK    5  A    between atoms: C_8  and  C_9
REMARK    6  A    between atoms: C_9  and  C_10
REMARK    7  A    between atoms: C_13  and  C_14
REMARK                            x       y       z     vdW  Elec       q    Type
REMARK                         _______ _______ _______ _____ _____    ______ ____
ROOT
ATOM      1  C   UNL     1      47.022   4.202  16.074  0.00  0.00    +0.000 C 
ENDROOT
BRANCH   1   2
ATOM      2  C   UNL     1      48.304   3.602  16.593  0.00  0.00    +0.000 A 
ATOM      3  C   UNL     1      48.626   2.296  16.228  0.00  0.00    +0.000 A 
ATOM      4  N   UNL     1      49.768   1.661  16.569  0.00  0.00    +0.000 NA
ATOM      5  C   UNL     1      50.643   2.364  17.336  0.00  0.00    +0.000 A 
ATOM      6  C   UNL     1      50.421   3.656  17.779  0.00  0.00    +0.000 A 
ATOM      7  C   UNL     1      49.230   4.276  17.399  0.00  0.00    +0.000 A 
ATOM      8 BR   UNL     1      48.953   6.055  18.001  0.00  0.00    +0.000 Br
BRANCH   5   9
ATOM      9  C   UNL     1      51.923   1.669  17.688  0.00  0.00    +0.000 C 
ATOM     10  N   UNL     1      51.802   0.349  18.022  0.00  0.00    +0.000 N 
ATOM     11  O   UNL     1      53.007   2.236  17.671  0.00  0.00    +0.000 OA
ATOM     12  H   UNL     1      50.884  -0.085  18.021  0.00  0.00    +0.000 HD
ATOM     13  H   UNL     1      52.622  -0.185  18.266  0.00  0.00    +0.000 HD
ENDBRANCH   5   9
ENDBRANCH   1   2
BRANCH   1  14
ATOM     14  C   UNL     1      46.970   4.397  14.559  0.00  0.00    +0.000 C 
BRANCH  14  15
ATOM     15  O   UNL     1      45.631   4.616  14.096  0.00  0.00    +0.000 OA
BRANCH  15  19
ATOM     16  C   UNL     1      45.050   4.222   9.953  0.00  0.00    +0.000 A 
ATOM     17  C   UNL     1      45.463   5.451  10.477  0.00  0.00    +0.000 A 
ATOM     18  C   UNL     1      45.672   5.613  11.848  0.00  0.00    +0.000 A 
ATOM     19  C   UNL     1      45.468   4.551  12.732  0.00  0.00    +0.000 A 
ATOM     20  C   UNL     1      45.069   3.316  12.214  0.00  0.00    +0.000 A 
ATOM     21  C   UNL     1      44.858   3.152  10.837  0.00  0.00    +0.000 A 
BRANCH  16  22
ATOM     22  C   UNL     1      44.777   4.090   8.477  0.00  0.00    +0.000 C 
BRANCH  22  23
ATOM     23  N   UNL     1      45.999   4.216   7.687  0.00  0.00    +0.000 NA
ATOM     24  H   UNL     1      46.389   3.290   7.524  0.00  0.00    +0.000 HD
ATOM     25  H   UNL     1      46.690   4.730   8.232  0.00  0.00    +0.000 HD
ENDBRANCH  22  23
ENDBRANCH  16  22
ENDBRANCH  15  19
ENDBRANCH  14  15
ENDBRANCH   1  14
TORSDOF 7
ENDMDL
MODEL 6
REMARK VINA RESULT:    -6.169      3.018      7.762
REMARK INTER + INTRA:          -9.099
REMARK INTER:                  -8.615
REMARK INTRA:                  -0.484
REMARK UNBOUND:                -0.586
REMARK  Name = 
REMARK  7 active torsions:
REMARK  status: ('A' for Active; 'I' for Inactive)
REMARK    1  A    between atoms: N_1  and  C_2
REMARK    2  A    between atoms: C_2  and  C_3
REMARK    3  A    between atoms: C_6  and  O_7
REMARK    4  A    between atoms: O_7  and  C_8
REMARK    5  A    between atoms: C_8  and  C_9
REMARK    6  A    between atoms: C_9  and  C_10
REMARK    7  A    between atoms: C_13  and  C_14
REMARK                            x       y       z     vdW  Elec       q    Type
REMARK                         _______ _______ _______ _____ _____    ______ ____
ROOT
ATOM      1  C   UNL     1      47.293   5.411  14.699  0.00  0.00    +0.000 C 
ENDROOT
BRANCH   1   2
ATOM      2  C   UNL     1      46.521   5.006  13.469  0.00  0.00    +0.000 A 
ATOM      3  C   UNL     1      46.089   3.686  13.356  0.00  0.00    +0.000 A 
ATOM      4  N   UNL     1      45.338   3.205  12.342  0.00  0.00    +0.000 NA
ATOM      5  C   UNL     1      45.005   4.091  11.365  0.00  0.00    +0.000 A 
ATOM      6  C   UNL     1      45.398   5.418  11.356  0.00  0.00    +0.000 A 
ATOM      7  C   UNL     1      46.169   5.873  12.427  0.00  0.00    +0.000 A 
ATOM      8 BR   UNL     1      46.681   7.702  12.406  0.00  0.00    +0.000 Br
BRANCH   5   9
ATOM      9  C   UNL     1      44.147   3.565  10.256  0.00  0.00    +0.000 C 
ATOM     10  N   UNL     1      43.994   4.403   9.185  0.00  0.00    +0.000 N 
ATOM     11  O   UNL     1      43.622   2.461  10.295  0.00  0.00    +0.000 OA
ATOM     12  H   UNL     1      44.448   5.310   9.192  0.00  0.00    +0.000 HD
ATOM     13  H   UNL     1      43.433   4.114   8.398  0.00  0.00    +0.000 HD
ENDBRANCH   5   9
ENDBRANCH   1   2
BRANCH   1  14
ATOM     14  C   UNL     1      47.163   4.454  15.883  0.00  0.00    +0.000 C 
BRANCH  14  15
ATOM     15  O   UNL     1      48.023   4.829  16.967  0.00  0.00    +0.000 OA
BRANCH  15  19
ATOM     16  C   UNL     1      51.248   2.178  17.442  0.00  0.00    +0.000 A 
ATOM     17  C   UNL     1      51.407   3.525  17.783  0.00  0.00    +0.000 A 
ATOM     18  C   UNL     1      50.353   4.430  17.644  0.00  0.00    +0.000 A 
ATOM     19  C   UNL     1      49.113   4.013  17.155  0.00  0.00    +0.000 A 
ATOM     20  C   UNL     1      48.943   2.665  16.825  0.00  0.00    +0.000 A 
ATOM     21  C   UNL     1      50.001   1.755  16.964  0.00  0.00    +0.000 A 
BRANCH  16  22
ATOM     22  C   UNL     1      52.418   1.234  17.549  0.00  0.00    +0.000 C 
BRANCH  22  23
ATOM     23  N   UNL     1      52.073   0.025  18.290  0.00  0.00    +0.000 NA
ATOM     24  H   UNL     1      52.802  -0.167  18.975  0.00  0.00    +0.000 HD
ATOM     25  H   UNL     1      52.065  -0.764  17.646  0.00  0.00    +0.000 HD
ENDBRANCH  22  23
ENDBRANCH  16  22
ENDBRANCH  15  19
ENDBRANCH  14  15
ENDBRANCH   1  14
TORSDOF 7
ENDMDL
MODEL 7
REMARK VINA RESULT:    -5.905      4.266      5.961
REMARK INTER + INTRA:          -8.735
REMARK INTER:                  -8.220
REMARK INTRA:                  -0.514
REMARK UNBOUND:                -0.586
REMARK  Name = 
REMARK  7 active torsions:
REMARK  status: ('A' for Active; 'I' for Inactive)
REMARK    1  A    between atoms: N_1  and  C_2
REMARK    2  A    between atoms: C_2  and  C_3
REMARK    3  A    between atoms: C_6  and  O_7
REMARK    4  A    between atoms: O_7  and  C_8
REMARK    5  A    between atoms: C_8  and  C_9
REMARK    6  A    between atoms: C_9  and  C_10
REMARK    7  A    between atoms: C_13  and  C_14
REMARK                            x       y       z     vdW  Elec       q    Type
REMARK                         _______ _______ _______ _____ _____    ______ ____
ROOT
ATOM      1  C   UNL     1      47.824   4.954  16.720  0.00  0.00    +0.000 C 
ENDROOT
BRANCH   1   2
ATOM      2  C   UNL     1      48.988   4.049  17.037  0.00  0.00    +0.000 A 
ATOM      3  C   UNL     1      48.856   2.683  16.797  0.00  0.00    +0.000 A 
ATOM      4  N   UNL     1      49.836   1.772  16.975  0.00  0.00    +0.000 NA
ATOM      5  C   UNL     1      51.024   2.246  17.437  0.00  0.00    +0.000 A 
ATOM      6  C   UNL     1      51.264   3.576  17.735  0.00  0.00    +0.000 A 
ATOM      7  C   UNL     1      50.224   4.483  17.531  0.00  0.00    +0.000 A 
ATOM      8 BR   UNL     1      50.580   6.307  17.927  0.00  0.00    +0.000 Br
BRANCH   5   9
ATOM      9  C   UNL     1      52.120   1.239  17.606  0.00  0.00    +0.000 C 
ATOM     10  N   UNL     1      51.742   0.046  18.158  0.00  0.00    +0.000 N 
ATOM     11  O   UNL     1      53.275   1.459  17.268  0.00  0.00    +0.000 OA
ATOM     12  H   UNL     1      50.772  -0.097  18.422  0.00  0.00    +0.000 HD
ATOM     13  H   UNL     1      52.425  -0.682  18.297  0.00  0.00    +0.000 HD
ENDBRANCH   5   9
ENDBRANCH   1   2
BRANCH   1  14
ATOM     14  C   UNL     1      47.964   5.751  15.423  0.00  0.00    +0.000 C 
BRANCH  14  15
ATOM     15  O   UNL     1      47.898   4.903  14.269  0.00  0.00    +0.000 OA
BRANCH  15  19
ATOM     16  C   UNL     1      44.274   4.887  12.142  0.00  0.00    +0.000 A 
ATOM     17  C   UNL     1      44.859   6.107  12.497  0.00  0.00    +0.000 A 
ATOM     18  C   UNL     1      46.067   6.146  13.197  0.00  0.00    +0.000 A 
ATOM     19  C   UNL     1      46.718   4.967  13.566  0.00  0.00    +0.000 A 
ATOM     20  C   UNL     1      46.145   3.745  13.203  0.00  0.00    +0.000 A 
ATOM     21  C   UNL     1      44.932   3.703  12.499  0.00  0.00    +0.000 A 
BRANCH  16  22
ATOM     22  C   UNL     1      42.943   4.872  11.435  0.00  0.00    +0.000 C 
BRANCH  22  23
ATOM     23  N   UNL     1      42.143   6.049  11.762  0.00  0.00    +0.000 NA
ATOM     24  H   UNL     1      41.173   5.877  11.504  0.00  0.00    +0.000 HD
ATOM     25  H   UNL     1      42.461   6.831  11.193  0.00  0.00    +0.000 HD
ENDBRANCH  22  23
ENDBRANCH  16  22
ENDBRANCH  15  19
ENDBRANCH  14  15
ENDBRANCH   1  14
TORSDOF 7
ENDMDL
MODEL 8
REMARK VINA RESULT:    -5.673      3.020      3.990
REMARK INTER + INTRA:          -8.415
REMARK INTER:                  -7.578
REMARK INTRA:                  -0.837
REMARK UNBOUND:                -0.586
REMARK  Name = 
REMARK  7 active torsions:
REMARK  status: ('A' for Active; 'I' for Inactive)
REMARK    1  A    between atoms: N_1  and  C_2
REMARK    2  A    between atoms: C_2  and  C_3
REMARK    3  A    between atoms: C_6  and  O_7
REMARK    4  A    between atoms: O_7  and  C_8
REMARK    5  A    between atoms: C_8  and  C_9
REMARK    6  A    between atoms: C_9  and  C_10
REMARK    7  A    between atoms: C_13  and  C_14
REMARK                            x       y       z     vdW  Elec       q    Type
REMARK                         _______ _______ _______ _____ _____    ______ ____
ROOT
ATOM      1  C   UNL     1      47.932   7.452  13.280  0.00  0.00    +0.000 C 
ENDROOT
BRANCH   1   2
ATOM      2  C   UNL     1      47.959   6.365  14.325  0.00  0.00    +0.000 A 
ATOM      3  C   UNL     1      47.426   5.119  14.006  0.00  0.00    +0.000 A 
ATOM      4  N   UNL     1      47.442   4.043  14.822  0.00  0.00    +0.000 NA
ATOM      5  C   UNL     1      48.013   4.220  16.043  0.00  0.00    +0.000 A 
ATOM      6  C   UNL     1      48.551   5.417  16.480  0.00  0.00    +0.000 A 
ATOM      7  C   UNL     1      48.518   6.502  15.602  0.00  0.00    +0.000 A 
ATOM      8 BR   UNL     1      49.280   8.131  16.213  0.00  0.00    +0.000 Br
BRANCH   5   9
ATOM      9  C   UNL     1      48.058   3.018  16.936  0.00  0.00    +0.000 C 
ATOM     10  N   UNL     1      47.138   3.004  17.948  0.00  0.00    +0.000 N 
ATOM     11  O   UNL     1      48.854   2.104  16.772  0.00  0.00    +0.000 OA
ATOM     12  H   UNL     1      46.492   3.781  18.048  0.00  0.00    +0.000 HD
ATOM     13  H   UNL     1      47.105   2.224  18.587  0.00  0.00    +0.000 HD
ENDBRANCH   5   9
ENDBRANCH   1   2
BRANCH   1  14
ATOM     14  C   UNL     1      46.615   8.223  13.190  0.00  0.00    +0.000 C 
BRANCH  14  15
ATOM     15  O   UNL     1      45.941   7.980  11.948  0.00  0.00    +0.000 OA
BRANCH  15  19
ATOM     16  C   UNL     1      44.028   4.259  11.556  0.00  0.00    +0.000 A 
ATOM     17  C   UNL     1      43.707   5.089  12.636  0.00  0.00    +0.000 A 
ATOM     18  C   UNL     1      44.319   6.334  12.790  0.00  0.00    +0.000 A 
ATOM     19  C   UNL     1      45.273   6.781  11.873  0.00  0.00    +0.000 A 
ATOM     20  C   UNL     1      45.588   5.963  10.784  0.00  0.00    +0.000 A 
ATOM     21  C   UNL     1      44.974   4.711  10.627  0.00  0.00    +0.000 A 
BRANCH  16  22
ATOM     22  C   UNL     1      43.393   2.897  11.444  0.00  0.00    +0.000 C 
BRANCH  22  23
ATOM     23  N   UNL     1      43.966   2.122  10.347  0.00  0.00    +0.000 NA
ATOM     24  H   UNL     1      43.730   1.139  10.473  0.00  0.00    +0.000 HD
ATOM     25  H   UNL     1      44.981   2.186  10.395  0.00  0.00    +0.000 HD
ENDBRANCH  22  23
ENDBRANCH  16  22
ENDBRANCH  15  19
ENDBRANCH  14  15
ENDBRANCH   1  14
TORSDOF 7
ENDMDL
MODEL 9
REMARK VINA RESULT:    -5.609      4.308      6.195
REMARK INTER + INTRA:          -8.326
REMARK INTER:                  -7.596
REMARK INTRA:                  -0.730
REMARK UNBOUND:                -0.586
REMARK  Name = 
REMARK  7 active torsions:
REMARK  status: ('A' for Active; 'I' for Inactive)
REMARK    1  A    between atoms: N_1  and  C_2
REMARK    2  A    between atoms: C_2  and  C_3
REMARK    3  A    between atoms: C_6  and  O_7
REMARK    4  A    between atoms: O_7  and  C_8
REMARK    5  A    between atoms: C_8  and  C_9
REMARK    6  A    between atoms: C_9  and  C_10
REMARK    7  A    between atoms: C_13  and  C_14
REMARK                            x       y       z     vdW  Elec       q    Type
REMARK                         _______ _______ _______ _____ _____    ______ ____
ROOT
ATOM      1  C   UNL     1      48.625   6.526  16.665  0.00  0.00    +0.000 C 
ENDROOT
BRANCH   1   2
ATOM      2  C   UNL     1      49.535   5.370  16.994  0.00  0.00    +0.000 A 
ATOM      3  C   UNL     1      50.909   5.595  17.047  0.00  0.00    +0.000 A 
ATOM      4  N   UNL     1      51.829   4.668  17.390  0.00  0.00    +0.000 NA
ATOM      5  C   UNL     1      51.355   3.429  17.687  0.00  0.00    +0.000 A 
ATOM      6  C   UNL     1      50.016   3.080  17.643  0.00  0.00    +0.000 A 
ATOM      7  C   UNL     1      49.100   4.071  17.289  0.00  0.00    +0.000 A 
ATOM      8 BR   UNL     1      47.266   3.579  17.254  0.00  0.00    +0.000 Br
BRANCH   5   9
ATOM      9  C   UNL     1      52.373   2.409  18.097  0.00  0.00    +0.000 C 
ATOM     10  N   UNL     1      51.946   1.109  18.065  0.00  0.00    +0.000 N 
ATOM     11  O   UNL     1      53.511   2.710  18.430  0.00  0.00    +0.000 OA
ATOM     12  H   UNL     1      50.995   0.902  17.780  0.00  0.00    +0.000 HD
ATOM     13  H   UNL     1      52.579   0.367  18.324  0.00  0.00    +0.000 HD
ENDBRANCH   5   9
ENDBRANCH   1   2
BRANCH   1  14
ATOM     14  C   UNL     1      48.685   6.997  15.212  0.00  0.00    +0.000 C 
BRANCH  14  15
ATOM     15  O   UNL     1      48.640   5.897  14.294  0.00  0.00    +0.000 OA
BRANCH  15  19
ATOM     16  C   UNL     1      45.196   5.710  11.894  0.00  0.00    +0.000 A 
ATOM     17  C   UNL     1      45.253   4.965  13.077  0.00  0.00    +0.000 A 
ATOM     18  C   UNL     1      46.380   5.012  13.900  0.00  0.00    +0.000 A 
ATOM     19  C   UNL     1      47.481   5.799  13.559  0.00  0.00    +0.000 A 
ATOM     20  C   UNL     1      47.426   6.555  12.385  0.00  0.00    +0.000 A 
ATOM     21  C   UNL     1      46.295   6.510  11.557  0.00  0.00    +0.000 A 
BRANCH  16  22
ATOM     22  C   UNL     1      43.991   5.598  10.996  0.00  0.00    +0.000 C 
BRANCH  22  23
ATOM     23  N   UNL     1      43.055   6.699  11.206  0.00  0.00    +0.000 NA
ATOM     24  H   UNL     1      42.365   6.423  11.903  0.00  0.00    +0.000 HD
ATOM     25  H   UNL     1      42.544   6.865  10.341  0.00  0.00    +0.000 HD
ENDBRANCH  22  23
ENDBRANCH  16  22
ENDBRANCH  15  19
ENDBRANCH  14  15
ENDBRANCH   1  14
TORSDOF 7
ENDMDL
