MODEL 1
REMARK VINA RESULT:    -8.883      0.000      0.000
REMARK INTER + INTRA:         -11.981
REMARK INTER:                 -11.480
REMARK INTRA:                  -0.502
REMARK UNBOUND:                -0.502
REMARK  Name = 
REMARK  5 active torsions:
REMARK  status: ('A' for Active; 'I' for Inactive)
REMARK    1  A    between atoms: C_2  and  C_4
REMARK    2  A    between atoms: C_7  and  N_8
REMARK    3  A    between atoms: N_8  and  C_9
REMARK    4  A    between atoms: C_9  and  C_10
REMARK    5  A    between atoms: C_13  and  C_14
REMARK                            x       y       z     vdW  Elec       q    Type
REMARK                         _______ _______ _______ _____ _____    ______ ____
ROOT
ATOM      1  C   UNL     1      43.908   4.885  11.435  0.00  0.00    +0.000 C 
ATOM      2  C   UNL     1      43.469   3.642  12.212  0.00  0.00    +0.000 C 
ATOM      3  C   UNL     1      42.670   4.890  12.317  0.00  0.00    +0.000 C 
ATOM      4  F   UNL     1      42.707   5.540  13.541  0.00  0.00    +0.000 F 
ENDROOT
BRANCH   1   5
ATOM      5  C   UNL     1      45.184   5.568  11.930  0.00  0.00    +0.000 A 
ATOM      6  C   UNL     1      46.025   4.969  12.885  0.00  0.00    +0.000 A 
ATOM      7  C   UNL     1      47.261   5.525  13.228  0.00  0.00    +0.000 A 
ATOM      8  C   UNL     1      47.685   6.722  12.643  0.00  0.00    +0.000 A 
ATOM      9  C   UNL     1      46.824   7.377  11.753  0.00  0.00    +0.000 A 
ATOM     10  C   UNL     1      45.596   6.805  11.404  0.00  0.00    +0.000 A 
BRANCH   8  11
ATOM     11  C   UNL     1      49.054   7.287  12.926  0.00  0.00    +0.000 C 
ATOM     12  F   UNL     1      49.634   6.779  14.049  0.00  0.00    +0.000 F 
ATOM     13  F   UNL     1      49.933   7.043  11.913  0.00  0.00    +0.000 F 
ATOM     14  F   UNL     1      49.041   8.638  13.090  0.00  0.00    +0.000 F 
ENDBRANCH   8  11
ENDBRANCH   1   5
BRANCH   1  15
ATOM     15  N   UNL     1      43.812   4.752   9.965  0.00  0.00    +0.000 N 
ATOM     16  H   UNL     1      42.872   4.790   9.577  0.00  0.00    +0.000 HD
BRANCH  15  20
ATOM     17  C   UNL     1      46.553   2.525   7.644  0.00  0.00    +0.000 A 
ATOM     18  C   UNL     1      45.657   1.853   8.483  0.00  0.00    +0.000 A 
ATOM     19  C   UNL     1      44.735   2.573   9.249  0.00  0.00    +0.000 A 
ATOM     20  C   UNL     1      44.672   3.968   9.172  0.00  0.00    +0.000 A 
ATOM     21  C   UNL     1      45.609   4.629   8.363  0.00  0.00    +0.000 A 
ATOM     22  C   UNL     1      46.542   3.917   7.603  0.00  0.00    +0.000 A 
BRANCH  17  24
ATOM     23  N   UNL     1      48.614   2.511   6.351  0.00  0.00    +0.000 N 
ATOM     24  C   UNL     1      47.542   1.797   6.808  0.00  0.00    +0.000 C 
ATOM     25  O   UNL     1      47.428   0.603   6.568  0.00  0.00    +0.000 OA
ATOM     26  H   UNL     1      49.338   1.981   5.883  0.00  0.00    +0.000 HD
ATOM     27  H   UNL     1      48.867   3.407   6.740  0.00  0.00    +0.000 HD
ENDBRANCH  17  24
ENDBRANCH  15  20
ENDBRANCH   1  15
TORSDOF 5
ENDMDL
MODEL 2
REMARK VINA RESULT:    -8.445      4.319      6.875
REMARK INTER + INTRA:         -11.416
REMARK INTER:                 -11.070
REMARK INTRA:                  -0.345
REMARK UNBOUND:                -0.502
REMARK  Name = 
REMARK  5 active torsions:
REMARK  status: ('A' for Active; 'I' for Inactive)
REMARK    1  A    between atoms: C_2  and  C_4
REMARK    2  A    between atoms: C_7  and  N_8
REMARK    3  A    between atoms: N_8  and  C_9
REMARK    4  A    between atoms: C_9  and  C_10
REMARK    5  A    between atoms: C_13  and  C_14
REMARK                            x       y       z     vdW  Elec       q    Type
REMARK                         _______ _______ _______ _____ _____    ______ ____
ROOT
ATOM      1  C   UNL     1      44.285   4.838  10.954  0.00  0.00    +0.000 C 
ATOM      2  C   UNL     1      42.830   4.515  11.298  0.00  0.00    +0.000 C 
ATOM      3  C   UNL     1      43.909   4.118  12.239  0.00  0.00    +0.000 C 
ATOM      4  F   UNL     1      44.151   2.758  12.355  0.00  0.00    +0.000 F 
ENDROOT
BRANCH   1   5
ATOM      5  C   UNL     1      44.892   4.041   9.799  0.00  0.00    +0.000 A 
ATOM      6  C   UNL     1      45.595   4.666   8.753  0.00  0.00    +0.000 A 
ATOM      7  C   UNL     1      46.272   3.928   7.778  0.00  0.00    +0.000 A 
ATOM      8  C   UNL     1      46.245   2.530   7.802  0.00  0.00    +0.000 A 
ATOM      9  C   UNL     1      45.481   1.890   8.787  0.00  0.00    +0.000 A 
ATOM     10  C   UNL     1      44.820   2.637   9.768  0.00  0.00    +0.000 A 
BRANCH   8  11
ATOM     11  C   UNL     1      47.047   1.716   6.818  0.00  0.00    +0.000 C 
ATOM     12  F   UNL     1      46.808   0.377   6.892  0.00  0.00    +0.000 F 
ATOM     13  F   UNL     1      46.790   2.068   5.527  0.00  0.00    +0.000 F 
ATOM     14  F   UNL     1      48.390   1.867   6.984  0.00  0.00    +0.000 F 
ENDBRANCH   8  11
ENDBRANCH   1   5
BRANCH   1  15
ATOM     15  N   UNL     1      44.603   6.283  10.940  0.00  0.00    +0.000 N 
ATOM     16  H   UNL     1      44.527   6.745  10.036  0.00  0.00    +0.000 HD
BRANCH  15  20
ATOM     17  C   UNL     1      47.337   8.177  13.547  0.00  0.00    +0.000 A 
ATOM     18  C   UNL     1      47.668   6.939  12.985  0.00  0.00    +0.000 A 
ATOM     19  C   UNL     1      46.780   6.303  12.111  0.00  0.00    +0.000 A 
ATOM     20  C   UNL     1      45.565   6.900  11.761  0.00  0.00    +0.000 A 
ATOM     21  C   UNL     1      45.228   8.119  12.371  0.00  0.00    +0.000 A 
ATOM     22  C   UNL     1      46.104   8.755  13.255  0.00  0.00    +0.000 A 
BRANCH  17  24
ATOM     23  N   UNL     1      47.760   9.223  15.702  0.00  0.00    +0.000 N 
ATOM     24  C   UNL     1      48.255   8.889  14.473  0.00  0.00    +0.000 C 
ATOM     25  O   UNL     1      49.414   9.132  14.170  0.00  0.00    +0.000 OA
ATOM     26  H   UNL     1      48.425   9.601  16.365  0.00  0.00    +0.000 HD
ATOM     27  H   UNL     1      46.914   8.813  16.070  0.00  0.00    +0.000 HD
ENDBRANCH  17  24
ENDBRANCH  15  20
ENDBRANCH   1  15
TORSDOF 5
ENDMDL
MODEL 3
REMARK VINA RESULT:    -8.181      4.327      6.821
REMARK INTER + INTRA:         -11.074
REMARK INTER:                 -10.830
REMARK INTRA:                  -0.245
REMARK UNBOUND:                -0.502
REMARK  Name = 
REMARK  5 active torsions:
REMARK  status: ('A' for Active; 'I' for Inactive)
REMARK    1  A    between atoms: C_2  and  C_4
REMARK    2  A    between atoms: C_7  and  N_8
REMARK    3  A    between atoms: N_8  and  C_9
REMARK    4  A    between atoms: C_9  and  C_10
REMARK    5  A    between atoms: C_13  and  C_14
REMARK                            x       y       z     vdW  Elec       q    Type
REMARK                         _______ _______ _______ _____ _____    ______ ____
ROOT
ATOM      1  C   UNL     1      44.471   4.764  11.072  0.00  0.00    +0.000 C 
ATOM      2  C   UNL     1      42.993   5.155  11.011  0.00  0.00    +0.000 C 
ATOM      3  C   UNL     1      43.427   4.080  11.940  0.00  0.00    +0.000 C 
ATOM      4  F   UNL     1      43.014   2.795  11.626  0.00  0.00    +0.000 F 
ENDROOT
BRANCH   1   5
ATOM      5  C   UNL     1      45.021   4.034   9.847  0.00  0.00    +0.000 A 
ATOM      6  C   UNL     1      45.640   4.720   8.788  0.00  0.00    +0.000 A 
ATOM      7  C   UNL     1      46.270   4.043   7.740  0.00  0.00    +0.000 A 
ATOM      8  C   UNL     1      46.278   2.645   7.704  0.00  0.00    +0.000 A 
ATOM      9  C   UNL     1      45.594   1.944   8.706  0.00  0.00    +0.000 A 
ATOM     10  C   UNL     1      44.980   2.630   9.758  0.00  0.00    +0.000 A 
BRANCH   8  11
ATOM     11  C   UNL     1      47.034   1.896   6.636  0.00  0.00    +0.000 C 
ATOM     12  F   UNL     1      46.756   2.317   5.371  0.00  0.00    +0.000 F 
ATOM     13  F   UNL     1      48.384   2.017   6.779  0.00  0.00    +0.000 F 
ATOM     14  F   UNL     1      46.778   0.559   6.651  0.00  0.00    +0.000 F 
ENDBRANCH   8  11
ENDBRANCH   1   5
BRANCH   1  15
ATOM     15  N   UNL     1      45.359   5.816  11.613  0.00  0.00    +0.000 N 
ATOM     16  H   UNL     1      45.765   6.449  10.926  0.00  0.00    +0.000 HD
BRANCH  15  20
ATOM     17  C   UNL     1      47.818   5.561  15.040  0.00  0.00    +0.000 A 
ATOM     18  C   UNL     1      46.884   4.550  14.788  0.00  0.00    +0.000 A 
ATOM     19  C   UNL     1      46.069   4.613  13.651  0.00  0.00    +0.000 A 
ATOM     20  C   UNL     1      46.192   5.664  12.738  0.00  0.00    +0.000 A 
ATOM     21  C   UNL     1      47.100   6.693  13.031  0.00  0.00    +0.000 A 
ATOM     22  C   UNL     1      47.908   6.645  14.171  0.00  0.00    +0.000 A 
BRANCH  17  24
ATOM     23  N   UNL     1      48.883   6.702  16.906  0.00  0.00    +0.000 N 
ATOM     24  C   UNL     1      48.706   5.528  16.231  0.00  0.00    +0.000 C 
ATOM     25  O   UNL     1      49.228   4.492  16.616  0.00  0.00    +0.000 OA
ATOM     26  H   UNL     1      49.393   6.645  17.778  0.00  0.00    +0.000 HD
ATOM     27  H   UNL     1      48.273   7.496  16.772  0.00  0.00    +0.000 HD
ENDBRANCH  17  24
ENDBRANCH  15  20
ENDBRANCH   1  15
TORSDOF 5
ENDMDL
MODEL 4
REMARK VINA RESULT:    -7.562      4.309      6.745
REMARK INTER + INTRA:         -10.274
REMARK INTER:                 -10.254
REMARK INTRA:                  -0.019
REMARK UNBOUND:                -0.502
REMARK  Name = 
REMARK  5 active torsions:
REMARK  status: ('A' for Active; 'I' for Inactive)
REMARK    1  A    between atoms: C_2  and  C_4
REMARK    2  A    between atoms: C_7  and  N_8
REMARK    3  A    between atoms: N_8  and  C_9
REMARK    4  A    between atoms: C_9  and  C_10
REMARK    5  A    between atoms: C_13  and  C_14
REMARK                            x       y       z     vdW  Elec       q    Type
REMARK                         _______ _______ _______ _____ _____    ______ ____
ROOT
ATOM      1  C   UNL     1      44.642   4.506  11.461  0.00  0.00    +0.000 C 
ATOM      2  C   UNL     1      43.372   5.359  11.440  0.00  0.00    +0.000 C 
ATOM      3  C   UNL     1      43.331   4.002  12.042  0.00  0.00    +0.000 C 
ATOM      4  F   UNL     1      42.602   3.047  11.351  0.00  0.00    +0.000 F 
ENDROOT
BRANCH   1   5
ATOM      5  C   UNL     1      45.115   3.976  10.108  0.00  0.00    +0.000 A 
ATOM      6  C   UNL     1      45.631   4.828   9.115  0.00  0.00    +0.000 A 
ATOM      7  C   UNL     1      46.196   4.328   7.937  0.00  0.00    +0.000 A 
ATOM      8  C   UNL     1      46.239   2.951   7.702  0.00  0.00    +0.000 A 
ATOM      9  C   UNL     1      45.654   2.091   8.641  0.00  0.00    +0.000 A 
ATOM     10  C   UNL     1      45.105   2.599   9.823  0.00  0.00    +0.000 A 
BRANCH   8  11
ATOM     11  C   UNL     1      46.930   2.388   6.486  0.00  0.00    +0.000 C 
ATOM     12  F   UNL     1      48.270   2.629   6.458  0.00  0.00    +0.000 F 
ATOM     13  F   UNL     1      46.794   1.035   6.396  0.00  0.00    +0.000 F 
ATOM     14  F   UNL     1      46.434   2.889   5.321  0.00  0.00    +0.000 F 
ENDBRANCH   8  11
ENDBRANCH   1   5
BRANCH   1  15
ATOM     15  N   UNL     1      45.720   5.036  12.326  0.00  0.00    +0.000 N 
ATOM     16  H   UNL     1      45.814   4.593  13.238  0.00  0.00    +0.000 HD
BRANCH  15  20
ATOM     17  C   UNL     1      47.065   9.040  12.210  0.00  0.00    +0.000 A 
ATOM     18  C   UNL     1      45.755   8.767  12.621  0.00  0.00    +0.000 A 
ATOM     19  C   UNL     1      45.297   7.446  12.677  0.00  0.00    +0.000 A 
ATOM     20  C   UNL     1      46.141   6.379  12.352  0.00  0.00    +0.000 A 
ATOM     21  C   UNL     1      47.434   6.674  11.896  0.00  0.00    +0.000 A 
ATOM     22  C   UNL     1      47.896   7.992  11.825  0.00  0.00    +0.000 A 
BRANCH  17  24
ATOM     23  N   UNL     1      47.936  11.016  13.329  0.00  0.00    +0.000 N 
ATOM     24  C   UNL     1      47.592  10.428  12.145  0.00  0.00    +0.000 C 
ATOM     25  O   UNL     1      47.750  11.008  11.081  0.00  0.00    +0.000 OA
ATOM     26  H   UNL     1      48.401  11.913  13.265  0.00  0.00    +0.000 HD
ATOM     27  H   UNL     1      48.063  10.483  14.177  0.00  0.00    +0.000 HD
ENDBRANCH  17  24
ENDBRANCH  15  20
ENDBRANCH   1  15
TORSDOF 5
ENDMDL
MODEL 5
REMARK VINA RESULT:    -7.010      4.341      6.559
REMARK INTER + INTRA:          -9.561
REMARK INTER:                  -9.187
REMARK INTRA:                  -0.374
REMARK UNBOUND:                -0.502
REMARK  Name = 
REMARK  5 active torsions:
REMARK  status: ('A' for Active; 'I' for Inactive)
REMARK    1  A    between atoms: C_2  and  C_4
REMARK    2  A    between atoms: C_7  and  N_8
REMARK    3  A    between atoms: N_8  and  C_9
REMARK    4  A    between atoms: C_9  and  C_10
REMARK    5  A    between atoms: C_13  and  C_14
REMARK                            x       y       z     vdW  Elec       q    Type
REMARK                         _______ _______ _______ _____ _____    ______ ____
ROOT
ATOM      1  C   UNL     1      44.430   5.336  11.648  0.00  0.00    +0.000 C 
ATOM      2  C   UNL     1      43.426   6.461  11.385  0.00  0.00    +0.000 C 
ATOM      3  C   UNL     1      42.977   5.228  12.081  0.00  0.00    +0.000 C 
ATOM      4  F   UNL     1      42.114   4.405  11.374  0.00  0.00    +0.000 F 
ENDROOT
BRANCH   1   5
ATOM      5  C   UNL     1      44.904   4.563  10.417  0.00  0.00    +0.000 A 
ATOM      6  C   UNL     1      45.510   5.204   9.323  0.00  0.00    +0.000 A 
ATOM      7  C   UNL     1      46.073   4.483   8.266  0.00  0.00    +0.000 A 
ATOM      8  C   UNL     1      46.024   3.086   8.257  0.00  0.00    +0.000 A 
ATOM      9  C   UNL     1      45.350   2.431   9.297  0.00  0.00    +0.000 A 
ATOM     10  C   UNL     1      44.804   3.161  10.358  0.00  0.00    +0.000 A 
BRANCH   8  11
ATOM     11  C   UNL     1      46.709   2.287   7.177  0.00  0.00    +0.000 C 
ATOM     12  F   UNL     1      48.059   2.464   7.140  0.00  0.00    +0.000 F 
ATOM     13  F   UNL     1      46.515   0.946   7.325  0.00  0.00    +0.000 F 
ATOM     14  F   UNL     1      46.256   2.593   5.930  0.00  0.00    +0.000 F 
ENDBRANCH   8  11
ENDBRANCH   1   5
BRANCH   1  15
ATOM     15  N   UNL     1      45.501   5.685  12.607  0.00  0.00    +0.000 N 
ATOM     16  H   UNL     1      45.320   5.444  13.580  0.00  0.00    +0.000 HD
BRANCH  15  20
ATOM     17  C   UNL     1      48.072   8.996  12.071  0.00  0.00    +0.000 A 
ATOM     18  C   UNL     1      46.820   9.187  12.666  0.00  0.00    +0.000 A 
ATOM     19  C   UNL     1      45.961   8.100  12.861  0.00  0.00    +0.000 A 
ATOM     20  C   UNL     1      46.344   6.807  12.495  0.00  0.00    +0.000 A 
ATOM     21  C   UNL     1      47.583   6.640  11.857  0.00  0.00    +0.000 A 
ATOM     22  C   UNL     1      48.442   7.722  11.646  0.00  0.00    +0.000 A 
BRANCH  17  24
ATOM     23  N   UNL     1      50.265   9.804  11.396  0.00  0.00    +0.000 N 
ATOM     24  C   UNL     1      49.017  10.121  11.853  0.00  0.00    +0.000 C 
ATOM     25  O   UNL     1      48.686  11.284  12.034  0.00  0.00    +0.000 OA
ATOM     26  H   UNL     1      50.860  10.582  11.141  0.00  0.00    +0.000 HD
ATOM     27  H   UNL     1      50.477   8.902  10.996  0.00  0.00    +0.000 HD
ENDBRANCH  17  24
ENDBRANCH  15  20
ENDBRANCH   1  15
TORSDOF 5
ENDMDL
MODEL 6
REMARK VINA RESULT:    -6.456      3.265      5.002
REMARK INTER + INTRA:          -8.845
REMARK INTER:                  -8.585
REMARK INTRA:                  -0.260
REMARK UNBOUND:                -0.502
REMARK  Name = 
REMARK  5 active torsions:
REMARK  status: ('A' for Active; 'I' for Inactive)
REMARK    1  A    between atoms: C_2  and  C_4
REMARK    2  A    between atoms: C_7  and  N_8
REMARK    3  A    between atoms: N_8  and  C_9
REMARK    4  A    between atoms: C_9  and  C_10
REMARK    5  A    between atoms: C_13  and  C_14
REMARK                            x       y       z     vdW  Elec       q    Type
REMARK                         _______ _______ _______ _____ _____    ______ ____
ROOT
ATOM      1  C   UNL     1      47.277   6.614  13.645  0.00  0.00    +0.000 C 
ATOM      2  C   UNL     1      47.709   8.081  13.604  0.00  0.00    +0.000 C 
ATOM      3  C   UNL     1      48.348   7.105  12.684  0.00  0.00    +0.000 C 
ATOM      4  F   UNL     1      49.678   6.806  12.934  0.00  0.00    +0.000 F 
ENDROOT
BRANCH   1   5
ATOM      5  C   UNL     1      47.692   5.828  14.889  0.00  0.00    +0.000 A 
ATOM      6  C   UNL     1      47.178   4.549  15.167  0.00  0.00    +0.000 A 
ATOM      7  C   UNL     1      47.664   3.774  16.224  0.00  0.00    +0.000 A 
ATOM      8  C   UNL     1      48.669   4.269  17.060  0.00  0.00    +0.000 A 
ATOM      9  C   UNL     1      49.135   5.574  16.851  0.00  0.00    +0.000 A 
ATOM     10  C   UNL     1      48.653   6.336  15.782  0.00  0.00    +0.000 A 
BRANCH   8  11
ATOM     11  C   UNL     1      49.275   3.413  18.144  0.00  0.00    +0.000 C 
ATOM     12  F   UNL     1      50.036   2.387  17.670  0.00  0.00    +0.000 F 
ATOM     13  F   UNL     1      50.089   4.127  18.971  0.00  0.00    +0.000 F 
ATOM     14  F   UNL     1      48.336   2.842  18.948  0.00  0.00    +0.000 F 
ENDBRANCH   8  11
ENDBRANCH   1   5
BRANCH   1  15
ATOM     15  N   UNL     1      45.887   6.373  13.199  0.00  0.00    +0.000 N 
ATOM     16  H   UNL     1      45.171   6.458  13.918  0.00  0.00    +0.000 HD
BRANCH  15  20
ATOM     17  C   UNL     1      44.938   3.691  10.074  0.00  0.00    +0.000 A 
ATOM     18  C   UNL     1      44.865   3.254  11.402  0.00  0.00    +0.000 A 
ATOM     19  C   UNL     1      45.164   4.132  12.450  0.00  0.00    +0.000 A 
ATOM     20  C   UNL     1      45.513   5.461  12.194  0.00  0.00    +0.000 A 
ATOM     21  C   UNL     1      45.628   5.870  10.857  0.00  0.00    +0.000 A 
ATOM     22  C   UNL     1      45.342   4.995   9.803  0.00  0.00    +0.000 A 
BRANCH  17  24
ATOM     23  N   UNL     1      44.356   3.386   7.733  0.00  0.00    +0.000 N 
ATOM     24  C   UNL     1      44.620   2.793   8.935  0.00  0.00    +0.000 C 
ATOM     25  O   UNL     1      44.630   1.576   9.051  0.00  0.00    +0.000 OA
ATOM     26  H   UNL     1      44.256   2.766   6.939  0.00  0.00    +0.000 HD
ATOM     27  H   UNL     1      44.593   4.350   7.546  0.00  0.00    +0.000 HD
ENDBRANCH  17  24
ENDBRANCH  15  20
ENDBRANCH   1  15
TORSDOF 5
ENDMDL
MODEL 7
REMARK VINA RESULT:    -6.210      5.242      8.294
REMARK INTER + INTRA:          -8.527
REMARK INTER:                  -8.096
REMARK INTRA:                  -0.431
REMARK UNBOUND:                -0.502
REMARK  Name = 
REMARK  5 active torsions:
REMARK  status: ('A' for Active; 'I' for Inactive)
REMARK    1  A    between atoms: C_2  and  C_4
REMARK    2  A    between atoms: C_7  and  N_8
REMARK    3  A    between atoms: N_8  and  C_9
REMARK    4  A    between atoms: C_9  and  C_10
REMARK    5  A    between atoms: C_13  and  C_14
REMARK                            x       y       z     vdW  Elec       q    Type
REMARK                         _______ _______ _______ _____ _____    ______ ____
ROOT
ATOM      1  C   UNL     1      47.614   7.073  13.583  0.00  0.00    +0.000 C 
ATOM      2  C   UNL     1      48.207   8.276  12.847  0.00  0.00    +0.000 C 
ATOM      3  C   UNL     1      47.198   8.497  13.915  0.00  0.00    +0.000 C 
ATOM      4  F   UNL     1      45.959   8.960  13.501  0.00  0.00    +0.000 F 
ENDROOT
BRANCH   1   5
ATOM      5  C   UNL     1      46.671   6.188  12.768  0.00  0.00    +0.000 A 
ATOM      6  C   UNL     1      46.409   6.433  11.409  0.00  0.00    +0.000 A 
ATOM      7  C   UNL     1      45.665   5.543  10.630  0.00  0.00    +0.000 A 
ATOM      8  C   UNL     1      45.130   4.383  11.197  0.00  0.00    +0.000 A 
ATOM      9  C   UNL     1      45.309   4.163  12.569  0.00  0.00    +0.000 A 
ATOM     10  C   UNL     1      46.069   5.051  13.337  0.00  0.00    +0.000 A 
BRANCH   8  11
ATOM     11  C   UNL     1      44.408   3.363  10.354  0.00  0.00    +0.000 C 
ATOM     12  F   UNL     1      43.388   2.737  11.006  0.00  0.00    +0.000 F 
ATOM     13  F   UNL     1      43.850   3.916   9.240  0.00  0.00    +0.000 F 
ATOM     14  F   UNL     1      45.229   2.374   9.907  0.00  0.00    +0.000 F 
ENDBRANCH   8  11
ENDBRANCH   1   5
BRANCH   1  15
ATOM     15  N   UNL     1      48.582   6.333  14.422  0.00  0.00    +0.000 N 
ATOM     16  H   UNL     1      49.054   5.551  13.970  0.00  0.00    +0.000 HD
BRANCH  15  20
ATOM     17  C   UNL     1      48.266   5.533  18.560  0.00  0.00    +0.000 A 
ATOM     18  C   UNL     1      48.862   6.725  18.134  0.00  0.00    +0.000 A 
ATOM     19  C   UNL     1      48.965   7.012  16.768  0.00  0.00    +0.000 A 
ATOM     20  C   UNL     1      48.452   6.132  15.809  0.00  0.00    +0.000 A 
ATOM     21  C   UNL     1      47.902   4.920  16.252  0.00  0.00    +0.000 A 
ATOM     22  C   UNL     1      47.806   4.620  17.614  0.00  0.00    +0.000 A 
BRANCH  17  24
ATOM     23  N   UNL     1      48.623   3.986  20.402  0.00  0.00    +0.000 N 
ATOM     24  C   UNL     1      48.131   5.195  20.000  0.00  0.00    +0.000 C 
ATOM     25  O   UNL     1      47.637   5.975  20.801  0.00  0.00    +0.000 OA
ATOM     26  H   UNL     1      48.631   3.815  21.400  0.00  0.00    +0.000 HD
ATOM     27  H   UNL     1      49.256   3.446  19.830  0.00  0.00    +0.000 HD
ENDBRANCH  17  24
ENDBRANCH  15  20
ENDBRANCH   1  15
TORSDOF 5
ENDMDL
MODEL 8
REMARK VINA RESULT:    -6.139      3.363      5.460
REMARK INTER + INTRA:          -8.436
REMARK INTER:                  -7.574
REMARK INTRA:                  -0.861
REMARK UNBOUND:                -0.502
REMARK  Name = 
REMARK  5 active torsions:
REMARK  status: ('A' for Active; 'I' for Inactive)
REMARK    1  A    between atoms: C_2  and  C_4
REMARK    2  A    between atoms: C_7  and  N_8
REMARK    3  A    between atoms: N_8  and  C_9
REMARK    4  A    between atoms: C_9  and  C_10
REMARK    5  A    between atoms: C_13  and  C_14
REMARK                            x       y       z     vdW  Elec       q    Type
REMARK                         _______ _______ _______ _____ _____    ______ ____
ROOT
ATOM      1  C   UNL     1      47.751   7.963  12.888  0.00  0.00    +0.000 C 
ATOM      2  C   UNL     1      48.366   9.102  12.072  0.00  0.00    +0.000 C 
ATOM      3  C   UNL     1      48.746   7.698  11.769  0.00  0.00    +0.000 C 
ATOM      4  F   UNL     1      50.045   7.333  12.084  0.00  0.00    +0.000 F 
ENDROOT
BRANCH   1   5
ATOM      5  C   UNL     1      48.213   7.856  14.342  0.00  0.00    +0.000 A 
ATOM      6  C   UNL     1      48.191   8.959  15.212  0.00  0.00    +0.000 A 
ATOM      7  C   UNL     1      48.475   8.828  16.575  0.00  0.00    +0.000 A 
ATOM      8  C   UNL     1      48.819   7.583  17.109  0.00  0.00    +0.000 A 
ATOM      9  C   UNL     1      48.929   6.487  16.243  0.00  0.00    +0.000 A 
ATOM     10  C   UNL     1      48.628   6.625  14.884  0.00  0.00    +0.000 A 
BRANCH   8  11
ATOM     11  C   UNL     1      49.034   7.401  18.591  0.00  0.00    +0.000 C 
ATOM     12  F   UNL     1      48.207   6.477  19.154  0.00  0.00    +0.000 F 
ATOM     13  F   UNL     1      50.301   6.991  18.882  0.00  0.00    +0.000 F 
ATOM     14  F   UNL     1      48.844   8.552  19.294  0.00  0.00    +0.000 F 
ENDBRANCH   8  11
ENDBRANCH   1   5
BRANCH   1  15
ATOM     15  N   UNL     1      46.296   7.785  12.690  0.00  0.00    +0.000 N 
ATOM     16  H   UNL     1      45.695   8.364  13.274  0.00  0.00    +0.000 HD
BRANCH  15  20
ATOM     17  C   UNL     1      44.569   4.115  11.502  0.00  0.00    +0.000 A 
ATOM     18  C   UNL     1      44.876   4.326  12.851  0.00  0.00    +0.000 A 
ATOM     19  C   UNL     1      45.438   5.539  13.264  0.00  0.00    +0.000 A 
ATOM     20  C   UNL     1      45.675   6.569  12.348  0.00  0.00    +0.000 A 
ATOM     21  C   UNL     1      45.406   6.323  10.993  0.00  0.00    +0.000 A 
ATOM     22  C   UNL     1      44.856   5.109  10.570  0.00  0.00    +0.000 A 
BRANCH  17  24
ATOM     23  N   UNL     1      44.588   2.214   9.985  0.00  0.00    +0.000 N 
ATOM     24  C   UNL     1      43.965   2.845  11.025  0.00  0.00    +0.000 C 
ATOM     25  O   UNL     1      42.978   2.360  11.559  0.00  0.00    +0.000 OA
ATOM     26  H   UNL     1      44.239   1.295   9.745  0.00  0.00    +0.000 HD
ATOM     27  H   UNL     1      45.530   2.445   9.703  0.00  0.00    +0.000 HD
ENDBRANCH  17  24
ENDBRANCH  15  20
ENDBRANCH   1  15
TORSDOF 5
ENDMDL
MODEL 9
REMARK VINA RESULT:    -6.136      6.298      8.422
REMARK INTER + INTRA:          -8.431
REMARK INTER:                  -7.753
REMARK INTRA:                  -0.678
REMARK UNBOUND:                -0.502
REMARK  Name = 
REMARK  5 active torsions:
REMARK  status: ('A' for Active; 'I' for Inactive)
REMARK    1  A    between atoms: C_2  and  C_4
REMARK    2  A    between atoms: C_7  and  N_8
REMARK    3  A    between atoms: N_8  and  C_9
REMARK    4  A    between atoms: C_9  and  C_10
REMARK    5  A    between atoms: C_13  and  C_14
REMARK                            x       y       z     vdW  Elec       q    Type
REMARK                         _______ _______ _______ _____ _____    ______ ____
ROOT
ATOM      1  C   UNL     1      48.864   5.738  17.460  0.00  0.00    +0.000 C 
ATOM      2  C   UNL     1      48.359   6.906  18.310  0.00  0.00    +0.000 C 
ATOM      3  C   UNL     1      47.980   5.517  18.677  0.00  0.00    +0.000 C 
ATOM      4  F   UNL     1      46.648   5.178  18.499  0.00  0.00    +0.000 F 
ENDROOT
BRANCH   1   5
ATOM      5  C   UNL     1      48.258   5.617  16.062  0.00  0.00    +0.000 A 
ATOM      6  C   UNL     1      47.386   4.570  15.717  0.00  0.00    +0.000 A 
ATOM      7  C   UNL     1      46.720   4.541  14.488  0.00  0.00    +0.000 A 
ATOM      8  C   UNL     1      46.929   5.553  13.546  0.00  0.00    +0.000 A 
ATOM      9  C   UNL     1      47.859   6.560  13.837  0.00  0.00    +0.000 A 
ATOM     10  C   UNL     1      48.508   6.589  15.076  0.00  0.00    +0.000 A 
BRANCH   8  11
ATOM     11  C   UNL     1      46.149   5.591  12.256  0.00  0.00    +0.000 C 
ATOM     12  F   UNL     1      46.828   6.165  11.224  0.00  0.00    +0.000 F 
ATOM     13  F   UNL     1      45.803   4.346  11.825  0.00  0.00    +0.000 F 
ATOM     14  F   UNL     1      44.983   6.284  12.368  0.00  0.00    +0.000 F 
ENDBRANCH   8  11
ENDBRANCH   1   5
BRANCH   1  15
ATOM     15  N   UNL     1      50.328   5.529  17.518  0.00  0.00    +0.000 N 
ATOM     16  H   UNL     1      50.895   6.236  17.054  0.00  0.00    +0.000 HD
BRANCH  15  20
ATOM     17  C   UNL     1      52.317   1.804  17.697  0.00  0.00    +0.000 A 
ATOM     18  C   UNL     1      50.947   1.839  17.409  0.00  0.00    +0.000 A 
ATOM     19  C   UNL     1      50.275   3.064  17.334  0.00  0.00    +0.000 A 
ATOM     20  C   UNL     1      50.959   4.270  17.516  0.00  0.00    +0.000 A 
ATOM     21  C   UNL     1      52.320   4.215  17.851  0.00  0.00    +0.000 A 
ATOM     22  C   UNL     1      52.997   2.994  17.940  0.00  0.00    +0.000 A 
BRANCH  17  24
ATOM     23  N   UNL     1      52.481  -0.497  18.468  0.00  0.00    +0.000 N 
ATOM     24  C   UNL     1      53.068   0.525  17.777  0.00  0.00    +0.000 C 
ATOM     25  O   UNL     1      54.146   0.375  17.221  0.00  0.00    +0.000 OA
ATOM     26  H   UNL     1      52.944  -1.396  18.418  0.00  0.00    +0.000 HD
ATOM     27  H   UNL     1      51.500  -0.489  18.708  0.00  0.00    +0.000 HD
ENDBRANCH  17  24
ENDBRANCH  15  20
ENDBRANCH   1  15
TORSDOF 5
ENDMDL
