MODEL 1
REMARK VINA RESULT:    -8.459      0.000      0.000
REMARK INTER + INTRA:         -12.149
REMARK INTER:                 -11.426
REMARK INTRA:                  -0.723
REMARK UNBOUND:                -0.723
REMARK  Name = 
REMARK  7 active torsions:
REMARK  status: ('A' for Active; 'I' for Inactive)
REMARK    1  A    between atoms: C_1  and  N_2
REMARK    2  A    between atoms: N_2  and  C_3
REMARK    3  A    between atoms: C_3  and  C_4
REMARK    4  A    between atoms: C_7  and  C_8
REMARK    5  A    between atoms: C_8  and  N_9
REMARK    6  A    between atoms: C_10  and  C_12
REMARK    7  A    between atoms: C_19  and  C_21
REMARK                            x       y       z     vdW  Elec       q    Type
REMARK                         _______ _______ _______ _____ _____    ______ ____
ROOT
ATOM      1  C   UNL     1      47.536   5.650  13.956  0.00  0.00    +0.000 A 
ATOM      2  C   UNL     1      46.926   4.409  14.195  0.00  0.00    +0.000 A 
ATOM      3  C   UNL     1      47.083   3.760  15.423  0.00  0.00    +0.000 A 
ATOM      4  C   UNL     1      47.836   4.347  16.447  0.00  0.00    +0.000 A 
ATOM      5  C   UNL     1      48.431   5.596  16.213  0.00  0.00    +0.000 A 
ATOM      6  C   UNL     1      48.275   6.246  14.984  0.00  0.00    +0.000 A 
ENDROOT
BRANCH   1   7
ATOM      7  C   UNL     1      47.480   6.277  12.583  0.00  0.00    +0.000 C 
BRANCH   7   9
ATOM      8  C   UNL     1      46.881   8.716  12.325  0.00  0.00    +0.000 C 
ATOM      9  N   UNL     1      46.484   7.314  12.306  0.00  0.00    +0.000 N 
ATOM     10  C   UNL     1      45.193   7.027  11.815  0.00  0.00    +0.000 C 
ATOM     11  O   UNL     1      44.437   7.921  11.441  0.00  0.00    +0.000 OA
BRANCH  10  12
ATOM     12  C   UNL     1      44.720   5.632  11.788  0.00  0.00    +0.000 A 
ATOM     13  C   UNL     1      43.960   5.043  12.786  0.00  0.00    +0.000 A 
ATOM     14  S   UNL     1      43.511   3.431  12.447  0.00  0.00    +0.000 S 
ATOM     15  C   UNL     1      44.179   3.521  10.886  0.00  0.00    +0.000 A 
ATOM     16  N   UNL     1      44.039   2.492  10.009  0.00  0.00    +0.000 NA
ATOM     17  C   UNL     1      44.529   2.728   8.837  0.00  0.00    +0.000 A 
ATOM     18  N   UNL     1      45.178   3.883   8.477  0.00  0.00    +0.000 N 
ATOM     19  C   UNL     1      45.464   4.892   9.374  0.00  0.00    +0.000 A 
ATOM     20  O   UNL     1      46.244   5.791   9.082  0.00  0.00    +0.000 OA
ATOM     21  C   UNL     1      44.823   4.725  10.667  0.00  0.00    +0.000 A 
ATOM     22  H   UNL     1      45.595   3.976   7.564  0.00  0.00    +0.000 HD
ENDBRANCH  10  12
ENDBRANCH   7   9
ENDBRANCH   1   7
BRANCH   4  23
ATOM     23  C   UNL     1      48.025   3.638  17.762  0.00  0.00    +0.000 C 
BRANCH  23  24
ATOM     24  N   UNL     1      49.395   3.238  17.966  0.00  0.00    +0.000 N 
ATOM     25  C   UNL     1      49.971   2.277  17.169  0.00  0.00    +0.000 C 
ATOM     26  O   UNL     1      49.357   1.699  16.279  0.00  0.00    +0.000 OA
ATOM     27  H   UNL     1      49.951   3.732  18.648  0.00  0.00    +0.000 HD
BRANCH  25  28
ATOM     28  C   UNL     1      51.370   2.000  17.446  0.00  0.00    +0.000 A 
ATOM     29  C   UNL     1      52.425   2.807  17.846  0.00  0.00    +0.000 A 
ATOM     30  C   UNL     1      53.583   1.999  17.968  0.00  0.00    +0.000 A 
ATOM     31  C   UNL     1      53.217   0.714  17.643  0.00  0.00    +0.000 A 
ATOM     32  N   UNL     1      51.885   0.723  17.331  0.00  0.00    +0.000 N 
ATOM     33  H   UNL     1      51.331  -0.080  17.053  0.00  0.00    +0.000 HD
ENDBRANCH  25  28
ENDBRANCH  23  24
ENDBRANCH   4  23
TORSDOF 6
ENDMDL
MODEL 2
REMARK VINA RESULT:    -8.420      1.284      2.101
REMARK INTER + INTRA:         -12.096
REMARK INTER:                 -11.089
REMARK INTRA:                  -1.007
REMARK UNBOUND:                -0.723
REMARK  Name = 
REMARK  7 active torsions:
REMARK  status: ('A' for Active; 'I' for Inactive)
REMARK    1  A    between atoms: C_1  and  N_2
REMARK    2  A    between atoms: N_2  and  C_3
REMARK    3  A    between atoms: C_3  and  C_4
REMARK    4  A    between atoms: C_7  and  C_8
REMARK    5  A    between atoms: C_8  and  N_9
REMARK    6  A    between atoms: C_10  and  C_12
REMARK    7  A    between atoms: C_19  and  C_21
REMARK                            x       y       z     vdW  Elec       q    Type
REMARK                         _______ _______ _______ _____ _____    ______ ____
ROOT
ATOM      1  C   UNL     1      47.567   5.745  13.694  0.00  0.00    +0.000 A 
ATOM      2  C   UNL     1      48.245   6.231  14.822  0.00  0.00    +0.000 A 
ATOM      3  C   UNL     1      48.299   5.484  16.002  0.00  0.00    +0.000 A 
ATOM      4  C   UNL     1      47.695   4.222  16.072  0.00  0.00    +0.000 A 
ATOM      5  C   UNL     1      47.034   3.729  14.938  0.00  0.00    +0.000 A 
ATOM      6  C   UNL     1      46.978   4.478  13.757  0.00  0.00    +0.000 A 
ENDROOT
BRANCH   1   7
ATOM      7  C   UNL     1      47.392   6.618  12.473  0.00  0.00    +0.000 C 
BRANCH   7   9
ATOM      8  C   UNL     1      46.361   8.836  13.100  0.00  0.00    +0.000 C 
ATOM      9  N   UNL     1      46.267   7.553  12.413  0.00  0.00    +0.000 N 
ATOM     10  C   UNL     1      45.165   7.374  11.553  0.00  0.00    +0.000 C 
ATOM     11  O   UNL     1      44.317   8.252  11.407  0.00  0.00    +0.000 OA
BRANCH  10  12
ATOM     12  C   UNL     1      44.997   6.093  10.844  0.00  0.00    +0.000 A 
ATOM     13  C   UNL     1      45.588   5.787   9.629  0.00  0.00    +0.000 A 
ATOM     14  S   UNL     1      45.258   4.203   9.085  0.00  0.00    +0.000 S 
ATOM     15  C   UNL     1      44.451   3.820  10.530  0.00  0.00    +0.000 A 
ATOM     16  N   UNL     1      44.004   2.558  10.765  0.00  0.00    +0.000 NA
ATOM     17  C   UNL     1      43.479   2.394  11.935  0.00  0.00    +0.000 A 
ATOM     18  N   UNL     1      43.327   3.385  12.871  0.00  0.00    +0.000 N 
ATOM     19  C   UNL     1      43.638   4.706  12.622  0.00  0.00    +0.000 A 
ATOM     20  O   UNL     1      43.271   5.594  13.382  0.00  0.00    +0.000 OA
ATOM     21  C   UNL     1      44.346   4.914  11.369  0.00  0.00    +0.000 A 
ATOM     22  H   UNL     1      42.848   3.203  13.740  0.00  0.00    +0.000 HD
ENDBRANCH  10  12
ENDBRANCH   7   9
ENDBRANCH   1   7
BRANCH   4  23
ATOM     23  C   UNL     1      47.734   3.425  17.350  0.00  0.00    +0.000 C 
BRANCH  23  24
ATOM     24  N   UNL     1      49.081   3.076  17.726  0.00  0.00    +0.000 N 
ATOM     25  C   UNL     1      49.818   2.199  16.964  0.00  0.00    +0.000 C 
ATOM     26  O   UNL     1      49.369   1.655  15.961  0.00  0.00    +0.000 OA
ATOM     27  H   UNL     1      49.508   3.549  18.509  0.00  0.00    +0.000 HD
BRANCH  25  28
ATOM     28  C   UNL     1      51.176   1.969  17.423  0.00  0.00    +0.000 A 
ATOM     29  C   UNL     1      52.172   2.824  17.873  0.00  0.00    +0.000 A 
ATOM     30  C   UNL     1      53.313   2.048  18.197  0.00  0.00    +0.000 A 
ATOM     31  C   UNL     1      52.996   0.734  17.941  0.00  0.00    +0.000 A 
ATOM     32  N   UNL     1      51.709   0.696  17.478  0.00  0.00    +0.000 N 
ATOM     33  H   UNL     1      51.197  -0.136  17.207  0.00  0.00    +0.000 HD
ENDBRANCH  25  28
ENDBRANCH  23  24
ENDBRANCH   4  23
TORSDOF 6
ENDMDL
MODEL 3
REMARK VINA RESULT:    -8.013      3.490      8.257
REMARK INTER + INTRA:         -11.547
REMARK INTER:                 -10.372
REMARK INTRA:                  -1.175
REMARK UNBOUND:                -0.723
REMARK  Name = 
REMARK  7 active torsions:
REMARK  status: ('A' for Active; 'I' for Inactive)
REMARK    1  A    between atoms: C_1  and  N_2
REMARK    2  A    between atoms: N_2  and  C_3
REMARK    3  A    between atoms: C_3  and  C_4
REMARK    4  A    between atoms: C_7  and  C_8
REMARK    5  A    between atoms: C_8  and  N_9
REMARK    6  A    between atoms: C_10  and  C_12
REMARK    7  A    between atoms: C_19  and  C_21
REMARK                            x       y       z     vdW  Elec       q    Type
REMARK                         _______ _______ _______ _____ _____    ______ ____
ROOT
ATOM      1  C   UNL     1      46.605   6.524  13.245  0.00  0.00    +0.000 A 
ATOM      2  C   UNL     1      45.758   6.806  12.162  0.00  0.00    +0.000 A 
ATOM      3  C   UNL     1      45.048   5.785  11.524  0.00  0.00    +0.000 A 
ATOM      4  C   UNL     1      45.153   4.462  11.970  0.00  0.00    +0.000 A 
ATOM      5  C   UNL     1      45.985   4.184  13.064  0.00  0.00    +0.000 A 
ATOM      6  C   UNL     1      46.698   5.206  13.702  0.00  0.00    +0.000 A 
ENDROOT
BRANCH   1   7
ATOM      7  C   UNL     1      47.476   7.609  13.836  0.00  0.00    +0.000 C 
BRANCH   7   9
ATOM      8  C   UNL     1      49.562   7.173  12.481  0.00  0.00    +0.000 C 
ATOM      9  N   UNL     1      48.933   7.484  13.759  0.00  0.00    +0.000 N 
ATOM     10  C   UNL     1      49.791   7.849  14.816  0.00  0.00    +0.000 C 
ATOM     11  O   UNL     1      51.011   7.885  14.667  0.00  0.00    +0.000 OA
BRANCH  10  12
ATOM     12  C   UNL     1      49.223   8.155  16.141  0.00  0.00    +0.000 A 
ATOM     13  C   UNL     1      48.965   9.434  16.606  0.00  0.00    +0.000 A 
ATOM     14  S   UNL     1      48.249   9.469  18.156  0.00  0.00    +0.000 S 
ATOM     15  C   UNL     1      48.112   7.775  18.186  0.00  0.00    +0.000 A 
ATOM     16  N   UNL     1      47.473   7.146  19.208  0.00  0.00    +0.000 NA
ATOM     17  C   UNL     1      47.376   5.866  19.061  0.00  0.00    +0.000 A 
ATOM     18  N   UNL     1      47.893   5.158  18.006  0.00  0.00    +0.000 N 
ATOM     19  C   UNL     1      48.667   5.737  17.021  0.00  0.00    +0.000 A 
ATOM     20  O   UNL     1      49.306   5.047  16.235  0.00  0.00    +0.000 OA
ATOM     21  C   UNL     1      48.696   7.189  17.078  0.00  0.00    +0.000 A 
ATOM     22  H   UNL     1      47.840   4.150  17.987  0.00  0.00    +0.000 HD
ENDBRANCH  10  12
ENDBRANCH   7   9
ENDBRANCH   1   7
BRANCH   4  23
ATOM     23  C   UNL     1      44.405   3.357  11.269  0.00  0.00    +0.000 C 
BRANCH  23  24
ATOM     24  N   UNL     1      45.182   2.773  10.204  0.00  0.00    +0.000 N 
ATOM     25  C   UNL     1      45.071   3.242   8.916  0.00  0.00    +0.000 C 
ATOM     26  O   UNL     1      44.300   4.143   8.603  0.00  0.00    +0.000 OA
ATOM     27  H   UNL     1      45.872   2.072  10.430  0.00  0.00    +0.000 HD
BRANCH  25  28
ATOM     28  C   UNL     1      45.943   2.602   7.946  0.00  0.00    +0.000 A 
ATOM     29  C   UNL     1      46.520   3.048   6.766  0.00  0.00    +0.000 A 
ATOM     30  C   UNL     1      47.290   1.990   6.220  0.00  0.00    +0.000 A 
ATOM     31  C   UNL     1      47.172   0.919   7.074  0.00  0.00    +0.000 A 
ATOM     32  N   UNL     1      46.361   1.296   8.110  0.00  0.00    +0.000 N 
ATOM     33  H   UNL     1      46.091   0.718   8.898  0.00  0.00    +0.000 HD
ENDBRANCH  25  28
ENDBRANCH  23  24
ENDBRANCH   4  23
TORSDOF 6
ENDMDL
MODEL 4
REMARK VINA RESULT:    -7.739      3.379      8.429
REMARK INTER + INTRA:         -11.177
REMARK INTER:                 -10.060
REMARK INTRA:                  -1.116
REMARK UNBOUND:                -0.723
REMARK  Name = 
REMARK  7 active torsions:
REMARK  status: ('A' for Active; 'I' for Inactive)
REMARK    1  A    between atoms: C_1  and  N_2
REMARK    2  A    between atoms: N_2  and  C_3
REMARK    3  A    between atoms: C_3  and  C_4
REMARK    4  A    between atoms: C_7  and  C_8
REMARK    5  A    between atoms: C_8  and  N_9
REMARK    6  A    between atoms: C_10  and  C_12
REMARK    7  A    between atoms: C_19  and  C_21
REMARK                            x       y       z     vdW  Elec       q    Type
REMARK                         _______ _______ _______ _____ _____    ______ ____
ROOT
ATOM      1  C   UNL     1      46.664   6.540  13.208  0.00  0.00    +0.000 A 
ATOM      2  C   UNL     1      46.463   5.173  13.456  0.00  0.00    +0.000 A 
ATOM      3  C   UNL     1      45.627   4.412  12.635  0.00  0.00    +0.000 A 
ATOM      4  C   UNL     1      44.990   4.996  11.533  0.00  0.00    +0.000 A 
ATOM      5  C   UNL     1      45.205   6.358  11.275  0.00  0.00    +0.000 A 
ATOM      6  C   UNL     1      46.041   7.121  12.098  0.00  0.00    +0.000 A 
ENDROOT
BRANCH   1   7
ATOM      7  C   UNL     1      47.453   7.385  14.180  0.00  0.00    +0.000 C 
BRANCH   7   9
ATOM      8  C   UNL     1      49.759   7.752  13.219  0.00  0.00    +0.000 C 
ATOM      9  N   UNL     1      48.905   7.212  14.269  0.00  0.00    +0.000 N 
ATOM     10  C   UNL     1      49.551   6.727  15.425  0.00  0.00    +0.000 C 
ATOM     11  O   UNL     1      50.775   6.744  15.528  0.00  0.00    +0.000 OA
BRANCH  10  12
ATOM     12  C   UNL     1      48.748   6.147  16.516  0.00  0.00    +0.000 A 
ATOM     13  C   UNL     1      48.345   4.823  16.574  0.00  0.00    +0.000 A 
ATOM     14  S   UNL     1      47.476   4.430  17.990  0.00  0.00    +0.000 S 
ATOM     15  C   UNL     1      47.751   5.974  18.646  0.00  0.00    +0.000 A 
ATOM     16  N   UNL     1      47.357   6.272  19.913  0.00  0.00    +0.000 NA
ATOM     17  C   UNL     1      47.699   7.454  20.307  0.00  0.00    +0.000 A 
ATOM     18  N   UNL     1      48.363   8.375  19.536  0.00  0.00    +0.000 N 
ATOM     19  C   UNL     1      48.657   8.165  18.204  0.00  0.00    +0.000 A 
ATOM     20  O   UNL     1      49.031   9.087  17.489  0.00  0.00    +0.000 OA
ATOM     21  C   UNL     1      48.405   6.806  17.756  0.00  0.00    +0.000 A 
ATOM     22  H   UNL     1      48.541   9.305  19.884  0.00  0.00    +0.000 HD
ENDBRANCH  10  12
ENDBRANCH   7   9
ENDBRANCH   1   7
BRANCH   4  23
ATOM     23  C   UNL     1      44.070   4.182  10.660  0.00  0.00    +0.000 C 
BRANCH  23  24
ATOM     24  N   UNL     1      44.795   3.232   9.854  0.00  0.00    +0.000 N 
ATOM     25  C   UNL     1      45.399   3.624   8.681  0.00  0.00    +0.000 C 
ATOM     26  O   UNL     1      45.331   4.770   8.252  0.00  0.00    +0.000 OA
ATOM     27  H   UNL     1      44.926   2.294  10.202  0.00  0.00    +0.000 HD
BRANCH  25  28
ATOM     28  C   UNL     1      46.139   2.584   7.988  0.00  0.00    +0.000 A 
ATOM     29  C   UNL     1      47.011   2.612   6.909  0.00  0.00    +0.000 A 
ATOM     30  C   UNL     1      47.446   1.287   6.654  0.00  0.00    +0.000 A 
ATOM     31  C   UNL     1      46.835   0.473   7.579  0.00  0.00    +0.000 A 
ATOM     32  N   UNL     1      46.052   1.261   8.378  0.00  0.00    +0.000 N 
ATOM     33  H   UNL     1      45.480   0.943   9.153  0.00  0.00    +0.000 HD
ENDBRANCH  25  28
ENDBRANCH  23  24
ENDBRANCH   4  23
TORSDOF 6
ENDMDL
MODEL 5
REMARK VINA RESULT:    -7.494      2.751      8.375
REMARK INTER + INTRA:         -10.846
REMARK INTER:                  -9.824
REMARK INTRA:                  -1.022
REMARK UNBOUND:                -0.723
REMARK  Name = 
REMARK  7 active torsions:
REMARK  status: ('A' for Active; 'I' for Inactive)
REMARK    1  A    between atoms: C_1  and  N_2
REMARK    2  A    between atoms: N_2  and  C_3
REMARK    3  A    between atoms: C_3  and  C_4
REMARK    4  A    between atoms: C_7  and  C_8
REMARK    5  A    between atoms: C_8  and  N_9
REMARK    6  A    between atoms: C_10  and  C_12
REMARK    7  A    between atoms: C_19  and  C_21
REMARK                            x       y       z     vdW  Elec       q    Type
REMARK                         _______ _______ _______ _____ _____    ______ ____
ROOT
ATOM      1  C   UNL     1      48.102   6.843  14.160  0.00  0.00    +0.000 A 
ATOM      2  C   UNL     1      47.881   7.852  13.210  0.00  0.00    +0.000 A 
ATOM      3  C   UNL     1      47.003   7.649  12.142  0.00  0.00    +0.000 A 
ATOM      4  C   UNL     1      46.308   6.440  12.013  0.00  0.00    +0.000 A 
ATOM      5  C   UNL     1      46.515   5.439  12.973  0.00  0.00    +0.000 A 
ATOM      6  C   UNL     1      47.395   5.641  14.042  0.00  0.00    +0.000 A 
ENDROOT
BRANCH   1   7
ATOM      7  C   UNL     1      49.156   7.017  15.228  0.00  0.00    +0.000 C 
BRANCH   7   9
ATOM      8  C   UNL     1      48.683   9.087  16.594  0.00  0.00    +0.000 C 
ATOM      9  N   UNL     1      48.793   7.636  16.504  0.00  0.00    +0.000 N 
ATOM     10  C   UNL     1      48.338   6.896  17.615  0.00  0.00    +0.000 C 
ATOM     11  O   UNL     1      47.889   7.453  18.615  0.00  0.00    +0.000 OA
BRANCH  10  12
ATOM     12  C   UNL     1      48.440   5.426  17.599  0.00  0.00    +0.000 A 
ATOM     13  C   UNL     1      47.382   4.570  17.336  0.00  0.00    +0.000 A 
ATOM     14  S   UNL     1      47.820   2.920  17.328  0.00  0.00    +0.000 S 
ATOM     15  C   UNL     1      49.465   3.304  17.515  0.00  0.00    +0.000 A 
ATOM     16  N   UNL     1      50.415   2.332  17.475  0.00  0.00    +0.000 NA
ATOM     17  C   UNL     1      51.626   2.776  17.552  0.00  0.00    +0.000 A 
ATOM     18  N   UNL     1      51.968   4.097  17.704  0.00  0.00    +0.000 N 
ATOM     19  C   UNL     1      51.036   5.096  17.889  0.00  0.00    +0.000 A 
ATOM     20  O   UNL     1      51.375   6.215  18.257  0.00  0.00    +0.000 OA
ATOM     21  C   UNL     1      49.664   4.662  17.683  0.00  0.00    +0.000 A 
ATOM     22  H   UNL     1      52.932   4.368  17.825  0.00  0.00    +0.000 HD
ENDBRANCH  10  12
ENDBRANCH   7   9
ENDBRANCH   1   7
BRANCH   4  23
ATOM     23  C   UNL     1      45.378   6.212  10.849  0.00  0.00    +0.000 C 
BRANCH  23  24
ATOM     24  N   UNL     1      45.895   5.227   9.933  0.00  0.00    +0.000 N 
ATOM     25  C   UNL     1      45.049   4.347   9.297  0.00  0.00    +0.000 C 
ATOM     26  O   UNL     1      43.839   4.334   9.493  0.00  0.00    +0.000 OA
ATOM     27  H   UNL     1      46.876   5.245   9.698  0.00  0.00    +0.000 HD
BRANCH  25  28
ATOM     28  C   UNL     1      45.689   3.439   8.362  0.00  0.00    +0.000 A 
ATOM     29  C   UNL     1      46.219   3.618   7.093  0.00  0.00    +0.000 A 
ATOM     30  C   UNL     1      46.724   2.373   6.641  0.00  0.00    +0.000 A 
ATOM     31  C   UNL     1      46.497   1.456   7.640  0.00  0.00    +0.000 A 
ATOM     32  N   UNL     1      45.875   2.105   8.672  0.00  0.00    +0.000 N 
ATOM     33  H   UNL     1      45.583   1.690   9.550  0.00  0.00    +0.000 HD
ENDBRANCH  25  28
ENDBRANCH  23  24
ENDBRANCH   4  23
TORSDOF 6
ENDMDL
MODEL 6
REMARK VINA RESULT:    -6.968      1.488      1.933
REMARK INTER + INTRA:         -10.135
REMARK INTER:                  -9.083
REMARK INTRA:                  -1.052
REMARK UNBOUND:                -0.723
REMARK  Name = 
REMARK  7 active torsions:
REMARK  status: ('A' for Active; 'I' for Inactive)
REMARK    1  A    between atoms: C_1  and  N_2
REMARK    2  A    between atoms: N_2  and  C_3
REMARK    3  A    between atoms: C_3  and  C_4
REMARK    4  A    between atoms: C_7  and  C_8
REMARK    5  A    between atoms: C_8  and  N_9
REMARK    6  A    between atoms: C_10  and  C_12
REMARK    7  A    between atoms: C_19  and  C_21
REMARK                            x       y       z     vdW  Elec       q    Type
REMARK                         _______ _______ _______ _____ _____    ______ ____
ROOT
ATOM      1  C   UNL     1      47.993   6.311  13.582  0.00  0.00    +0.000 A 
ATOM      2  C   UNL     1      49.084   7.167  13.798  0.00  0.00    +0.000 A 
ATOM      3  C   UNL     1      49.674   7.269  15.061  0.00  0.00    +0.000 A 
ATOM      4  C   UNL     1      49.200   6.499  16.131  0.00  0.00    +0.000 A 
ATOM      5  C   UNL     1      48.122   5.630  15.909  0.00  0.00    +0.000 A 
ATOM      6  C   UNL     1      47.530   5.529  14.645  0.00  0.00    +0.000 A 
ENDROOT
BRANCH   1   7
ATOM      7  C   UNL     1      47.273   6.313  12.254  0.00  0.00    +0.000 C 
BRANCH   7   9
ATOM      8  C   UNL     1      46.341   8.654  12.088  0.00  0.00    +0.000 C 
ATOM      9  N   UNL     1      46.134   7.212  12.054  0.00  0.00    +0.000 N 
ATOM     10  C   UNL     1      44.868   6.763  11.624  0.00  0.00    +0.000 C 
ATOM     11  O   UNL     1      43.981   7.554  11.312  0.00  0.00    +0.000 OA
BRANCH  10  12
ATOM     12  C   UNL     1      44.585   5.317  11.586  0.00  0.00    +0.000 A 
ATOM     13  C   UNL     1      43.898   4.628  12.573  0.00  0.00    +0.000 A 
ATOM     14  S   UNL     1      43.671   2.973  12.223  0.00  0.00    +0.000 S 
ATOM     15  C   UNL     1      44.338   3.158  10.671  0.00  0.00    +0.000 A 
ATOM     16  N   UNL     1      44.345   2.124   9.788  0.00  0.00    +0.000 NA
ATOM     17  C   UNL     1      44.813   2.429   8.623  0.00  0.00    +0.000 A 
ATOM     18  N   UNL     1      45.307   3.661   8.275  0.00  0.00    +0.000 N 
ATOM     19  C   UNL     1      45.447   4.695   9.178  0.00  0.00    +0.000 A 
ATOM     20  O   UNL     1      46.105   5.690   8.899  0.00  0.00    +0.000 OA
ATOM     21  C   UNL     1      44.820   4.438  10.464  0.00  0.00    +0.000 A 
ATOM     22  H   UNL     1      45.718   3.813   7.367  0.00  0.00    +0.000 HD
ENDBRANCH  10  12
ENDBRANCH   7   9
ENDBRANCH   1   7
BRANCH   4  23
ATOM     23  C   UNL     1      49.821   6.624  17.498  0.00  0.00    +0.000 C 
BRANCH  23  24
ATOM     24  N   UNL     1      50.874   5.661  17.701  0.00  0.00    +0.000 N 
ATOM     25  C   UNL     1      50.662   4.541  18.472  0.00  0.00    +0.000 C 
ATOM     26  O   UNL     1      49.598   4.320  19.040  0.00  0.00    +0.000 OA
ATOM     27  H   UNL     1      51.743   5.775  17.202  0.00  0.00    +0.000 HD
BRANCH  25  28
ATOM     28  C   UNL     1      51.786   3.626  18.557  0.00  0.00    +0.000 A 
ATOM     29  C   UNL     1      52.215   2.588  17.743  0.00  0.00    +0.000 A 
ATOM     30  C   UNL     1      53.387   2.029  18.313  0.00  0.00    +0.000 A 
ATOM     31  C   UNL     1      53.655   2.734  19.462  0.00  0.00    +0.000 A 
ATOM     32  N   UNL     1      52.688   3.693  19.601  0.00  0.00    +0.000 N 
ATOM     33  H   UNL     1      52.622   4.369  20.354  0.00  0.00    +0.000 HD
ENDBRANCH  25  28
ENDBRANCH  23  24
ENDBRANCH   4  23
TORSDOF 6
ENDMDL
MODEL 7
REMARK VINA RESULT:    -6.324      3.253      8.563
REMARK INTER + INTRA:          -9.265
REMARK INTER:                  -8.168
REMARK INTRA:                  -1.097
REMARK UNBOUND:                -0.723
REMARK  Name = 
REMARK  7 active torsions:
REMARK  status: ('A' for Active; 'I' for Inactive)
REMARK    1  A    between atoms: C_1  and  N_2
REMARK    2  A    between atoms: N_2  and  C_3
REMARK    3  A    between atoms: C_3  and  C_4
REMARK    4  A    between atoms: C_7  and  C_8
REMARK    5  A    between atoms: C_8  and  N_9
REMARK    6  A    between atoms: C_10  and  C_12
REMARK    7  A    between atoms: C_19  and  C_21
REMARK                            x       y       z     vdW  Elec       q    Type
REMARK                         _______ _______ _______ _____ _____    ______ ____
ROOT
ATOM      1  C   UNL     1      49.100   7.829  13.724  0.00  0.00    +0.000 A 
ATOM      2  C   UNL     1      48.990   7.172  12.489  0.00  0.00    +0.000 A 
ATOM      3  C   UNL     1      47.765   7.109  11.819  0.00  0.00    +0.000 A 
ATOM      4  C   UNL     1      46.627   7.721  12.359  0.00  0.00    +0.000 A 
ATOM      5  C   UNL     1      46.743   8.393  13.585  0.00  0.00    +0.000 A 
ATOM      6  C   UNL     1      47.968   8.456  14.257  0.00  0.00    +0.000 A 
ENDROOT
BRANCH   1   7
ATOM      7  C   UNL     1      50.391   7.771  14.507  0.00  0.00    +0.000 C 
BRANCH   7   9
ATOM      8  C   UNL     1      51.112  10.107  15.141  0.00  0.00    +0.000 C 
ATOM      9  N   UNL     1      50.655   8.780  15.536  0.00  0.00    +0.000 N 
ATOM     10  C   UNL     1      50.294   8.610  16.888  0.00  0.00    +0.000 C 
ATOM     11  O   UNL     1      50.381   9.534  17.695  0.00  0.00    +0.000 OA
BRANCH  10  12
ATOM     12  C   UNL     1      49.843   7.289  17.359  0.00  0.00    +0.000 A 
ATOM     13  C   UNL     1      48.516   6.932  17.541  0.00  0.00    +0.000 A 
ATOM     14  S   UNL     1      48.302   5.313  18.037  0.00  0.00    +0.000 S 
ATOM     15  C   UNL     1      49.962   4.989  17.868  0.00  0.00    +0.000 A 
ATOM     16  N   UNL     1      50.446   3.730  18.037  0.00  0.00    +0.000 NA
ATOM     17  C   UNL     1      51.711   3.616  17.802  0.00  0.00    +0.000 A 
ATOM     18  N   UNL     1      52.540   4.652  17.451  0.00  0.00    +0.000 N 
ATOM     19  C   UNL     1      52.118   5.965  17.405  0.00  0.00    +0.000 A 
ATOM     20  O   UNL     1      52.926   6.883  17.324  0.00  0.00    +0.000 OA
ATOM     21  C   UNL     1      50.680   6.124  17.538  0.00  0.00    +0.000 A 
ATOM     22  H   UNL     1      53.532   4.505  17.347  0.00  0.00    +0.000 HD
ENDBRANCH  10  12
ENDBRANCH   7   9
ENDBRANCH   1   7
BRANCH   4  23
ATOM     23  C   UNL     1      45.301   7.634  11.649  0.00  0.00    +0.000 C 
BRANCH  23  24
ATOM     24  N   UNL     1      45.245   6.508  10.751  0.00  0.00    +0.000 N 
ATOM     25  C   UNL     1      44.692   5.315  11.155  0.00  0.00    +0.000 C 
ATOM     26  O   UNL     1      44.253   5.138  12.286  0.00  0.00    +0.000 OA
ATOM     27  H   UNL     1      45.540   6.631   9.794  0.00  0.00    +0.000 HD
BRANCH  25  28
ATOM     28  C   UNL     1      44.651   4.276  10.141  0.00  0.00    +0.000 A 
ATOM     29  C   UNL     1      44.361   2.920  10.197  0.00  0.00    +0.000 A 
ATOM     30  C   UNL     1      44.473   2.386   8.889  0.00  0.00    +0.000 A 
ATOM     31  C   UNL     1      44.829   3.422   8.056  0.00  0.00    +0.000 A 
ATOM     32  N   UNL     1      44.932   4.555   8.817  0.00  0.00    +0.000 N 
ATOM     33  H   UNL     1      45.178   5.479   8.481  0.00  0.00    +0.000 HD
ENDBRANCH  25  28
ENDBRANCH  23  24
ENDBRANCH   4  23
TORSDOF 6
ENDMDL
MODEL 8
REMARK VINA RESULT:    -5.726      3.332      4.148
REMARK INTER + INTRA:          -8.457
REMARK INTER:                  -8.221
REMARK INTRA:                  -0.236
REMARK UNBOUND:                -0.723
REMARK  Name = 
REMARK  7 active torsions:
REMARK  status: ('A' for Active; 'I' for Inactive)
REMARK    1  A    between atoms: C_1  and  N_2
REMARK    2  A    between atoms: N_2  and  C_3
REMARK    3  A    between atoms: C_3  and  C_4
REMARK    4  A    between atoms: C_7  and  C_8
REMARK    5  A    between atoms: C_8  and  N_9
REMARK    6  A    between atoms: C_10  and  C_12
REMARK    7  A    between atoms: C_19  and  C_21
REMARK                            x       y       z     vdW  Elec       q    Type
REMARK                         _______ _______ _______ _____ _____    ______ ____
ROOT
ATOM      1  C   UNL     1      47.530   6.645  12.592  0.00  0.00    +0.000 A 
ATOM      2  C   UNL     1      48.302   7.817  12.595  0.00  0.00    +0.000 A 
ATOM      3  C   UNL     1      49.130   8.125  13.677  0.00  0.00    +0.000 A 
ATOM      4  C   UNL     1      49.223   7.256  14.771  0.00  0.00    +0.000 A 
ATOM      5  C   UNL     1      48.465   6.076  14.759  0.00  0.00    +0.000 A 
ATOM      6  C   UNL     1      47.634   5.768  13.676  0.00  0.00    +0.000 A 
ENDROOT
BRANCH   1   7
ATOM      7  C   UNL     1      46.532   6.391  11.486  0.00  0.00    +0.000 C 
BRANCH   7   9
ATOM      8  C   UNL     1      45.178   8.519  11.596  0.00  0.00    +0.000 C 
ATOM      9  N   UNL     1      45.233   7.065  11.521  0.00  0.00    +0.000 N 
ATOM     10  C   UNL     1      44.015   6.397  11.278  0.00  0.00    +0.000 C 
ATOM     11  O   UNL     1      42.959   7.014  11.155  0.00  0.00    +0.000 OA
BRANCH  10  12
ATOM     12  C   UNL     1      43.995   4.924  11.212  0.00  0.00    +0.000 A 
ATOM     13  C   UNL     1      43.345   4.108  12.123  0.00  0.00    +0.000 A 
ATOM     14  S   UNL     1      43.449   2.445  11.752  0.00  0.00    +0.000 S 
ATOM     15  C   UNL     1      44.226   2.772  10.276  0.00  0.00    +0.000 A 
ATOM     16  N   UNL     1      44.503   1.771   9.399  0.00  0.00    +0.000 NA
ATOM     17  C   UNL     1      45.024   2.174   8.287  0.00  0.00    +0.000 A 
ATOM     18  N   UNL     1      45.326   3.480   7.991  0.00  0.00    +0.000 N 
ATOM     19  C   UNL     1      45.191   4.506   8.904  0.00  0.00    +0.000 A 
ATOM     20  O   UNL     1      45.688   5.606   8.694  0.00  0.00    +0.000 OA
ATOM     21  C   UNL     1      44.493   4.120  10.119  0.00  0.00    +0.000 A 
ATOM     22  H   UNL     1      45.794   3.718   7.130  0.00  0.00    +0.000 HD
ENDBRANCH  10  12
ENDBRANCH   7   9
ENDBRANCH   1   7
BRANCH   4  23
ATOM     23  C   UNL     1      50.099   7.598  15.949  0.00  0.00    +0.000 C 
BRANCH  23  24
ATOM     24  N   UNL     1      49.324   7.876  17.133  0.00  0.00    +0.000 N 
ATOM     25  C   UNL     1      49.482   7.117  18.269  0.00  0.00    +0.000 C 
ATOM     26  O   UNL     1      50.251   6.164  18.328  0.00  0.00    +0.000 OA
ATOM     27  H   UNL     1      48.725   8.688  17.145  0.00  0.00    +0.000 HD
BRANCH  25  28
ATOM     28  C   UNL     1      48.679   7.531  19.406  0.00  0.00    +0.000 A 
ATOM     29  C   UNL     1      48.470   8.763  20.009  0.00  0.00    +0.000 A 
ATOM     30  C   UNL     1      47.577   8.582  21.095  0.00  0.00    +0.000 A 
ATOM     31  C   UNL     1      47.256   7.246  21.138  0.00  0.00    +0.000 A 
ATOM     32  N   UNL     1      47.922   6.621  20.119  0.00  0.00    +0.000 N 
ATOM     33  H   UNL     1      47.881   5.633  19.896  0.00  0.00    +0.000 HD
ENDBRANCH  25  28
ENDBRANCH  23  24
ENDBRANCH   4  23
TORSDOF 6
ENDMDL
