MODEL 1
REMARK VINA RESULT:    -7.881      0.000      0.000
REMARK INTER + INTRA:         -11.843
REMARK INTER:                 -10.646
REMARK INTRA:                  -1.197
REMARK UNBOUND:                -1.197
REMARK  Name = 
REMARK  7 active torsions:
REMARK  status: ('A' for Active; 'I' for Inactive)
REMARK    1  A    between atoms: C_1  and  C_2
REMARK    2  A    between atoms: C_2  and  N_3
REMARK    3  A    between atoms: C_2  and  C_16
REMARK    4  A    between atoms: C_4  and  C_6
REMARK    5  A    between atoms: C_19  and  C_20
REMARK    6  A    between atoms: C_20  and  N_21
REMARK    7  A    between atoms: C_22  and  C_24
REMARK                            x       y       z     vdW  Elec       q    Type
REMARK                         _______ _______ _______ _____ _____    ______ ____
ROOT
ATOM      1  C   UNL     1      46.938   8.788  13.508  0.00  0.00    +0.000 C 
ATOM      2  C   UNL     1      47.509   7.378  13.692  0.00  0.00    +0.000 C 
ENDROOT
BRANCH   2   3
ATOM      3  C   UNL     1      46.555   6.314  13.174  0.00  0.00    +0.000 A 
ATOM      4  C   UNL     1      46.868   4.959  13.359  0.00  0.00    +0.000 A 
ATOM      5  C   UNL     1      46.071   3.953  12.806  0.00  0.00    +0.000 A 
ATOM      6  C   UNL     1      44.937   4.275  12.051  0.00  0.00    +0.000 A 
ATOM      7  C   UNL     1      44.578   5.624  11.923  0.00  0.00    +0.000 A 
ATOM      8  C   UNL     1      45.378   6.632  12.477  0.00  0.00    +0.000 A 
BRANCH   6   9
ATOM      9  C   UNL     1      44.140   3.197  11.364  0.00  0.00    +0.000 C 
BRANCH   9  10
ATOM     10  N   UNL     1      44.813   2.658  10.209  0.00  0.00    +0.000 N 
ATOM     11  C   UNL     1      44.697   3.293   8.987  0.00  0.00    +0.000 C 
ATOM     12  O   UNL     1      44.105   4.360   8.840  0.00  0.00    +0.000 OA
ATOM     13  H   UNL     1      44.966   1.658  10.153  0.00  0.00    +0.000 HD
BRANCH  11  14
ATOM     14  C   UNL     1      45.488   2.624   7.855  0.00  0.00    +0.000 C 
ATOM     15  C   UNL     1      46.163   1.331   8.275  0.00  0.00    +0.000 C 
ATOM     16  C   UNL     1      47.196   1.134   7.184  0.00  0.00    +0.000 C 
ATOM     17  C   UNL     1      47.578   2.544   6.757  0.00  0.00    +0.000 C 
ATOM     18  N   UNL     1      46.613   3.463   7.373  0.00  0.00    +0.000 NA
ATOM     19  H   UNL     1      46.263   4.111   6.669  0.00  0.00    +0.000 HD
ENDBRANCH  11  14
ENDBRANCH   9  10
ENDBRANCH   6   9
ENDBRANCH   2   3
BRANCH   2  20
ATOM     20  N   UNL     1      47.871   7.139  15.078  0.00  0.00    +0.000 N 
ATOM     21  C   UNL     1      49.178   6.971  15.465  0.00  0.00    +0.000 C 
ATOM     22  O   UNL     1      50.098   6.965  14.654  0.00  0.00    +0.000 OA
ATOM     23  H   UNL     1      47.121   7.072  15.755  0.00  0.00    +0.000 HD
BRANCH  21  24
ATOM     24  C   UNL     1      49.438   6.854  16.906  0.00  0.00    +0.000 A 
ATOM     25  C   UNL     1      50.262   7.782  17.526  0.00  0.00    +0.000 A 
ATOM     26  S   UNL     1      50.455   7.517  19.199  0.00  0.00    +0.000 S 
ATOM     27  C   UNL     1      49.481   6.125  19.145  0.00  0.00    +0.000 A 
ATOM     28  N   UNL     1      49.265   5.381  20.263  0.00  0.00    +0.000 NA
ATOM     29  C   UNL     1      48.544   4.327  20.072  0.00  0.00    +0.000 A 
ATOM     30  N   UNL     1      48.007   3.957  18.867  0.00  0.00    +0.000 N 
ATOM     31  C   UNL     1      48.135   4.717  17.730  0.00  0.00    +0.000 A 
ATOM     32  O   UNL     1      47.531   4.426  16.703  0.00  0.00    +0.000 OA
ATOM     33  C   UNL     1      48.985   5.884  17.875  0.00  0.00    +0.000 A 
ATOM     34  H   UNL     1      47.426   3.136  18.791  0.00  0.00    +0.000 HD
ENDBRANCH  21  24
ENDBRANCH   2  20
TORSDOF 6
ENDMDL
MODEL 2
REMARK VINA RESULT:    -7.699      1.868      2.238
REMARK INTER + INTRA:         -11.597
REMARK INTER:                 -10.437
REMARK INTRA:                  -1.160
REMARK UNBOUND:                -1.197
REMARK  Name = 
REMARK  7 active torsions:
REMARK  status: ('A' for Active; 'I' for Inactive)
REMARK    1  A    between atoms: C_1  and  C_2
REMARK    2  A    between atoms: C_2  and  N_3
REMARK    3  A    between atoms: C_2  and  C_16
REMARK    4  A    between atoms: C_4  and  C_6
REMARK    5  A    between atoms: C_19  and  C_20
REMARK    6  A    between atoms: C_20  and  N_21
REMARK    7  A    between atoms: C_22  and  C_24
REMARK                            x       y       z     vdW  Elec       q    Type
REMARK                         _______ _______ _______ _____ _____    ______ ____
ROOT
ATOM      1  C   UNL     1      48.670   8.364  13.908  0.00  0.00    +0.000 C 
ATOM      2  C   UNL     1      48.279   6.897  14.117  0.00  0.00    +0.000 C 
ENDROOT
BRANCH   2   3
ATOM      3  C   UNL     1      47.050   6.523  13.305  0.00  0.00    +0.000 A 
ATOM      4  C   UNL     1      46.396   5.309  13.566  0.00  0.00    +0.000 A 
ATOM      5  C   UNL     1      45.327   4.881  12.773  0.00  0.00    +0.000 A 
ATOM      6  C   UNL     1      44.884   5.656  11.695  0.00  0.00    +0.000 A 
ATOM      7  C   UNL     1      45.485   6.902  11.473  0.00  0.00    +0.000 A 
ATOM      8  C   UNL     1      46.556   7.330  12.268  0.00  0.00    +0.000 A 
BRANCH   6   9
ATOM      9  C   UNL     1      43.806   5.145  10.774  0.00  0.00    +0.000 C 
BRANCH   9  10
ATOM     10  N   UNL     1      44.333   4.602   9.548  0.00  0.00    +0.000 N 
ATOM     11  C   UNL     1      44.634   3.256   9.465  0.00  0.00    +0.000 C 
ATOM     12  O   UNL     1      44.399   2.460  10.371  0.00  0.00    +0.000 OA
ATOM     13  H   UNL     1      44.891   5.199   8.948  0.00  0.00    +0.000 HD
BRANCH  11  14
ATOM     14  C   UNL     1      45.159   2.815   8.092  0.00  0.00    +0.000 C 
ATOM     15  C   UNL     1      46.202   1.716   8.169  0.00  0.00    +0.000 C 
ATOM     16  C   UNL     1      46.856   1.791   6.805  0.00  0.00    +0.000 C 
ATOM     17  C   UNL     1      46.760   3.258   6.412  0.00  0.00    +0.000 C 
ATOM     18  N   UNL     1      45.859   3.909   7.372  0.00  0.00    +0.000 NA
ATOM     19  H   UNL     1      45.171   4.465   6.867  0.00  0.00    +0.000 HD
ENDBRANCH  11  14
ENDBRANCH   9  10
ENDBRANCH   6   9
ENDBRANCH   2   3
BRANCH   2  20
ATOM     20  N   UNL     1      48.096   6.602  15.527  0.00  0.00    +0.000 N 
ATOM     21  C   UNL     1      49.153   6.275  16.340  0.00  0.00    +0.000 C 
ATOM     22  O   UNL     1      50.295   6.167  15.907  0.00  0.00    +0.000 OA
ATOM     23  H   UNL     1      47.151   6.619  15.892  0.00  0.00    +0.000 HD
BRANCH  21  24
ATOM     24  C   UNL     1      48.869   6.113  17.772  0.00  0.00    +0.000 A 
ATOM     25  C   UNL     1      49.119   4.891  18.381  0.00  0.00    +0.000 A 
ATOM     26  S   UNL     1      48.749   4.866  20.045  0.00  0.00    +0.000 S 
ATOM     27  C   UNL     1      48.197   6.473  20.000  0.00  0.00    +0.000 A 
ATOM     28  N   UNL     1      47.694   7.069  21.116  0.00  0.00    +0.000 NA
ATOM     29  C   UNL     1      47.271   8.275  20.931  0.00  0.00    +0.000 A 
ATOM     30  N   UNL     1      47.318   8.944  19.737  0.00  0.00    +0.000 N 
ATOM     31  C   UNL     1      47.886   8.411  18.606  0.00  0.00    +0.000 A 
ATOM     32  O   UNL     1      48.032   9.086  17.592  0.00  0.00    +0.000 OA
ATOM     33  C   UNL     1      48.327   7.035  18.742  0.00  0.00    +0.000 A 
ATOM     34  H   UNL     1      46.998   9.899  19.666  0.00  0.00    +0.000 HD
ENDBRANCH  21  24
ENDBRANCH   2  20
TORSDOF 6
ENDMDL
MODEL 3
REMARK VINA RESULT:    -7.667      2.484      4.151
REMARK INTER + INTRA:         -11.554
REMARK INTER:                 -10.406
REMARK INTRA:                  -1.148
REMARK UNBOUND:                -1.197
REMARK  Name = 
REMARK  7 active torsions:
REMARK  status: ('A' for Active; 'I' for Inactive)
REMARK    1  A    between atoms: C_1  and  C_2
REMARK    2  A    between atoms: C_2  and  N_3
REMARK    3  A    between atoms: C_2  and  C_16
REMARK    4  A    between atoms: C_4  and  C_6
REMARK    5  A    between atoms: C_19  and  C_20
REMARK    6  A    between atoms: C_20  and  N_21
REMARK    7  A    between atoms: C_22  and  C_24
REMARK                            x       y       z     vdW  Elec       q    Type
REMARK                         _______ _______ _______ _____ _____    ______ ____
ROOT
ATOM      1  C   UNL     1      47.488   3.796  15.388  0.00  0.00    +0.000 C 
ATOM      2  C   UNL     1      47.062   5.147  14.802  0.00  0.00    +0.000 C 
ENDROOT
BRANCH   2   3
ATOM      3  C   UNL     1      46.088   4.975  13.648  0.00  0.00    +0.000 A 
ATOM      4  C   UNL     1      45.896   3.701  13.092  0.00  0.00    +0.000 A 
ATOM      5  C   UNL     1      45.092   3.521  11.963  0.00  0.00    +0.000 A 
ATOM      6  C   UNL     1      44.457   4.612  11.358  0.00  0.00    +0.000 A 
ATOM      7  C   UNL     1      44.586   5.876  11.950  0.00  0.00    +0.000 A 
ATOM      8  C   UNL     1      45.393   6.056  13.081  0.00  0.00    +0.000 A 
BRANCH   6   9
ATOM      9  C   UNL     1      43.679   4.436  10.080  0.00  0.00    +0.000 C 
BRANCH   9  10
ATOM     10  N   UNL     1      44.346   3.573   9.138  0.00  0.00    +0.000 N 
ATOM     11  C   UNL     1      45.396   4.059   8.383  0.00  0.00    +0.000 C 
ATOM     12  O   UNL     1      45.859   5.188   8.528  0.00  0.00    +0.000 OA
ATOM     13  H   UNL     1      43.818   2.828   8.698  0.00  0.00    +0.000 HD
BRANCH  11  14
ATOM     14  C   UNL     1      46.026   3.021   7.445  0.00  0.00    +0.000 C 
ATOM     15  C   UNL     1      46.271   1.679   8.108  0.00  0.00    +0.000 C 
ATOM     16  C   UNL     1      47.266   1.028   7.169  0.00  0.00    +0.000 C 
ATOM     17  C   UNL     1      48.065   2.187   6.591  0.00  0.00    +0.000 C 
ATOM     18  N   UNL     1      47.373   3.426   6.969  0.00  0.00    +0.000 NA
ATOM     19  H   UNL     1      47.268   4.021   6.149  0.00  0.00    +0.000 HD
ENDBRANCH  11  14
ENDBRANCH   9  10
ENDBRANCH   6   9
ENDBRANCH   2   3
BRANCH   2  20
ATOM     20  N   UNL     1      48.219   5.933  14.412  0.00  0.00    +0.000 N 
ATOM     21  C   UNL     1      48.905   6.707  15.315  0.00  0.00    +0.000 C 
ATOM     22  O   UNL     1      48.546   6.812  16.482  0.00  0.00    +0.000 OA
ATOM     23  H   UNL     1      48.492   5.915  13.436  0.00  0.00    +0.000 HD
BRANCH  21  24
ATOM     24  C   UNL     1      50.127   7.366  14.836  0.00  0.00    +0.000 A 
ATOM     25  C   UNL     1      51.256   7.376  15.644  0.00  0.00    +0.000 A 
ATOM     26  S   UNL     1      52.593   8.168  14.944  0.00  0.00    +0.000 S 
ATOM     27  C   UNL     1      51.697   8.567  13.555  0.00  0.00    +0.000 A 
ATOM     28  N   UNL     1      52.255   9.296  12.552  0.00  0.00    +0.000 NA
ATOM     29  C   UNL     1      51.452   9.565  11.577  0.00  0.00    +0.000 A 
ATOM     30  N   UNL     1      50.145   9.158  11.509  0.00  0.00    +0.000 N 
ATOM     31  C   UNL     1      49.564   8.356  12.461  0.00  0.00    +0.000 A 
ATOM     32  O   UNL     1      48.436   7.901  12.302  0.00  0.00    +0.000 OA
ATOM     33  C   UNL     1      50.406   8.071  13.607  0.00  0.00    +0.000 A 
ATOM     34  H   UNL     1      49.578   9.375  10.703  0.00  0.00    +0.000 HD
ENDBRANCH  21  24
ENDBRANCH   2  20
TORSDOF 6
ENDMDL
MODEL 4
REMARK VINA RESULT:    -7.446      3.588      4.550
REMARK INTER + INTRA:         -11.255
REMARK INTER:                 -10.082
REMARK INTRA:                  -1.173
REMARK UNBOUND:                -1.197
REMARK  Name = 
REMARK  7 active torsions:
REMARK  status: ('A' for Active; 'I' for Inactive)
REMARK    1  A    between atoms: C_1  and  C_2
REMARK    2  A    between atoms: C_2  and  N_3
REMARK    3  A    between atoms: C_2  and  C_16
REMARK    4  A    between atoms: C_4  and  C_6
REMARK    5  A    between atoms: C_19  and  C_20
REMARK    6  A    between atoms: C_20  and  N_21
REMARK    7  A    between atoms: C_22  and  C_24
REMARK                            x       y       z     vdW  Elec       q    Type
REMARK                         _______ _______ _______ _____ _____    ______ ____
ROOT
ATOM      1  C   UNL     1      47.591   3.035  17.676  0.00  0.00    +0.000 C 
ATOM      2  C   UNL     1      48.412   4.266  17.278  0.00  0.00    +0.000 C 
ENDROOT
BRANCH   2   3
ATOM      3  C   UNL     1      47.983   4.814  15.926  0.00  0.00    +0.000 A 
ATOM      4  C   UNL     1      48.454   6.068  15.511  0.00  0.00    +0.000 A 
ATOM      5  C   UNL     1      48.000   6.652  14.325  0.00  0.00    +0.000 A 
ATOM      6  C   UNL     1      47.059   5.997  13.522  0.00  0.00    +0.000 A 
ATOM      7  C   UNL     1      46.639   4.712  13.894  0.00  0.00    +0.000 A 
ATOM      8  C   UNL     1      47.094   4.128  15.083  0.00  0.00    +0.000 A 
BRANCH   6   9
ATOM      9  C   UNL     1      46.487   6.671  12.302  0.00  0.00    +0.000 C 
BRANCH   9  10
ATOM     10  N   UNL     1      46.067   5.733  11.293  0.00  0.00    +0.000 N 
ATOM     11  C   UNL     1      44.727   5.614  10.978  0.00  0.00    +0.000 C 
ATOM     12  O   UNL     1      43.859   6.336  11.463  0.00  0.00    +0.000 OA
ATOM     13  H   UNL     1      46.611   4.889  11.151  0.00  0.00    +0.000 HD
BRANCH  11  14
ATOM     14  C   UNL     1      44.432   4.598   9.866  0.00  0.00    +0.000 C 
ATOM     15  C   UNL     1      44.735   3.166  10.263  0.00  0.00    +0.000 C 
ATOM     16  C   UNL     1      44.802   2.464   8.922  0.00  0.00    +0.000 C 
ATOM     17  C   UNL     1      45.318   3.523   7.959  0.00  0.00    +0.000 C 
ATOM     18  N   UNL     1      45.272   4.812   8.662  0.00  0.00    +0.000 NA
ATOM     19  H   UNL     1      44.826   5.507   8.067  0.00  0.00    +0.000 HD
ENDBRANCH  11  14
ENDBRANCH   9  10
ENDBRANCH   6   9
ENDBRANCH   2   3
BRANCH   2  20
ATOM     20  N   UNL     1      49.835   3.975  17.306  0.00  0.00    +0.000 N 
ATOM     21  C   UNL     1      50.600   4.217  18.420  0.00  0.00    +0.000 C 
ATOM     22  O   UNL     1      50.132   4.737  19.427  0.00  0.00    +0.000 OA
ATOM     23  H   UNL     1      50.256   3.609  16.461  0.00  0.00    +0.000 HD
BRANCH  21  24
ATOM     24  C   UNL     1      52.000   3.775  18.378  0.00  0.00    +0.000 A 
ATOM     25  C   UNL     1      53.005   4.661  18.741  0.00  0.00    +0.000 A 
ATOM     26  S   UNL     1      54.571   3.996  18.650  0.00  0.00    +0.000 S 
ATOM     27  C   UNL     1      53.967   2.514  18.077  0.00  0.00    +0.000 A 
ATOM     28  N   UNL     1      54.808   1.494  17.757  0.00  0.00    +0.000 NA
ATOM     29  C   UNL     1      54.220   0.443  17.292  0.00  0.00    +0.000 A 
ATOM     30  N   UNL     1      52.866   0.313  17.134  0.00  0.00    +0.000 N 
ATOM     31  C   UNL     1      51.974   1.286  17.515  0.00  0.00    +0.000 A 
ATOM     32  O   UNL     1      50.764   1.084  17.483  0.00  0.00    +0.000 OA
ATOM     33  C   UNL     1      52.585   2.513  17.990  0.00  0.00    +0.000 A 
ATOM     34  H   UNL     1      52.465  -0.549  16.794  0.00  0.00    +0.000 HD
ENDBRANCH  21  24
ENDBRANCH   2  20
TORSDOF 6
ENDMDL
MODEL 5
REMARK VINA RESULT:    -7.071      2.606      3.548
REMARK INTER + INTRA:         -10.749
REMARK INTER:                 -10.455
REMARK INTRA:                  -0.294
REMARK UNBOUND:                -1.197
REMARK  Name = 
REMARK  7 active torsions:
REMARK  status: ('A' for Active; 'I' for Inactive)
REMARK    1  A    between atoms: C_1  and  C_2
REMARK    2  A    between atoms: C_2  and  N_3
REMARK    3  A    between atoms: C_2  and  C_16
REMARK    4  A    between atoms: C_4  and  C_6
REMARK    5  A    between atoms: C_19  and  C_20
REMARK    6  A    between atoms: C_20  and  N_21
REMARK    7  A    between atoms: C_22  and  C_24
REMARK                            x       y       z     vdW  Elec       q    Type
REMARK                         _______ _______ _______ _____ _____    ______ ____
ROOT
ATOM      1  C   UNL     1      47.748   3.486  14.900  0.00  0.00    +0.000 C 
ATOM      2  C   UNL     1      46.794   4.685  14.879  0.00  0.00    +0.000 C 
ENDROOT
BRANCH   2   3
ATOM      3  C   UNL     1      45.887   4.659  13.659  0.00  0.00    +0.000 A 
ATOM      4  C   UNL     1      45.796   3.487  12.894  0.00  0.00    +0.000 A 
ATOM      5  C   UNL     1      45.057   3.455  11.708  0.00  0.00    +0.000 A 
ATOM      6  C   UNL     1      44.389   4.599  11.254  0.00  0.00    +0.000 A 
ATOM      7  C   UNL     1      44.416   5.752  12.050  0.00  0.00    +0.000 A 
ATOM      8  C   UNL     1      45.157   5.782  13.238  0.00  0.00    +0.000 A 
BRANCH   6   9
ATOM      9  C   UNL     1      43.684   4.598   9.922  0.00  0.00    +0.000 C 
BRANCH   9  10
ATOM     10  N   UNL     1      44.302   3.716   8.966  0.00  0.00    +0.000 N 
ATOM     11  C   UNL     1      45.425   4.128   8.275  0.00  0.00    +0.000 C 
ATOM     12  O   UNL     1      45.989   5.198   8.491  0.00  0.00    +0.000 OA
ATOM     13  H   UNL     1      43.724   3.046   8.471  0.00  0.00    +0.000 HD
BRANCH  11  14
ATOM     14  C   UNL     1      45.991   3.075   7.312  0.00  0.00    +0.000 C 
ATOM     15  C   UNL     1      46.382   1.780   7.998  0.00  0.00    +0.000 C 
ATOM     16  C   UNL     1      47.289   1.130   6.973  0.00  0.00    +0.000 C 
ATOM     17  C   UNL     1      47.952   2.295   6.252  0.00  0.00    +0.000 C 
ATOM     18  N   UNL     1      47.248   3.517   6.659  0.00  0.00    +0.000 NA
ATOM     19  H   UNL     1      47.015   4.066   5.833  0.00  0.00    +0.000 HD
ENDBRANCH  11  14
ENDBRANCH   9  10
ENDBRANCH   6   9
ENDBRANCH   2   3
BRANCH   2  20
ATOM     20  N   UNL     1      47.527   5.936  14.971  0.00  0.00    +0.000 N 
ATOM     21  C   UNL     1      48.301   6.397  13.935  0.00  0.00    +0.000 C 
ATOM     22  O   UNL     1      48.451   5.755  12.901  0.00  0.00    +0.000 OA
ATOM     23  H   UNL     1      47.472   6.450  15.842  0.00  0.00    +0.000 HD
BRANCH  21  24
ATOM     24  C   UNL     1      48.902   7.728  14.092  0.00  0.00    +0.000 A 
ATOM     25  C   UNL     1      48.384   8.798  13.376  0.00  0.00    +0.000 A 
ATOM     26  S   UNL     1      49.181  10.275  13.675  0.00  0.00    +0.000 S 
ATOM     27  C   UNL     1      50.278   9.528  14.738  0.00  0.00    +0.000 A 
ATOM     28  N   UNL     1      51.274  10.243  15.329  0.00  0.00    +0.000 NA
ATOM     29  C   UNL     1      52.061   9.544  16.076  0.00  0.00    +0.000 A 
ATOM     30  N   UNL     1      51.933   8.198  16.300  0.00  0.00    +0.000 N 
ATOM     31  C   UNL     1      50.900   7.452  15.787  0.00  0.00    +0.000 A 
ATOM     32  O   UNL     1      50.741   6.281  16.115  0.00  0.00    +0.000 OA
ATOM     33  C   UNL     1      50.018   8.177  14.892  0.00  0.00    +0.000 A 
ATOM     34  H   UNL     1      52.565   7.715  16.922  0.00  0.00    +0.000 HD
ENDBRANCH  21  24
ENDBRANCH   2  20
TORSDOF 6
ENDMDL
MODEL 6
REMARK VINA RESULT:    -6.977      3.821      8.677
REMARK INTER + INTRA:         -10.622
REMARK INTER:                  -9.462
REMARK INTRA:                  -1.160
REMARK UNBOUND:                -1.197
REMARK  Name = 
REMARK  7 active torsions:
REMARK  status: ('A' for Active; 'I' for Inactive)
REMARK    1  A    between atoms: C_1  and  C_2
REMARK    2  A    between atoms: C_2  and  N_3
REMARK    3  A    between atoms: C_2  and  C_16
REMARK    4  A    between atoms: C_4  and  C_6
REMARK    5  A    between atoms: C_19  and  C_20
REMARK    6  A    between atoms: C_20  and  N_21
REMARK    7  A    between atoms: C_22  and  C_24
REMARK                            x       y       z     vdW  Elec       q    Type
REMARK                         _______ _______ _______ _____ _____    ______ ____
ROOT
ATOM      1  C   UNL     1      49.622   7.513  12.385  0.00  0.00    +0.000 C 
ATOM      2  C   UNL     1      48.353   7.182  13.179  0.00  0.00    +0.000 C 
ENDROOT
BRANCH   2   3
ATOM      3  C   UNL     1      48.680   6.723  14.591  0.00  0.00    +0.000 A 
ATOM      4  C   UNL     1      49.832   7.212  15.225  0.00  0.00    +0.000 A 
ATOM      5  C   UNL     1      50.222   6.734  16.480  0.00  0.00    +0.000 A 
ATOM      6  C   UNL     1      49.470   5.752  17.134  0.00  0.00    +0.000 A 
ATOM      7  C   UNL     1      48.280   5.312  16.540  0.00  0.00    +0.000 A 
ATOM      8  C   UNL     1      47.890   5.790  15.283  0.00  0.00    +0.000 A 
BRANCH   6   9
ATOM      9  C   UNL     1      49.948   5.158  18.434  0.00  0.00    +0.000 C 
BRANCH   9  10
ATOM     10  N   UNL     1      51.162   4.396  18.285  0.00  0.00    +0.000 N 
ATOM     11  C   UNL     1      51.099   3.068  17.907  0.00  0.00    +0.000 C 
ATOM     12  O   UNL     1      50.048   2.507  17.605  0.00  0.00    +0.000 OA
ATOM     13  H   UNL     1      51.964   4.635  18.856  0.00  0.00    +0.000 HD
BRANCH  11  14
ATOM     14  C   UNL     1      52.469   2.393  17.760  0.00  0.00    +0.000 C 
ATOM     15  C   UNL     1      52.380   0.916  17.426  0.00  0.00    +0.000 C 
ATOM     16  C   UNL     1      53.766   0.418  17.781  0.00  0.00    +0.000 C 
ATOM     17  C   UNL     1      54.214   1.311  18.928  0.00  0.00    +0.000 C 
ATOM     18  N   UNL     1      53.254   2.419  19.019  0.00  0.00    +0.000 NA
ATOM     19  H   UNL     1      53.758   3.301  19.077  0.00  0.00    +0.000 HD
ENDBRANCH  11  14
ENDBRANCH   9  10
ENDBRANCH   6   9
ENDBRANCH   2   3
BRANCH   2  20
ATOM     20  N   UNL     1      47.539   6.206  12.477  0.00  0.00    +0.000 N 
ATOM     21  C   UNL     1      46.439   6.576  11.744  0.00  0.00    +0.000 C 
ATOM     22  O   UNL     1      46.060   7.741  11.687  0.00  0.00    +0.000 OA
ATOM     23  H   UNL     1      47.794   5.229  12.566  0.00  0.00    +0.000 HD
BRANCH  21  24
ATOM     24  C   UNL     1      45.759   5.521  10.980  0.00  0.00    +0.000 A 
ATOM     25  C   UNL     1      45.789   5.559   9.593  0.00  0.00    +0.000 A 
ATOM     26  S   UNL     1      44.967   4.262   8.854  0.00  0.00    +0.000 S 
ATOM     27  C   UNL     1      44.501   3.629  10.362  0.00  0.00    +0.000 A 
ATOM     28  N   UNL     1      43.725   2.514  10.440  0.00  0.00    +0.000 NA
ATOM     29  C   UNL     1      43.409   2.167  11.643  0.00  0.00    +0.000 A 
ATOM     30  N   UNL     1      43.811   2.826  12.775  0.00  0.00    +0.000 N 
ATOM     31  C   UNL     1      44.656   3.908  12.748  0.00  0.00    +0.000 A 
ATOM     32  O   UNL     1      45.102   4.391  13.784  0.00  0.00    +0.000 OA
ATOM     33  C   UNL     1      44.996   4.375  11.417  0.00  0.00    +0.000 A 
ATOM     34  H   UNL     1      43.555   2.485  13.690  0.00  0.00    +0.000 HD
ENDBRANCH  21  24
ENDBRANCH   2  20
TORSDOF 6
ENDMDL
MODEL 7
REMARK VINA RESULT:    -6.728      3.719      5.130
REMARK INTER + INTRA:         -10.286
REMARK INTER:                  -9.128
REMARK INTRA:                  -1.157
REMARK UNBOUND:                -1.197
REMARK  Name = 
REMARK  7 active torsions:
REMARK  status: ('A' for Active; 'I' for Inactive)
REMARK    1  A    between atoms: C_1  and  C_2
REMARK    2  A    between atoms: C_2  and  N_3
REMARK    3  A    between atoms: C_2  and  C_16
REMARK    4  A    between atoms: C_4  and  C_6
REMARK    5  A    between atoms: C_19  and  C_20
REMARK    6  A    between atoms: C_20  and  N_21
REMARK    7  A    between atoms: C_22  and  C_24
REMARK                            x       y       z     vdW  Elec       q    Type
REMARK                         _______ _______ _______ _____ _____    ______ ____
ROOT
ATOM      1  C   UNL     1      48.846   6.683  15.778  0.00  0.00    +0.000 C 
ATOM      2  C   UNL     1      48.482   7.065  14.339  0.00  0.00    +0.000 C 
ENDROOT
BRANCH   2   3
ATOM      3  C   UNL     1      47.403   6.156  13.773  0.00  0.00    +0.000 A 
ATOM      4  C   UNL     1      47.368   4.807  14.159  0.00  0.00    +0.000 A 
ATOM      5  C   UNL     1      46.458   3.916  13.582  0.00  0.00    +0.000 A 
ATOM      6  C   UNL     1      45.559   4.351  12.601  0.00  0.00    +0.000 A 
ATOM      7  C   UNL     1      45.539   5.711  12.264  0.00  0.00    +0.000 A 
ATOM      8  C   UNL     1      46.452   6.603  12.843  0.00  0.00    +0.000 A 
BRANCH   6   9
ATOM      9  C   UNL     1      44.654   3.371  11.900  0.00  0.00    +0.000 C 
BRANCH   9  10
ATOM     10  N   UNL     1      45.164   2.962  10.616  0.00  0.00    +0.000 N 
ATOM     11  C   UNL     1      44.645   3.516   9.462  0.00  0.00    +0.000 C 
ATOM     12  O   UNL     1      43.809   4.416   9.468  0.00  0.00    +0.000 OA
ATOM     13  H   UNL     1      45.524   2.021  10.509  0.00  0.00    +0.000 HD
BRANCH  11  14
ATOM     14  C   UNL     1      45.303   3.008   8.172  0.00  0.00    +0.000 C 
ATOM     15  C   UNL     1      46.111   1.738   8.368  0.00  0.00    +0.000 C 
ATOM     16  C   UNL     1      46.984   1.714   7.129  0.00  0.00    +0.000 C 
ATOM     17  C   UNL     1      47.211   3.180   6.790  0.00  0.00    +0.000 C 
ATOM     18  N   UNL     1      46.291   3.968   7.621  0.00  0.00    +0.000 NA
ATOM     19  H   UNL     1      45.804   4.646   7.038  0.00  0.00    +0.000 HD
ENDBRANCH  11  14
ENDBRANCH   9  10
ENDBRANCH   6   9
ENDBRANCH   2   3
BRANCH   2  20
ATOM     20  N   UNL     1      49.661   7.083  13.491  0.00  0.00    +0.000 N 
ATOM     21  C   UNL     1      49.867   8.072  12.561  0.00  0.00    +0.000 C 
ATOM     22  O   UNL     1      49.044   8.959  12.366  0.00  0.00    +0.000 OA
ATOM     23  H   UNL     1      50.322   6.321  13.588  0.00  0.00    +0.000 HD
BRANCH  21  24
ATOM     24  C   UNL     1      51.148   8.056  11.842  0.00  0.00    +0.000 A 
ATOM     25  C   UNL     1      51.173   7.686  10.505  0.00  0.00    +0.000 A 
ATOM     26  S   UNL     1      52.729   7.729   9.811  0.00  0.00    +0.000 S 
ATOM     27  C   UNL     1      53.432   8.199  11.286  0.00  0.00    +0.000 A 
ATOM     28  N   UNL     1      54.777   8.376  11.392  0.00  0.00    +0.000 NA
ATOM     29  C   UNL     1      55.182   8.689  12.578  0.00  0.00    +0.000 A 
ATOM     30  N   UNL     1      54.362   8.856  13.663  0.00  0.00    +0.000 N 
ATOM     31  C   UNL     1      52.993   8.764  13.584  0.00  0.00    +0.000 A 
ATOM     32  O   UNL     1      52.283   9.051  14.542  0.00  0.00    +0.000 OA
ATOM     33  C   UNL     1      52.489   8.357  12.286  0.00  0.00    +0.000 A 
ATOM     34  H   UNL     1      54.738   9.133  14.557  0.00  0.00    +0.000 HD
ENDBRANCH  21  24
ENDBRANCH   2  20
TORSDOF 6
ENDMDL
MODEL 8
REMARK VINA RESULT:    -6.619      3.371      8.302
REMARK INTER + INTRA:         -10.137
REMARK INTER:                  -9.037
REMARK INTRA:                  -1.101
REMARK UNBOUND:                -1.197
REMARK  Name = 
REMARK  7 active torsions:
REMARK  status: ('A' for Active; 'I' for Inactive)
REMARK    1  A    between atoms: C_1  and  C_2
REMARK    2  A    between atoms: C_2  and  N_3
REMARK    3  A    between atoms: C_2  and  C_16
REMARK    4  A    between atoms: C_4  and  C_6
REMARK    5  A    between atoms: C_19  and  C_20
REMARK    6  A    between atoms: C_20  and  N_21
REMARK    7  A    between atoms: C_22  and  C_24
REMARK                            x       y       z     vdW  Elec       q    Type
REMARK                         _______ _______ _______ _____ _____    ______ ____
ROOT
ATOM      1  C   UNL     1      49.246   8.845  11.394  0.00  0.00    +0.000 C 
ATOM      2  C   UNL     1      48.060   8.405  12.258  0.00  0.00    +0.000 C 
ENDROOT
BRANCH   2   3
ATOM      3  C   UNL     1      48.460   8.233  13.714  0.00  0.00    +0.000 A 
ATOM      4  C   UNL     1      49.319   7.183  14.073  0.00  0.00    +0.000 A 
ATOM      5  C   UNL     1      49.626   6.929  15.412  0.00  0.00    +0.000 A 
ATOM      6  C   UNL     1      49.079   7.717  16.432  0.00  0.00    +0.000 A 
ATOM      7  C   UNL     1      48.279   8.811  16.077  0.00  0.00    +0.000 A 
ATOM      8  C   UNL     1      47.971   9.066  14.733  0.00  0.00    +0.000 A 
BRANCH   6   9
ATOM      9  C   UNL     1      49.321   7.377  17.879  0.00  0.00    +0.000 C 
BRANCH   9  10
ATOM     10  N   UNL     1      50.040   6.140  18.048  0.00  0.00    +0.000 N 
ATOM     11  C   UNL     1      49.346   4.965  18.266  0.00  0.00    +0.000 C 
ATOM     12  O   UNL     1      48.120   4.898  18.245  0.00  0.00    +0.000 OA
ATOM     13  H   UNL     1      50.969   6.164  18.452  0.00  0.00    +0.000 HD
BRANCH  11  14
ATOM     14  C   UNL     1      50.241   3.725  18.398  0.00  0.00    +0.000 C 
ATOM     15  C   UNL     1      51.647   3.937  17.870  0.00  0.00    +0.000 C 
ATOM     16  C   UNL     1      52.147   2.517  17.694  0.00  0.00    +0.000 C 
ATOM     17  C   UNL     1      50.902   1.711  17.355  0.00  0.00    +0.000 C 
ATOM     18  N   UNL     1      49.741   2.575  17.604  0.00  0.00    +0.000 NA
ATOM     19  H   UNL     1      49.052   2.067  18.155  0.00  0.00    +0.000 HD
ENDBRANCH  11  14
ENDBRANCH   9  10
ENDBRANCH   6   9
ENDBRANCH   2   3
BRANCH   2  20
ATOM     20  N   UNL     1      47.449   7.198  11.727  0.00  0.00    +0.000 N 
ATOM     21  C   UNL     1      46.090   7.086  11.567  0.00  0.00    +0.000 C 
ATOM     22  O   UNL     1      45.322   7.979  11.909  0.00  0.00    +0.000 OA
ATOM     23  H   UNL     1      48.060   6.422  11.502  0.00  0.00    +0.000 HD
BRANCH  21  24
ATOM     24  C   UNL     1      45.593   5.869  10.913  0.00  0.00    +0.000 A 
ATOM     25  C   UNL     1      45.834   5.676   9.560  0.00  0.00    +0.000 A 
ATOM     26  S   UNL     1      45.205   4.213   8.953  0.00  0.00    +0.000 S 
ATOM     27  C   UNL     1      44.546   3.806  10.467  0.00  0.00    +0.000 A 
ATOM     28  N   UNL     1      43.827   2.663  10.631  0.00  0.00    +0.000 NA
ATOM     29  C   UNL     1      43.348   2.499  11.819  0.00  0.00    +0.000 A 
ATOM     30  N   UNL     1      43.536   3.367  12.862  0.00  0.00    +0.000 N 
ATOM     31  C   UNL     1      44.318   4.493  12.763  0.00  0.00    +0.000 A 
ATOM     32  O   UNL     1      44.573   5.176  13.750  0.00  0.00    +0.000 OA
ATOM     33  C   UNL     1      44.833   4.756  11.433  0.00  0.00    +0.000 A 
ATOM     34  H   UNL     1      43.160   3.166  13.776  0.00  0.00    +0.000 HD
ENDBRANCH  21  24
ENDBRANCH   2  20
TORSDOF 6
ENDMDL
MODEL 9
REMARK VINA RESULT:    -6.614      1.764      2.311
REMARK INTER + INTRA:         -10.131
REMARK INTER:                  -9.293
REMARK INTRA:                  -0.838
REMARK UNBOUND:                -1.197
REMARK  Name = 
REMARK  7 active torsions:
REMARK  status: ('A' for Active; 'I' for Inactive)
REMARK    1  A    between atoms: C_1  and  C_2
REMARK    2  A    between atoms: C_2  and  N_3
REMARK    3  A    between atoms: C_2  and  C_16
REMARK    4  A    between atoms: C_4  and  C_6
REMARK    5  A    between atoms: C_19  and  C_20
REMARK    6  A    between atoms: C_20  and  N_21
REMARK    7  A    between atoms: C_22  and  C_24
REMARK                            x       y       z     vdW  Elec       q    Type
REMARK                         _______ _______ _______ _____ _____    ______ ____
ROOT
ATOM      1  C   UNL     1      47.734   8.503  14.323  0.00  0.00    +0.000 C 
ATOM      2  C   UNL     1      48.256   7.069  14.179  0.00  0.00    +0.000 C 
ENDROOT
BRANCH   2   3
ATOM      3  C   UNL     1      47.192   6.137  13.623  0.00  0.00    +0.000 A 
ATOM      4  C   UNL     1      47.198   4.785  13.997  0.00  0.00    +0.000 A 
ATOM      5  C   UNL     1      46.302   3.875  13.427  0.00  0.00    +0.000 A 
ATOM      6  C   UNL     1      45.375   4.295  12.466  0.00  0.00    +0.000 A 
ATOM      7  C   UNL     1      45.314   5.657  12.143  0.00  0.00    +0.000 A 
ATOM      8  C   UNL     1      46.213   6.568  12.713  0.00  0.00    +0.000 A 
BRANCH   6   9
ATOM      9  C   UNL     1      44.484   3.298  11.773  0.00  0.00    +0.000 C 
BRANCH   9  10
ATOM     10  N   UNL     1      45.017   2.861  10.507  0.00  0.00    +0.000 N 
ATOM     11  C   UNL     1      44.608   3.475   9.339  0.00  0.00    +0.000 C 
ATOM     12  O   UNL     1      43.859   4.449   9.322  0.00  0.00    +0.000 OA
ATOM     13  H   UNL     1      45.294   1.892  10.401  0.00  0.00    +0.000 HD
BRANCH  11  14
ATOM     14  C   UNL     1      45.280   2.925   8.074  0.00  0.00    +0.000 C 
ATOM     15  C   UNL     1      46.140   1.702   8.331  0.00  0.00    +0.000 C 
ATOM     16  C   UNL     1      47.007   1.646   7.089  0.00  0.00    +0.000 C 
ATOM     17  C   UNL     1      47.172   3.100   6.671  0.00  0.00    +0.000 C 
ATOM     18  N   UNL     1      46.226   3.894   7.464  0.00  0.00    +0.000 NA
ATOM     19  H   UNL     1      45.708   4.519   6.850  0.00  0.00    +0.000 HD
ENDBRANCH  11  14
ENDBRANCH   9  10
ENDBRANCH   6   9
ENDBRANCH   2   3
BRANCH   2  20
ATOM     20  N   UNL     1      48.788   6.580  15.438  0.00  0.00    +0.000 N 
ATOM     21  C   UNL     1      50.060   6.889  15.855  0.00  0.00    +0.000 C 
ATOM     22  O   UNL     1      50.825   7.552  15.163  0.00  0.00    +0.000 OA
ATOM     23  H   UNL     1      48.198   5.973  15.994  0.00  0.00    +0.000 HD
BRANCH  21  24
ATOM     24  C   UNL     1      50.451   6.438  17.197  0.00  0.00    +0.000 A 
ATOM     25  C   UNL     1      50.535   5.078  17.460  0.00  0.00    +0.000 A 
ATOM     26  S   UNL     1      51.011   4.717  19.056  0.00  0.00    +0.000 S 
ATOM     27  C   UNL     1      51.078   6.365  19.466  0.00  0.00    +0.000 A 
ATOM     28  N   UNL     1      51.395   6.758  20.730  0.00  0.00    +0.000 NA
ATOM     29  C   UNL     1      51.365   8.035  20.915  0.00  0.00    +0.000 A 
ATOM     30  N   UNL     1      51.063   8.957  19.948  0.00  0.00    +0.000 N 
ATOM     31  C   UNL     1      50.813   8.611  18.641  0.00  0.00    +0.000 A 
ATOM     32  O   UNL     1      50.677   9.469  17.775  0.00  0.00    +0.000 OA
ATOM     33  C   UNL     1      50.776   7.183  18.391  0.00  0.00    +0.000 A 
ATOM     34  H   UNL     1      51.088   9.945  20.149  0.00  0.00    +0.000 HD
ENDBRANCH  21  24
ENDBRANCH   2  20
TORSDOF 6
ENDMDL
