MODEL 1
REMARK VINA RESULT:    -6.962      0.000      0.000
REMARK INTER + INTRA:         -11.294
REMARK INTER:                  -9.811
REMARK INTRA:                  -1.483
REMARK UNBOUND:                -1.483
REMARK  Name = 
REMARK  8 active torsions:
REMARK  status: ('A' for Active; 'I' for Inactive)
REMARK    1  A    between atoms: C_1  and  O_2
REMARK    2  A    between atoms: O_2  and  C_3
REMARK    3  A    between atoms: C_10  and  C_11
REMARK    4  A    between atoms: N_13  and  C_14
REMARK    5  A    between atoms: C_14  and  C_15
REMARK    6  A    between atoms: C_18  and  N_19
REMARK    7  A    between atoms: N_19  and  C_20
REMARK    8  A    between atoms: C_20  and  C_21
REMARK                            x       y       z     vdW  Elec       q    Type
REMARK                         _______ _______ _______ _____ _____    ______ ____
ROOT
ATOM      1  C   UNL     1      47.609   8.618  14.006  0.00  0.00    +0.000 C 
ENDROOT
BRANCH   1   2
ATOM      2  C   UNL     1      46.966   7.938  12.824  0.00  0.00    +0.000 A 
ATOM      3  C   UNL     1      47.760   7.439  11.791  0.00  0.00    +0.000 A 
ATOM      4  C   UNL     1      47.204   6.646  10.782  0.00  0.00    +0.000 A 
ATOM      5  C   UNL     1      45.839   6.342  10.751  0.00  0.00    +0.000 A 
ATOM      6  C   UNL     1      45.034   6.934  11.736  0.00  0.00    +0.000 A 
ATOM      7  C   UNL     1      45.584   7.729  12.755  0.00  0.00    +0.000 A 
BRANCH   5   8
ATOM      8  N   UNL     1      45.284   5.369   9.917  0.00  0.00    +0.000 N 
ATOM      9  H   UNL     1      44.274   5.435   9.819  0.00  0.00    +0.000 HD
BRANCH   8  10
ATOM     10  C   UNL     1      46.000   4.873   8.747  0.00  0.00    +0.000 C 
BRANCH  10  11
ATOM     11  C   UNL     1      45.118   3.951   7.877  0.00  0.00    +0.000 C 
ATOM     12  C   UNL     1      44.404   2.855   8.691  0.00  0.00    +0.000 C 
ATOM     13  C   UNL     1      45.375   1.797   9.221  0.00  0.00    +0.000 C 
ATOM     14  N   UNL     1      46.168   1.189   8.149  0.00  0.00    +0.000 NA
ATOM     15  C   UNL     1      46.904   2.193   7.382  0.00  0.00    +0.000 C 
ATOM     16  C   UNL     1      45.975   3.261   6.795  0.00  0.00    +0.000 C 
ATOM     17  H   UNL     1      45.542   0.686   7.521  0.00  0.00    +0.000 HD
ENDBRANCH  10  11
ENDBRANCH   8  10
ENDBRANCH   5   8
ENDBRANCH   1   2
BRANCH   1  20
ATOM     18  C   UNL     1      49.085   7.164  15.305  0.00  0.00    +0.000 C 
ATOM     19  O   UNL     1      50.021   7.396  14.542  0.00  0.00    +0.000 OA
ATOM     20  N   UNL     1      47.852   7.724  15.106  0.00  0.00    +0.000 N 
ATOM     21  H   UNL     1      47.115   7.597  15.784  0.00  0.00    +0.000 HD
BRANCH  18  29
ATOM     22  C   UNL     1      47.454   4.289  16.238  0.00  0.00    +0.000 A 
ATOM     23  N   UNL     1      47.077   3.104  16.755  0.00  0.00    +0.000 NA
ATOM     24  C   UNL     1      47.741   2.639  17.817  0.00  0.00    +0.000 A 
ATOM     25  N   UNL     1      48.748   3.232  18.455  0.00  0.00    +0.000 NA
ATOM     26  C   UNL     1      49.099   4.406  17.902  0.00  0.00    +0.000 A 
ATOM     27  S   UNL     1      50.348   5.320  18.599  0.00  0.00    +0.000 S 
ATOM     28  C   UNL     1      50.209   6.515  17.398  0.00  0.00    +0.000 A 
ATOM     29  C   UNL     1      49.237   6.239  16.441  0.00  0.00    +0.000 A 
ATOM     30  C   UNL     1      48.538   5.004  16.779  0.00  0.00    +0.000 A 
BRANCH  22  32
ATOM     31  C   UNL     1      46.921   4.118  13.951  0.00  0.00    +0.000 C 
ATOM     32  O   UNL     1      46.736   4.810  15.182  0.00  0.00    +0.000 OA
ENDBRANCH  22  32
ENDBRANCH  18  29
ENDBRANCH   1  20
TORSDOF 7
ENDMDL
MODEL 2
REMARK VINA RESULT:    -6.929      1.960      2.417
REMARK INTER + INTRA:         -11.247
REMARK INTER:                  -9.577
REMARK INTRA:                  -1.670
REMARK UNBOUND:                -1.483
REMARK  Name = 
REMARK  8 active torsions:
REMARK  status: ('A' for Active; 'I' for Inactive)
REMARK    1  A    between atoms: C_1  and  O_2
REMARK    2  A    between atoms: O_2  and  C_3
REMARK    3  A    between atoms: C_10  and  C_11
REMARK    4  A    between atoms: N_13  and  C_14
REMARK    5  A    between atoms: C_14  and  C_15
REMARK    6  A    between atoms: C_18  and  N_19
REMARK    7  A    between atoms: N_19  and  C_20
REMARK    8  A    between atoms: C_20  and  C_21
REMARK                            x       y       z     vdW  Elec       q    Type
REMARK                         _______ _______ _______ _____ _____    ______ ____
ROOT
ATOM      1  C   UNL     1      48.315   8.840  14.492  0.00  0.00    +0.000 C 
ENDROOT
BRANCH   1   2
ATOM      2  C   UNL     1      47.444   8.417  13.336  0.00  0.00    +0.000 A 
ATOM      3  C   UNL     1      47.933   7.516  12.390  0.00  0.00    +0.000 A 
ATOM      4  C   UNL     1      47.086   6.970  11.420  0.00  0.00    +0.000 A 
ATOM      5  C   UNL     1      45.733   7.317  11.341  0.00  0.00    +0.000 A 
ATOM      6  C   UNL     1      45.278   8.301  12.232  0.00  0.00    +0.000 A 
ATOM      7  C   UNL     1      46.120   8.852  13.212  0.00  0.00    +0.000 A 
BRANCH   5   8
ATOM      8  N   UNL     1      44.804   6.628  10.560  0.00  0.00    +0.000 N 
ATOM      9  H   UNL     1      44.456   7.159   9.765  0.00  0.00    +0.000 HD
BRANCH   8  10
ATOM     10  C   UNL     1      44.897   5.186  10.363  0.00  0.00    +0.000 C 
BRANCH  10  11
ATOM     11  C   UNL     1      43.533   4.487  10.546  0.00  0.00    +0.000 C 
ATOM     12  C   UNL     1      42.639   5.173  11.595  0.00  0.00    +0.000 C 
ATOM     13  C   UNL     1      43.170   4.996  13.020  0.00  0.00    +0.000 C 
ATOM     14  N   UNL     1      43.358   3.584  13.366  0.00  0.00    +0.000 NA
ATOM     15  C   UNL     1      44.244   2.906  12.421  0.00  0.00    +0.000 C 
ATOM     16  C   UNL     1      43.740   3.020  10.980  0.00  0.00    +0.000 C 
ATOM     17  H   UNL     1      42.450   3.120  13.361  0.00  0.00    +0.000 HD
ENDBRANCH  10  11
ENDBRANCH   8  10
ENDBRANCH   5   8
ENDBRANCH   1   2
BRANCH   1  20
ATOM     18  C   UNL     1      49.496   7.077  15.709  0.00  0.00    +0.000 C 
ATOM     19  O   UNL     1      50.470   7.188  14.967  0.00  0.00    +0.000 OA
ATOM     20  N   UNL     1      48.381   7.854  15.536  0.00  0.00    +0.000 N 
ATOM     21  H   UNL     1      47.622   7.817  16.201  0.00  0.00    +0.000 HD
BRANCH  18  29
ATOM     22  C   UNL     1      47.437   4.416  16.397  0.00  0.00    +0.000 A 
ATOM     23  N   UNL     1      46.875   3.268  16.823  0.00  0.00    +0.000 NA
ATOM     24  C   UNL     1      47.420   2.651  17.875  0.00  0.00    +0.000 A 
ATOM     25  N   UNL     1      48.472   3.055  18.584  0.00  0.00    +0.000 NA
ATOM     26  C   UNL     1      49.008   4.197  18.120  0.00  0.00    +0.000 A 
ATOM     27  S   UNL     1      50.343   4.880  18.917  0.00  0.00    +0.000 S 
ATOM     28  C   UNL     1      50.425   6.151  17.792  0.00  0.00    +0.000 A 
ATOM     29  C   UNL     1      49.467   6.075  16.787  0.00  0.00    +0.000 A 
ATOM     30  C   UNL     1      48.586   4.934  17.020  0.00  0.00    +0.000 A 
BRANCH  22  32
ATOM     31  C   UNL     1      46.952   4.440  14.093  0.00  0.00    +0.000 C 
ATOM     32  O   UNL     1      46.846   5.096  15.353  0.00  0.00    +0.000 OA
ENDBRANCH  22  32
ENDBRANCH  18  29
ENDBRANCH   1  20
TORSDOF 7
ENDMDL
MODEL 3
REMARK VINA RESULT:    -6.908      1.877      3.446
REMARK INTER + INTRA:         -11.217
REMARK INTER:                  -9.905
REMARK INTRA:                  -1.312
REMARK UNBOUND:                -1.483
REMARK  Name = 
REMARK  8 active torsions:
REMARK  status: ('A' for Active; 'I' for Inactive)
REMARK    1  A    between atoms: C_1  and  O_2
REMARK    2  A    between atoms: O_2  and  C_3
REMARK    3  A    between atoms: C_10  and  C_11
REMARK    4  A    between atoms: N_13  and  C_14
REMARK    5  A    between atoms: C_14  and  C_15
REMARK    6  A    between atoms: C_18  and  N_19
REMARK    7  A    between atoms: N_19  and  C_20
REMARK    8  A    between atoms: C_20  and  C_21
REMARK                            x       y       z     vdW  Elec       q    Type
REMARK                         _______ _______ _______ _____ _____    ______ ____
ROOT
ATOM      1  C   UNL     1      47.112   4.089  14.873  0.00  0.00    +0.000 C 
ENDROOT
BRANCH   1   2
ATOM      2  C   UNL     1      46.448   4.528  13.592  0.00  0.00    +0.000 A 
ATOM      3  C   UNL     1      46.826   5.728  12.988  0.00  0.00    +0.000 A 
ATOM      4  C   UNL     1      46.360   6.063  11.713  0.00  0.00    +0.000 A 
ATOM      5  C   UNL     1      45.487   5.231  11.004  0.00  0.00    +0.000 A 
ATOM      6  C   UNL     1      45.033   4.078  11.664  0.00  0.00    +0.000 A 
ATOM      7  C   UNL     1      45.498   3.732  12.944  0.00  0.00    +0.000 A 
BRANCH   5   8
ATOM      8  N   UNL     1      45.190   5.397   9.650  0.00  0.00    +0.000 N 
ATOM      9  H   UNL     1      44.730   6.278   9.432  0.00  0.00    +0.000 HD
BRANCH   8  10
ATOM     10  C   UNL     1      46.064   4.867   8.610  0.00  0.00    +0.000 C 
BRANCH  10  11
ATOM     11  C   UNL     1      45.308   3.937   7.637  0.00  0.00    +0.000 C 
ATOM     12  C   UNL     1      44.605   2.765   8.345  0.00  0.00    +0.000 C 
ATOM     13  C   UNL     1      45.597   1.740   8.901  0.00  0.00    +0.000 C 
ATOM     14  N   UNL     1      46.503   1.232   7.867  0.00  0.00    +0.000 NA
ATOM     15  C   UNL     1      47.230   2.313   7.203  0.00  0.00    +0.000 C 
ATOM     16  C   UNL     1      46.283   3.352   6.594  0.00  0.00    +0.000 C 
ATOM     17  H   UNL     1      45.957   0.724   7.172  0.00  0.00    +0.000 HD
ENDBRANCH  10  11
ENDBRANCH   8  10
ENDBRANCH   5   8
ENDBRANCH   1   2
BRANCH   1  20
ATOM     18  C   UNL     1      48.421   5.127  16.660  0.00  0.00    +0.000 C 
ATOM     19  O   UNL     1      49.146   4.137  16.734  0.00  0.00    +0.000 OA
ATOM     20  N   UNL     1      47.383   5.182  15.768  0.00  0.00    +0.000 N 
ATOM     21  H   UNL     1      46.849   6.031  15.654  0.00  0.00    +0.000 HD
BRANCH  18  29
ATOM     22  C   UNL     1      48.664   8.511  16.127  0.00  0.00    +0.000 A 
ATOM     23  N   UNL     1      48.665   9.855  16.211  0.00  0.00    +0.000 NA
ATOM     24  C   UNL     1      48.707  10.411  17.425  0.00  0.00    +0.000 A 
ATOM     25  N   UNL     1      48.767   9.778  18.594  0.00  0.00    +0.000 NA
ATOM     26  C   UNL     1      48.754   8.440  18.466  0.00  0.00    +0.000 A 
ATOM     27  S   UNL     1      48.853   7.465  19.852  0.00  0.00    +0.000 S 
ATOM     28  C   UNL     1      48.743   6.047  18.921  0.00  0.00    +0.000 A 
ATOM     29  C   UNL     1      48.609   6.280  17.556  0.00  0.00    +0.000 A 
ATOM     30  C   UNL     1      48.672   7.713  17.284  0.00  0.00    +0.000 A 
BRANCH  22  32
ATOM     31  C   UNL     1      49.993   7.649  14.384  0.00  0.00    +0.000 C 
ATOM     32  O   UNL     1      48.686   7.925  14.879  0.00  0.00    +0.000 OA
ENDBRANCH  22  32
ENDBRANCH  18  29
ENDBRANCH   1  20
TORSDOF 7
ENDMDL
MODEL 4
REMARK VINA RESULT:    -6.581      3.069      7.790
REMARK INTER + INTRA:         -10.757
REMARK INTER:                  -9.530
REMARK INTRA:                  -1.227
REMARK UNBOUND:                -1.483
REMARK  Name = 
REMARK  8 active torsions:
REMARK  status: ('A' for Active; 'I' for Inactive)
REMARK    1  A    between atoms: C_1  and  O_2
REMARK    2  A    between atoms: O_2  and  C_3
REMARK    3  A    between atoms: C_10  and  C_11
REMARK    4  A    between atoms: N_13  and  C_14
REMARK    5  A    between atoms: C_14  and  C_15
REMARK    6  A    between atoms: C_18  and  N_19
REMARK    7  A    between atoms: N_19  and  C_20
REMARK    8  A    between atoms: C_20  and  C_21
REMARK                            x       y       z     vdW  Elec       q    Type
REMARK                         _______ _______ _______ _____ _____    ______ ____
ROOT
ATOM      1  C   UNL     1      48.469   8.134  11.762  0.00  0.00    +0.000 C 
ENDROOT
BRANCH   1   2
ATOM      2  C   UNL     1      48.622   8.113  13.262  0.00  0.00    +0.000 A 
ATOM      3  C   UNL     1      48.252   9.229  14.014  0.00  0.00    +0.000 A 
ATOM      4  C   UNL     1      48.211   9.166  15.411  0.00  0.00    +0.000 A 
ATOM      5  C   UNL     1      48.557   8.003  16.108  0.00  0.00    +0.000 A 
ATOM      6  C   UNL     1      49.025   6.922  15.346  0.00  0.00    +0.000 A 
ATOM      7  C   UNL     1      49.067   6.975  13.943  0.00  0.00    +0.000 A 
BRANCH   5   8
ATOM      8  N   UNL     1      48.302   7.814  17.468  0.00  0.00    +0.000 N 
ATOM      9  H   UNL     1      47.431   8.230  17.787  0.00  0.00    +0.000 HD
BRANCH   8  10
ATOM     10  C   UNL     1      48.707   6.592  18.153  0.00  0.00    +0.000 C 
BRANCH  10  11
ATOM     11  C   UNL     1      47.501   5.842  18.759  0.00  0.00    +0.000 C 
ATOM     12  C   UNL     1      47.626   5.623  20.278  0.00  0.00    +0.000 C 
ATOM     13  C   UNL     1      48.717   4.609  20.633  0.00  0.00    +0.000 C 
ATOM     14  N   UNL     1      48.518   3.325  19.956  0.00  0.00    +0.000 NA
ATOM     15  C   UNL     1      48.445   3.482  18.504  0.00  0.00    +0.000 C 
ATOM     16  C   UNL     1      47.342   4.461  18.088  0.00  0.00    +0.000 C 
ATOM     17  H   UNL     1      47.649   2.909  20.289  0.00  0.00    +0.000 HD
ENDBRANCH  10  11
ENDBRANCH   8  10
ENDBRANCH   5   8
ENDBRANCH   1   2
BRANCH   1  20
ATOM     18  C   UNL     1      46.389   6.950  11.255  0.00  0.00    +0.000 C 
ATOM     19  O   UNL     1      45.724   7.882  11.704  0.00  0.00    +0.000 OA
ATOM     20  N   UNL     1      47.758   6.992  11.254  0.00  0.00    +0.000 N 
ATOM     21  H   UNL     1      48.293   6.262  10.805  0.00  0.00    +0.000 HD
BRANCH  18  29
ATOM     22  C   UNL     1      44.692   4.368  12.754  0.00  0.00    +0.000 A 
ATOM     23  N   UNL     1      43.900   3.323  13.061  0.00  0.00    +0.000 NA
ATOM     24  C   UNL     1      43.441   2.563  12.063  0.00  0.00    +0.000 A 
ATOM     25  N   UNL     1      43.693   2.710  10.764  0.00  0.00    +0.000 NA
ATOM     26  C   UNL     1      44.478   3.768  10.499  0.00  0.00    +0.000 A 
ATOM     27  S   UNL     1      44.930   4.096   8.896  0.00  0.00    +0.000 S 
ATOM     28  C   UNL     1      45.796   5.479   9.372  0.00  0.00    +0.000 A 
ATOM     29  C   UNL     1      45.744   5.731  10.739  0.00  0.00    +0.000 A 
ATOM     30  C   UNL     1      45.001   4.674  11.416  0.00  0.00    +0.000 A 
BRANCH  22  32
ATOM     31  C   UNL     1      46.453   4.619  14.297  0.00  0.00    +0.000 C 
ATOM     32  O   UNL     1      45.225   5.121  13.779  0.00  0.00    +0.000 OA
ENDBRANCH  22  32
ENDBRANCH  18  29
ENDBRANCH   1  20
TORSDOF 7
ENDMDL
MODEL 5
REMARK VINA RESULT:    -6.575      4.368      9.020
REMARK INTER + INTRA:         -10.749
REMARK INTER:                  -9.892
REMARK INTRA:                  -0.856
REMARK UNBOUND:                -1.483
REMARK  Name = 
REMARK  8 active torsions:
REMARK  status: ('A' for Active; 'I' for Inactive)
REMARK    1  A    between atoms: C_1  and  O_2
REMARK    2  A    between atoms: O_2  and  C_3
REMARK    3  A    between atoms: C_10  and  C_11
REMARK    4  A    between atoms: N_13  and  C_14
REMARK    5  A    between atoms: C_14  and  C_15
REMARK    6  A    between atoms: C_18  and  N_19
REMARK    7  A    between atoms: N_19  and  C_20
REMARK    8  A    between atoms: C_20  and  C_21
REMARK                            x       y       z     vdW  Elec       q    Type
REMARK                         _______ _______ _______ _____ _____    ______ ____
ROOT
ATOM      1  C   UNL     1      47.288   3.590  16.818  0.00  0.00    +0.000 C 
ENDROOT
BRANCH   1   2
ATOM      2  C   UNL     1      48.761   3.339  17.019  0.00  0.00    +0.000 A 
ATOM      3  C   UNL     1      49.563   4.326  17.593  0.00  0.00    +0.000 A 
ATOM      4  C   UNL     1      50.885   4.050  17.957  0.00  0.00    +0.000 A 
ATOM      5  C   UNL     1      51.462   2.793  17.743  0.00  0.00    +0.000 A 
ATOM      6  C   UNL     1      50.680   1.842  17.072  0.00  0.00    +0.000 A 
ATOM      7  C   UNL     1      49.350   2.109  16.705  0.00  0.00    +0.000 A 
BRANCH   5   8
ATOM      8  N   UNL     1      52.679   2.398  18.301  0.00  0.00    +0.000 N 
ATOM      9  H   UNL     1      52.886   2.835  19.196  0.00  0.00    +0.000 HD
BRANCH   8  10
ATOM     10  C   UNL     1      53.188   1.042  18.129  0.00  0.00    +0.000 C 
BRANCH  10  11
ATOM     11  C   UNL     1      54.719   1.020  17.924  0.00  0.00    +0.000 C 
ATOM     12  C   UNL     1      55.132   0.615  16.498  0.00  0.00    +0.000 C 
ATOM     13  C   UNL     1      54.850  -0.862  16.206  0.00  0.00    +0.000 C 
ATOM     14  N   UNL     1      55.487  -1.748  17.185  0.00  0.00    +0.000 NA
ATOM     15  C   UNL     1      55.081  -1.429  18.553  0.00  0.00    +0.000 C 
ATOM     16  C   UNL     1      55.374   0.031  18.911  0.00  0.00    +0.000 C 
ATOM     17  H   UNL     1      56.499  -1.650  17.108  0.00  0.00    +0.000 HD
ENDBRANCH  10  11
ENDBRANCH   8  10
ENDBRANCH   5   8
ENDBRANCH   1   2
BRANCH   1  20
ATOM     18  C   UNL     1      46.984   4.253  14.483  0.00  0.00    +0.000 C 
ATOM     19  O   UNL     1      47.195   3.101  14.106  0.00  0.00    +0.000 OA
ATOM     20  N   UNL     1      47.019   4.582  15.811  0.00  0.00    +0.000 N 
ATOM     21  H   UNL     1      46.760   5.508  16.118  0.00  0.00    +0.000 HD
BRANCH  18  29
ATOM     22  C   UNL     1      44.224   5.181  12.661  0.00  0.00    +0.000 A 
ATOM     23  N   UNL     1      43.280   5.822  11.947  0.00  0.00    +0.000 NA
ATOM     24  C   UNL     1      43.615   6.962  11.337  0.00  0.00    +0.000 A 
ATOM     25  N   UNL     1      44.809   7.550  11.337  0.00  0.00    +0.000 NA
ATOM     26  C   UNL     1      45.719   6.885  12.070  0.00  0.00    +0.000 A 
ATOM     27  S   UNL     1      47.310   7.470  12.163  0.00  0.00    +0.000 S 
ATOM     28  C   UNL     1      47.765   6.208  13.206  0.00  0.00    +0.000 A 
ATOM     29  C   UNL     1      46.727   5.337  13.520  0.00  0.00    +0.000 A 
ATOM     30  C   UNL     1      45.519   5.714  12.793  0.00  0.00    +0.000 A 
BRANCH  22  32
ATOM     31  C   UNL     1      43.780   2.894  12.318  0.00  0.00    +0.000 C 
ATOM     32  O   UNL     1      43.909   3.971  13.242  0.00  0.00    +0.000 OA
ENDBRANCH  22  32
ENDBRANCH  18  29
ENDBRANCH   1  20
TORSDOF 7
ENDMDL
MODEL 6
REMARK VINA RESULT:    -6.557      2.395      3.204
REMARK INTER + INTRA:         -10.723
REMARK INTER:                  -9.484
REMARK INTRA:                  -1.239
REMARK UNBOUND:                -1.483
REMARK  Name = 
REMARK  8 active torsions:
REMARK  status: ('A' for Active; 'I' for Inactive)
REMARK    1  A    between atoms: C_1  and  O_2
REMARK    2  A    between atoms: O_2  and  C_3
REMARK    3  A    between atoms: C_10  and  C_11
REMARK    4  A    between atoms: N_13  and  C_14
REMARK    5  A    between atoms: C_14  and  C_15
REMARK    6  A    between atoms: C_18  and  N_19
REMARK    7  A    between atoms: N_19  and  C_20
REMARK    8  A    between atoms: C_20  and  C_21
REMARK                            x       y       z     vdW  Elec       q    Type
REMARK                         _______ _______ _______ _____ _____    ______ ____
ROOT
ATOM      1  C   UNL     1      47.554   4.656  14.904  0.00  0.00    +0.000 C 
ENDROOT
BRANCH   1   2
ATOM      2  C   UNL     1      46.792   4.973  13.644  0.00  0.00    +0.000 A 
ATOM      3  C   UNL     1      47.102   6.121  12.913  0.00  0.00    +0.000 A 
ATOM      4  C   UNL     1      46.538   6.338  11.651  0.00  0.00    +0.000 A 
ATOM      5  C   UNL     1      45.632   5.437  11.083  0.00  0.00    +0.000 A 
ATOM      6  C   UNL     1      45.249   4.340  11.870  0.00  0.00    +0.000 A 
ATOM      7  C   UNL     1      45.812   4.112  13.137  0.00  0.00    +0.000 A 
BRANCH   5   8
ATOM      8  N   UNL     1      45.234   5.482   9.745  0.00  0.00    +0.000 N 
ATOM      9  H   UNL     1      44.738   6.331   9.489  0.00  0.00    +0.000 HD
BRANCH   8  10
ATOM     10  C   UNL     1      46.046   4.883   8.692  0.00  0.00    +0.000 C 
BRANCH  10  11
ATOM     11  C   UNL     1      45.216   3.952   7.781  0.00  0.00    +0.000 C 
ATOM     12  C   UNL     1      44.418   2.894   8.565  0.00  0.00    +0.000 C 
ATOM     13  C   UNL     1      45.322   1.833   9.198  0.00  0.00    +0.000 C 
ATOM     14  N   UNL     1      46.184   1.181   8.207  0.00  0.00    +0.000 NA
ATOM     15  C   UNL     1      46.998   2.149   7.474  0.00  0.00    +0.000 C 
ATOM     16  C   UNL     1      46.140   3.216   6.788  0.00  0.00    +0.000 C 
ATOM     17  H   UNL     1      45.598   0.671   7.546  0.00  0.00    +0.000 HD
ENDBRANCH  10  11
ENDBRANCH   8  10
ENDBRANCH   5   8
ENDBRANCH   1   2
BRANCH   1  20
ATOM     18  C   UNL     1      48.724   6.470  16.056  0.00  0.00    +0.000 C 
ATOM     19  O   UNL     1      49.771   6.193  15.474  0.00  0.00    +0.000 OA
ATOM     20  N   UNL     1      47.580   5.751  15.837  0.00  0.00    +0.000 N 
ATOM     21  H   UNL     1      46.706   6.037  16.253  0.00  0.00    +0.000 HD
BRANCH  18  29
ATOM     22  C   UNL     1      47.968   6.567  19.405  0.00  0.00    +0.000 A 
ATOM     23  N   UNL     1      47.841   6.863  20.712  0.00  0.00    +0.000 NA
ATOM     24  C   UNL     1      48.077   8.119  21.101  0.00  0.00    +0.000 A 
ATOM     25  N   UNL     1      48.415   9.147  20.326  0.00  0.00    +0.000 NA
ATOM     26  C   UNL     1      48.541   8.807  19.031  0.00  0.00    +0.000 A 
ATOM     27  S   UNL     1      48.939   9.997  17.887  0.00  0.00    +0.000 S 
ATOM     28  C   UNL     1      48.943   8.854  16.629  0.00  0.00    +0.000 A 
ATOM     29  C   UNL     1      48.665   7.557  17.047  0.00  0.00    +0.000 A 
ATOM     30  C   UNL     1      48.371   7.544  18.476  0.00  0.00    +0.000 A 
BRANCH  22  32
ATOM     31  C   UNL     1      48.638   4.311  19.334  0.00  0.00    +0.000 C 
ATOM     32  O   UNL     1      47.666   5.290  18.982  0.00  0.00    +0.000 OA
ENDBRANCH  22  32
ENDBRANCH  18  29
ENDBRANCH   1  20
TORSDOF 7
ENDMDL
MODEL 7
REMARK VINA RESULT:    -6.526      2.189      2.705
REMARK INTER + INTRA:         -10.680
REMARK INTER:                  -9.633
REMARK INTRA:                  -1.047
REMARK UNBOUND:                -1.483
REMARK  Name = 
REMARK  8 active torsions:
REMARK  status: ('A' for Active; 'I' for Inactive)
REMARK    1  A    between atoms: C_1  and  O_2
REMARK    2  A    between atoms: O_2  and  C_3
REMARK    3  A    between atoms: C_10  and  C_11
REMARK    4  A    between atoms: N_13  and  C_14
REMARK    5  A    between atoms: C_14  and  C_15
REMARK    6  A    between atoms: C_18  and  N_19
REMARK    7  A    between atoms: N_19  and  C_20
REMARK    8  A    between atoms: C_20  and  C_21
REMARK                            x       y       z     vdW  Elec       q    Type
REMARK                         _______ _______ _______ _____ _____    ______ ____
ROOT
ATOM      1  C   UNL     1      49.056   7.528  15.344  0.00  0.00    +0.000 C 
ENDROOT
BRANCH   1   2
ATOM      2  C   UNL     1      48.318   7.020  14.132  0.00  0.00    +0.000 A 
ATOM      3  C   UNL     1      47.519   5.880  14.231  0.00  0.00    +0.000 A 
ATOM      4  C   UNL     1      46.685   5.499  13.175  0.00  0.00    +0.000 A 
ATOM      5  C   UNL     1      46.632   6.222  11.978  0.00  0.00    +0.000 A 
ATOM      6  C   UNL     1      47.515   7.304  11.851  0.00  0.00    +0.000 A 
ATOM      7  C   UNL     1      48.355   7.697  12.908  0.00  0.00    +0.000 A 
BRANCH   5   8
ATOM      8  N   UNL     1      45.652   6.029  11.002  0.00  0.00    +0.000 N 
ATOM      9  H   UNL     1      44.993   6.799  10.919  0.00  0.00    +0.000 HD
BRANCH   8  10
ATOM     10  C   UNL     1      45.942   5.310   9.766  0.00  0.00    +0.000 C 
BRANCH  10  11
ATOM     11  C   UNL     1      44.663   4.737   9.117  0.00  0.00    +0.000 C 
ATOM     12  C   UNL     1      43.746   4.017  10.123  0.00  0.00    +0.000 C 
ATOM     13  C   UNL     1      44.347   2.702  10.623  0.00  0.00    +0.000 C 
ATOM     14  N   UNL     1      44.691   1.798   9.521  0.00  0.00    +0.000 NA
ATOM     15  C   UNL     1      45.604   2.427   8.568  0.00  0.00    +0.000 C 
ATOM     16  C   UNL     1      45.035   3.734   8.005  0.00  0.00    +0.000 C 
ATOM     17  H   UNL     1      43.835   1.532   9.035  0.00  0.00    +0.000 HD
ENDBRANCH  10  11
ENDBRANCH   8  10
ENDBRANCH   5   8
ENDBRANCH   1   2
BRANCH   1  20
ATOM     18  C   UNL     1      49.858   6.092  17.155  0.00  0.00    +0.000 C 
ATOM     19  O   UNL     1      48.951   6.477  17.891  0.00  0.00    +0.000 OA
ATOM     20  N   UNL     1      49.986   6.570  15.878  0.00  0.00    +0.000 N 
ATOM     21  H   UNL     1      50.680   6.186  15.253  0.00  0.00    +0.000 HD
BRANCH  18  29
ATOM     22  C   UNL     1      50.127   2.672  16.985  0.00  0.00    +0.000 A 
ATOM     23  N   UNL     1      50.534   1.389  16.950  0.00  0.00    +0.000 NA
ATOM     24  C   UNL     1      51.738   1.096  17.449  0.00  0.00    +0.000 A 
ATOM     25  N   UNL     1      52.601   1.940  18.007  0.00  0.00    +0.000 NA
ATOM     26  C   UNL     1      52.161   3.211  18.013  0.00  0.00    +0.000 A 
ATOM     27  S   UNL     1      53.118   4.426  18.713  0.00  0.00    +0.000 S 
ATOM     28  C   UNL     1      51.979   5.621  18.312  0.00  0.00    +0.000 A 
ATOM     29  C   UNL     1      50.871   5.134  17.628  0.00  0.00    +0.000 A 
ATOM     30  C   UNL     1      50.958   3.683  17.501  0.00  0.00    +0.000 A 
BRANCH  22  32
ATOM     31  C   UNL     1      47.852   2.931  17.538  0.00  0.00    +0.000 C 
ATOM     32  O   UNL     1      48.861   2.979  16.533  0.00  0.00    +0.000 OA
ENDBRANCH  22  32
ENDBRANCH  18  29
ENDBRANCH   1  20
TORSDOF 7
ENDMDL
MODEL 8
REMARK VINA RESULT:    -6.457      3.645      9.193
REMARK INTER + INTRA:         -10.582
REMARK INTER:                  -9.565
REMARK INTRA:                  -1.017
REMARK UNBOUND:                -1.483
REMARK  Name = 
REMARK  8 active torsions:
REMARK  status: ('A' for Active; 'I' for Inactive)
REMARK    1  A    between atoms: C_1  and  O_2
REMARK    2  A    between atoms: O_2  and  C_3
REMARK    3  A    between atoms: C_10  and  C_11
REMARK    4  A    between atoms: N_13  and  C_14
REMARK    5  A    between atoms: C_14  and  C_15
REMARK    6  A    between atoms: C_18  and  N_19
REMARK    7  A    between atoms: N_19  and  C_20
REMARK    8  A    between atoms: C_20  and  C_21
REMARK                            x       y       z     vdW  Elec       q    Type
REMARK                         _______ _______ _______ _____ _____    ______ ____
ROOT
ATOM      1  C   UNL     1      47.322   3.647  16.905  0.00  0.00    +0.000 C 
ENDROOT
BRANCH   1   2
ATOM      2  C   UNL     1      48.793   3.381  17.097  0.00  0.00    +0.000 A 
ATOM      3  C   UNL     1      49.615   4.373  17.632  0.00  0.00    +0.000 A 
ATOM      4  C   UNL     1      50.937   4.089  17.990  0.00  0.00    +0.000 A 
ATOM      5  C   UNL     1      51.494   2.819  17.808  0.00  0.00    +0.000 A 
ATOM      6  C   UNL     1      50.691   1.859  17.175  0.00  0.00    +0.000 A 
ATOM      7  C   UNL     1      49.361   2.134  16.815  0.00  0.00    +0.000 A 
BRANCH   5   8
ATOM      8  N   UNL     1      52.712   2.423  18.365  0.00  0.00    +0.000 N 
ATOM      9  H   UNL     1      53.282   1.850  17.747  0.00  0.00    +0.000 HD
BRANCH   8  10
ATOM     10  C   UNL     1      53.446   3.289  19.280  0.00  0.00    +0.000 C 
BRANCH  10  11
ATOM     11  C   UNL     1      54.909   3.496  18.833  0.00  0.00    +0.000 C 
ATOM     12  C   UNL     1      55.638   4.588  19.637  0.00  0.00    +0.000 C 
ATOM     13  C   UNL     1      55.111   5.991  19.324  0.00  0.00    +0.000 C 
ATOM     14  N   UNL     1      55.172   6.297  17.892  0.00  0.00    +0.000 NA
ATOM     15  C   UNL     1      54.447   5.309  17.094  0.00  0.00    +0.000 C 
ATOM     16  C   UNL     1      54.959   3.886  17.341  0.00  0.00    +0.000 C 
ATOM     17  H   UNL     1      56.149   6.308  17.599  0.00  0.00    +0.000 HD
ENDBRANCH  10  11
ENDBRANCH   8  10
ENDBRANCH   5   8
ENDBRANCH   1   2
BRANCH   1  20
ATOM     18  C   UNL     1      47.013   4.274  14.560  0.00  0.00    +0.000 C 
ATOM     19  O   UNL     1      47.215   3.115  14.202  0.00  0.00    +0.000 OA
ATOM     20  N   UNL     1      47.056   4.624  15.884  0.00  0.00    +0.000 N 
ATOM     21  H   UNL     1      46.804   5.557  16.176  0.00  0.00    +0.000 HD
BRANCH  18  29
ATOM     22  C   UNL     1      44.261   5.177  12.715  0.00  0.00    +0.000 A 
ATOM     23  N   UNL     1      43.319   5.807  11.987  0.00  0.00    +0.000 NA
ATOM     24  C   UNL     1      43.657   6.939  11.363  0.00  0.00    +0.000 A 
ATOM     25  N   UNL     1      44.852   7.526  11.360  0.00  0.00    +0.000 NA
ATOM     26  C   UNL     1      45.758   6.871  12.105  0.00  0.00    +0.000 A 
ATOM     27  S   UNL     1      47.349   7.458  12.197  0.00  0.00    +0.000 S 
ATOM     28  C   UNL     1      47.799   6.210  13.259  0.00  0.00    +0.000 A 
ATOM     29  C   UNL     1      46.760   5.344  13.581  0.00  0.00    +0.000 A 
ATOM     30  C   UNL     1      45.555   5.711  12.844  0.00  0.00    +0.000 A 
BRANCH  22  32
ATOM     31  C   UNL     1      43.679   2.918  12.395  0.00  0.00    +0.000 C 
ATOM     32  O   UNL     1      43.943   3.975  13.312  0.00  0.00    +0.000 OA
ENDBRANCH  22  32
ENDBRANCH  18  29
ENDBRANCH   1  20
TORSDOF 7
ENDMDL
MODEL 9
REMARK VINA RESULT:    -6.110      3.411      8.663
REMARK INTER + INTRA:         -10.093
REMARK INTER:                  -8.825
REMARK INTRA:                  -1.267
REMARK UNBOUND:                -1.483
REMARK  Name = 
REMARK  8 active torsions:
REMARK  status: ('A' for Active; 'I' for Inactive)
REMARK    1  A    between atoms: C_1  and  O_2
REMARK    2  A    between atoms: O_2  and  C_3
REMARK    3  A    between atoms: C_10  and  C_11
REMARK    4  A    between atoms: N_13  and  C_14
REMARK    5  A    between atoms: C_14  and  C_15
REMARK    6  A    between atoms: C_18  and  N_19
REMARK    7  A    between atoms: N_19  and  C_20
REMARK    8  A    between atoms: C_20  and  C_21
REMARK                            x       y       z     vdW  Elec       q    Type
REMARK                         _______ _______ _______ _____ _____    ______ ____
ROOT
ATOM      1  C   UNL     1      47.155   3.415  17.070  0.00  0.00    +0.000 C 
ENDROOT
BRANCH   1   2
ATOM      2  C   UNL     1      48.476   3.617  17.768  0.00  0.00    +0.000 A 
ATOM      3  C   UNL     1      49.633   3.034  17.249  0.00  0.00    +0.000 A 
ATOM      4  C   UNL     1      50.890   3.357  17.770  0.00  0.00    +0.000 A 
ATOM      5  C   UNL     1      51.040   4.250  18.836  0.00  0.00    +0.000 A 
ATOM      6  C   UNL     1      49.864   4.750  19.415  0.00  0.00    +0.000 A 
ATOM      7  C   UNL     1      48.597   4.434  18.897  0.00  0.00    +0.000 A 
BRANCH   5   8
ATOM      8  N   UNL     1      52.269   4.787  19.226  0.00  0.00    +0.000 N 
ATOM      9  H   UNL     1      52.782   4.208  19.887  0.00  0.00    +0.000 HD
BRANCH   8  10
ATOM     10  C   UNL     1      53.085   5.566  18.303  0.00  0.00    +0.000 C 
BRANCH  10  11
ATOM     11  C   UNL     1      52.327   6.795  17.756  0.00  0.00    +0.000 C 
ATOM     12  C   UNL     1      52.182   6.782  16.223  0.00  0.00    +0.000 C 
ATOM     13  C   UNL     1      53.517   7.011  15.509  0.00  0.00    +0.000 C 
ATOM     14  N   UNL     1      54.168   8.251  15.941  0.00  0.00    +0.000 NA
ATOM     15  C   UNL     1      54.371   8.282  17.389  0.00  0.00    +0.000 C 
ATOM     16  C   UNL     1      53.059   8.094  18.156  0.00  0.00    +0.000 C 
ATOM     17  H   UNL     1      53.583   9.041  15.671  0.00  0.00    +0.000 HD
ENDBRANCH  10  11
ENDBRANCH   8  10
ENDBRANCH   5   8
ENDBRANCH   1   2
BRANCH   1  20
ATOM     18  C   UNL     1      47.032   4.168  14.746  0.00  0.00    +0.000 C 
ATOM     19  O   UNL     1      47.422   3.072  14.347  0.00  0.00    +0.000 OA
ATOM     20  N   UNL     1      46.880   4.424  16.083  0.00  0.00    +0.000 N 
ATOM     21  H   UNL     1      46.478   5.295  16.396  0.00  0.00    +0.000 HD
BRANCH  18  29
ATOM     22  C   UNL     1      44.380   4.892  12.686  0.00  0.00    +0.000 A 
ATOM     23  N   UNL     1      43.446   5.465  11.904  0.00  0.00    +0.000 NA
ATOM     24  C   UNL     1      43.712   6.665  11.380  0.00  0.00    +0.000 A 
ATOM     25  N   UNL     1      44.827   7.375  11.529  0.00  0.00    +0.000 NA
ATOM     26  C   UNL     1      45.728   6.773  12.325  0.00  0.00    +0.000 A 
ATOM     27  S   UNL     1      47.227   7.519  12.608  0.00  0.00    +0.000 S 
ATOM     28  C   UNL     1      47.713   6.259  13.640  0.00  0.00    +0.000 A 
ATOM     29  C   UNL     1      46.753   5.267  13.807  0.00  0.00    +0.000 A 
ATOM     30  C   UNL     1      45.589   5.552  12.974  0.00  0.00    +0.000 A 
BRANCH  22  32
ATOM     31  C   UNL     1      43.530   2.740  12.251  0.00  0.00    +0.000 C 
ATOM     32  O   UNL     1      44.146   3.626  13.181  0.00  0.00    +0.000 OA
ENDBRANCH  22  32
ENDBRANCH  18  29
ENDBRANCH   1  20
TORSDOF 7
ENDMDL
