MODEL 1
REMARK VINA RESULT:    -8.799      0.000      0.000
REMARK INTER + INTRA:         -13.475
REMARK INTER:                 -12.399
REMARK INTRA:                  -1.076
REMARK UNBOUND:                -1.076
REMARK  Name = 
REMARK  7 active torsions:
REMARK  status: ('A' for Active; 'I' for Inactive)
REMARK    1  A    between atoms: C_2  and  C_4
REMARK    2  A    between atoms: C_7  and  N_8
REMARK    3  A    between atoms: N_8  and  C_9
REMARK    4  A    between atoms: C_9  and  C_10
REMARK    5  A    between atoms: C_10  and  C_13
REMARK    6  A    between atoms: C_17  and  C_18
REMARK    7  A    between atoms: C_18  and  C_19
REMARK                            x       y       z     vdW  Elec       q    Type
REMARK                         _______ _______ _______ _____ _____    ______ ____
ROOT
ATOM      1  C   UNL     1      43.339   4.347  11.195  0.00  0.00    +0.000 C 
ENDROOT
BRANCH   1   2
ATOM      2  C   UNL     1      43.489   5.499  12.222  0.00  0.00    +0.000 C 
ATOM      3  F   UNL     1      43.027   6.659  11.670  0.00  0.00    +0.000 F 
ATOM      4  F   UNL     1      42.656   5.242  13.277  0.00  0.00    +0.000 F 
BRANCH   2   5
ATOM      5  C   UNL     1      44.941   5.599  12.638  0.00  0.00    +0.000 A 
ATOM      6  C   UNL     1      45.728   6.686  12.239  0.00  0.00    +0.000 A 
ATOM      7  C   UNL     1      47.038   6.816  12.704  0.00  0.00    +0.000 A 
ATOM      8  C   UNL     1      47.567   5.863  13.575  0.00  0.00    +0.000 A 
ATOM      9  C   UNL     1      46.805   4.761  13.978  0.00  0.00    +0.000 A 
ATOM     10  C   UNL     1      45.494   4.634  13.499  0.00  0.00    +0.000 A 
BRANCH   9  11
ATOM     11  C   UNL     1      47.378   3.727  14.916  0.00  0.00    +0.000 C 
BRANCH  11  12
ATOM     12  C   UNL     1      47.142   4.115  16.374  0.00  0.00    +0.000 C 
ATOM     13  C   UNL     1      48.297   4.945  16.986  0.00  0.00    +0.000 C 
ATOM     14  C   UNL     1      48.254   4.058  18.236  0.00  0.00    +0.000 C 
ATOM     15  C   UNL     1      47.404   3.042  17.462  0.00  0.00    +0.000 C 
ENDBRANCH  11  12
ENDBRANCH   9  11
ENDBRANCH   2   5
ENDBRANCH   1   2
BRANCH   1  16
ATOM     16  N   UNL     1      43.724   4.726   9.827  0.00  0.00    +0.000 N 
ATOM     17  H   UNL     1      42.970   5.134   9.275  0.00  0.00    +0.000 HD
BRANCH  16  21
ATOM     18  C   UNL     1      46.597   2.487   7.708  0.00  0.00    +0.000 A 
ATOM     19  C   UNL     1      45.687   1.825   8.535  0.00  0.00    +0.000 A 
ATOM     20  C   UNL     1      44.715   2.555   9.229  0.00  0.00    +0.000 A 
ATOM     21  C   UNL     1      44.610   3.945   9.092  0.00  0.00    +0.000 A 
ATOM     22  C   UNL     1      45.548   4.593   8.278  0.00  0.00    +0.000 A 
ATOM     23  C   UNL     1      46.537   3.877   7.595  0.00  0.00    +0.000 A 
BRANCH  18  25
ATOM     24  N   UNL     1      48.556   2.505   6.266  0.00  0.00    +0.000 N 
ATOM     25  C   UNL     1      47.656   1.755   6.972  0.00  0.00    +0.000 C 
ATOM     26  O   UNL     1      47.753   0.536   7.019  0.00  0.00    +0.000 OA
ATOM     27  H   UNL     1      49.337   2.002   5.865  0.00  0.00    +0.000 HD
ATOM     28  H   UNL     1      48.664   3.498   6.416  0.00  0.00    +0.000 HD
ENDBRANCH  18  25
ENDBRANCH  16  21
ENDBRANCH   1  16
TORSDOF 7
ENDMDL
MODEL 2
REMARK VINA RESULT:    -8.212      1.845      3.627
REMARK INTER + INTRA:         -12.649
REMARK INTER:                 -11.520
REMARK INTRA:                  -1.128
REMARK UNBOUND:                -1.076
REMARK  Name = 
REMARK  7 active torsions:
REMARK  status: ('A' for Active; 'I' for Inactive)
REMARK    1  A    between atoms: C_2  and  C_4
REMARK    2  A    between atoms: C_7  and  N_8
REMARK    3  A    between atoms: N_8  and  C_9
REMARK    4  A    between atoms: C_9  and  C_10
REMARK    5  A    between atoms: C_10  and  C_13
REMARK    6  A    between atoms: C_17  and  C_18
REMARK    7  A    between atoms: C_18  and  C_19
REMARK                            x       y       z     vdW  Elec       q    Type
REMARK                         _______ _______ _______ _____ _____    ______ ____
ROOT
ATOM      1  C   UNL     1      43.503   3.587  11.520  0.00  0.00    +0.000 C 
ENDROOT
BRANCH   1   2
ATOM      2  C   UNL     1      43.394   4.592  12.696  0.00  0.00    +0.000 C 
ATOM      3  F   UNL     1      42.421   5.508  12.420  0.00  0.00    +0.000 F 
ATOM      4  F   UNL     1      42.952   3.914  13.799  0.00  0.00    +0.000 F 
BRANCH   2   5
ATOM      5  C   UNL     1      44.747   5.239  12.913  0.00  0.00    +0.000 A 
ATOM      6  C   UNL     1      45.853   4.473  13.301  0.00  0.00    +0.000 A 
ATOM      7  C   UNL     1      47.114   5.061  13.408  0.00  0.00    +0.000 A 
ATOM      8  C   UNL     1      47.279   6.417  13.121  0.00  0.00    +0.000 A 
ATOM      9  C   UNL     1      46.186   7.206  12.744  0.00  0.00    +0.000 A 
ATOM     10  C   UNL     1      44.922   6.609  12.648  0.00  0.00    +0.000 A 
BRANCH   9  11
ATOM     11  C   UNL     1      46.362   8.673  12.439  0.00  0.00    +0.000 C 
BRANCH  11  12
ATOM     12  C   UNL     1      47.841   9.045  12.352  0.00  0.00    +0.000 C 
ATOM     13  C   UNL     1      48.361   9.801  13.599  0.00  0.00    +0.000 C 
ATOM     14  C   UNL     1      49.060  10.809  12.679  0.00  0.00    +0.000 C 
ATOM     15  C   UNL     1      48.229  10.282  11.502  0.00  0.00    +0.000 C 
ENDBRANCH  11  12
ENDBRANCH   9  11
ENDBRANCH   2   5
ENDBRANCH   1   2
BRANCH   1  16
ATOM     16  N   UNL     1      43.739   4.229  10.218  0.00  0.00    +0.000 N 
ATOM     17  H   UNL     1      42.892   4.515   9.728  0.00  0.00    +0.000 HD
BRANCH  16  21
ATOM     18  C   UNL     1      46.663   2.770   7.557  0.00  0.00    +0.000 A 
ATOM     19  C   UNL     1      46.475   4.148   7.680  0.00  0.00    +0.000 A 
ATOM     20  C   UNL     1      45.521   4.648   8.574  0.00  0.00    +0.000 A 
ATOM     21  C   UNL     1      44.761   3.792   9.382  0.00  0.00    +0.000 A 
ATOM     22  C   UNL     1      44.945   2.412   9.226  0.00  0.00    +0.000 A 
ATOM     23  C   UNL     1      45.882   1.901   8.321  0.00  0.00    +0.000 A 
BRANCH  18  25
ATOM     24  N   UNL     1      47.878   2.898   5.454  0.00  0.00    +0.000 N 
ATOM     25  C   UNL     1      47.647   2.199   6.606  0.00  0.00    +0.000 C 
ATOM     26  O   UNL     1      48.259   1.167   6.849  0.00  0.00    +0.000 OA
ATOM     27  H   UNL     1      48.632   2.559   4.871  0.00  0.00    +0.000 HD
ATOM     28  H   UNL     1      47.597   3.862   5.345  0.00  0.00    +0.000 HD
ENDBRANCH  18  25
ENDBRANCH  16  21
ENDBRANCH   1  16
TORSDOF 7
ENDMDL
MODEL 3
REMARK VINA RESULT:    -7.966      2.272      4.563
REMARK INTER + INTRA:         -12.302
REMARK INTER:                 -11.165
REMARK INTRA:                  -1.137
REMARK UNBOUND:                -1.076
REMARK  Name = 
REMARK  7 active torsions:
REMARK  status: ('A' for Active; 'I' for Inactive)
REMARK    1  A    between atoms: C_2  and  C_4
REMARK    2  A    between atoms: C_7  and  N_8
REMARK    3  A    between atoms: N_8  and  C_9
REMARK    4  A    between atoms: C_9  and  C_10
REMARK    5  A    between atoms: C_10  and  C_13
REMARK    6  A    between atoms: C_17  and  C_18
REMARK    7  A    between atoms: C_18  and  C_19
REMARK                            x       y       z     vdW  Elec       q    Type
REMARK                         _______ _______ _______ _____ _____    ______ ____
ROOT
ATOM      1  C   UNL     1      44.106   3.292  11.874  0.00  0.00    +0.000 C 
ENDROOT
BRANCH   1   2
ATOM      2  C   UNL     1      43.545   4.593  12.504  0.00  0.00    +0.000 C 
ATOM      3  F   UNL     1      42.528   5.068  11.728  0.00  0.00    +0.000 F 
ATOM      4  F   UNL     1      42.968   4.274  13.703  0.00  0.00    +0.000 F 
BRANCH   2   5
ATOM      5  C   UNL     1      44.673   5.593  12.648  0.00  0.00    +0.000 A 
ATOM      6  C   UNL     1      45.993   5.163  12.826  0.00  0.00    +0.000 A 
ATOM      7  C   UNL     1      47.037   6.089  12.864  0.00  0.00    +0.000 A 
ATOM      8  C   UNL     1      46.768   7.451  12.719  0.00  0.00    +0.000 A 
ATOM      9  C   UNL     1      45.455   7.906  12.553  0.00  0.00    +0.000 A 
ATOM     10  C   UNL     1      44.413   6.970  12.524  0.00  0.00    +0.000 A 
BRANCH   9  11
ATOM     11  C   UNL     1      45.162   9.379  12.401  0.00  0.00    +0.000 C 
BRANCH  11  12
ATOM     12  C   UNL     1      44.580   9.685  11.022  0.00  0.00    +0.000 C 
ATOM     13  C   UNL     1      44.841  11.137  10.552  0.00  0.00    +0.000 C 
ATOM     14  C   UNL     1      43.375  11.244  10.114  0.00  0.00    +0.000 C 
ATOM     15  C   UNL     1      43.061   9.980  10.926  0.00  0.00    +0.000 C 
ENDBRANCH  11  12
ENDBRANCH   9  11
ENDBRANCH   2   5
ENDBRANCH   1   2
BRANCH   1  16
ATOM     16  N   UNL     1      43.759   3.129  10.455  0.00  0.00    +0.000 N 
ATOM     17  H   UNL     1      42.943   2.542  10.285  0.00  0.00    +0.000 HD
BRANCH  16  21
ATOM     18  C   UNL     1      46.611   2.642   7.391  0.00  0.00    +0.000 A 
ATOM     19  C   UNL     1      46.138   3.921   7.689  0.00  0.00    +0.000 A 
ATOM     20  C   UNL     1      45.205   4.100   8.718  0.00  0.00    +0.000 A 
ATOM     21  C   UNL     1      44.750   3.020   9.485  0.00  0.00    +0.000 A 
ATOM     22  C   UNL     1      45.217   1.742   9.154  0.00  0.00    +0.000 A 
ATOM     23  C   UNL     1      46.134   1.548   8.115  0.00  0.00    +0.000 A 
BRANCH  18  25
ATOM     24  N   UNL     1      47.521   3.245   5.217  0.00  0.00    +0.000 N 
ATOM     25  C   UNL     1      47.582   2.406   6.296  0.00  0.00    +0.000 C 
ATOM     26  O   UNL     1      48.431   1.526   6.361  0.00  0.00    +0.000 OA
ATOM     27  H   UNL     1      48.260   3.145   4.534  0.00  0.00    +0.000 HD
ATOM     28  H   UNL     1      47.023   4.123   5.247  0.00  0.00    +0.000 HD
ENDBRANCH  18  25
ENDBRANCH  16  21
ENDBRANCH   1  16
TORSDOF 7
ENDMDL
MODEL 4
REMARK VINA RESULT:    -7.833      1.745      2.345
REMARK INTER + INTRA:         -12.114
REMARK INTER:                 -10.964
REMARK INTRA:                  -1.150
REMARK UNBOUND:                -1.076
REMARK  Name = 
REMARK  7 active torsions:
REMARK  status: ('A' for Active; 'I' for Inactive)
REMARK    1  A    between atoms: C_2  and  C_4
REMARK    2  A    between atoms: C_7  and  N_8
REMARK    3  A    between atoms: N_8  and  C_9
REMARK    4  A    between atoms: C_9  and  C_10
REMARK    5  A    between atoms: C_10  and  C_13
REMARK    6  A    between atoms: C_17  and  C_18
REMARK    7  A    between atoms: C_18  and  C_19
REMARK                            x       y       z     vdW  Elec       q    Type
REMARK                         _______ _______ _______ _____ _____    ______ ____
ROOT
ATOM      1  C   UNL     1      44.042   3.935  11.742  0.00  0.00    +0.000 C 
ENDROOT
BRANCH   1   2
ATOM      2  C   UNL     1      43.526   5.394  11.834  0.00  0.00    +0.000 C 
ATOM      3  F   UNL     1      42.854   5.709  10.689  0.00  0.00    +0.000 F 
ATOM      4  F   UNL     1      42.591   5.455  12.832  0.00  0.00    +0.000 F 
BRANCH   2   5
ATOM      5  C   UNL     1      44.702   6.314  12.083  0.00  0.00    +0.000 A 
ATOM      6  C   UNL     1      44.629   7.674  11.758  0.00  0.00    +0.000 A 
ATOM      7  C   UNL     1      45.683   8.532  12.076  0.00  0.00    +0.000 A 
ATOM      8  C   UNL     1      46.815   8.037  12.726  0.00  0.00    +0.000 A 
ATOM      9  C   UNL     1      46.917   6.679  13.049  0.00  0.00    +0.000 A 
ATOM     10  C   UNL     1      45.858   5.824  12.718  0.00  0.00    +0.000 A 
BRANCH   9  11
ATOM     11  C   UNL     1      48.142   6.141  13.746  0.00  0.00    +0.000 C 
BRANCH  11  12
ATOM     12  C   UNL     1      48.728   7.175  14.706  0.00  0.00    +0.000 C 
ATOM     13  C   UNL     1      50.166   7.613  14.336  0.00  0.00    +0.000 C 
ATOM     14  C   UNL     1      50.577   7.457  15.805  0.00  0.00    +0.000 C 
ATOM     15  C   UNL     1      49.284   6.671  16.063  0.00  0.00    +0.000 C 
ENDBRANCH  11  12
ENDBRANCH   9  11
ENDBRANCH   2   5
ENDBRANCH   1   2
BRANCH   1  16
ATOM     16  N   UNL     1      43.748   3.288  10.455  0.00  0.00    +0.000 N 
ATOM     17  H   UNL     1      43.098   2.505  10.514  0.00  0.00    +0.000 HD
BRANCH  16  21
ATOM     18  C   UNL     1      46.599   2.658   7.416  0.00  0.00    +0.000 A 
ATOM     19  C   UNL     1      46.148   3.953   7.673  0.00  0.00    +0.000 A 
ATOM     20  C   UNL     1      45.216   4.180   8.693  0.00  0.00    +0.000 A 
ATOM     21  C   UNL     1      44.740   3.132   9.492  0.00  0.00    +0.000 A 
ATOM     22  C   UNL     1      45.185   1.836   9.201  0.00  0.00    +0.000 A 
ATOM     23  C   UNL     1      46.101   1.595   8.171  0.00  0.00    +0.000 A 
BRANCH  18  25
ATOM     24  N   UNL     1      47.526   3.178   5.228  0.00  0.00    +0.000 N 
ATOM     25  C   UNL     1      47.568   2.371   6.331  0.00  0.00    +0.000 C 
ATOM     26  O   UNL     1      48.400   1.478   6.425  0.00  0.00    +0.000 OA
ATOM     27  H   UNL     1      48.264   3.045   4.550  0.00  0.00    +0.000 HD
ATOM     28  H   UNL     1      47.045   4.066   5.230  0.00  0.00    +0.000 HD
ENDBRANCH  18  25
ENDBRANCH  16  21
ENDBRANCH   1  16
TORSDOF 7
ENDMDL
MODEL 5
REMARK VINA RESULT:    -7.738      3.426      7.696
REMARK INTER + INTRA:         -11.981
REMARK INTER:                 -10.815
REMARK INTRA:                  -1.166
REMARK UNBOUND:                -1.076
REMARK  Name = 
REMARK  7 active torsions:
REMARK  status: ('A' for Active; 'I' for Inactive)
REMARK    1  A    between atoms: C_2  and  C_4
REMARK    2  A    between atoms: C_7  and  N_8
REMARK    3  A    between atoms: N_8  and  C_9
REMARK    4  A    between atoms: C_9  and  C_10
REMARK    5  A    between atoms: C_10  and  C_13
REMARK    6  A    between atoms: C_17  and  C_18
REMARK    7  A    between atoms: C_18  and  C_19
REMARK                            x       y       z     vdW  Elec       q    Type
REMARK                         _______ _______ _______ _____ _____    ______ ____
ROOT
ATOM      1  C   UNL     1      46.852   6.445  12.261  0.00  0.00    +0.000 C 
ENDROOT
BRANCH   1   2
ATOM      2  C   UNL     1      45.334   6.456  11.945  0.00  0.00    +0.000 C 
ATOM      3  F   UNL     1      44.637   6.730  13.085  0.00  0.00    +0.000 F 
ATOM      4  F   UNL     1      45.080   7.506  11.103  0.00  0.00    +0.000 F 
BRANCH   2   5
ATOM      5  C   UNL     1      44.950   5.121  11.342  0.00  0.00    +0.000 A 
ATOM      6  C   UNL     1      44.325   4.138  12.119  0.00  0.00    +0.000 A 
ATOM      7  C   UNL     1      43.891   2.948  11.532  0.00  0.00    +0.000 A 
ATOM      8  C   UNL     1      44.074   2.736  10.165  0.00  0.00    +0.000 A 
ATOM      9  C   UNL     1      44.707   3.698   9.371  0.00  0.00    +0.000 A 
ATOM     10  C   UNL     1      45.147   4.886   9.970  0.00  0.00    +0.000 A 
BRANCH   9  11
ATOM     11  C   UNL     1      44.910   3.468   7.893  0.00  0.00    +0.000 C 
BRANCH  11  12
ATOM     12  C   UNL     1      46.375   3.176   7.577  0.00  0.00    +0.000 C 
ATOM     13  C   UNL     1      46.694   3.192   6.062  0.00  0.00    +0.000 C 
ATOM     14  C   UNL     1      47.487   1.890   6.229  0.00  0.00    +0.000 C 
ATOM     15  C   UNL     1      46.844   1.699   7.610  0.00  0.00    +0.000 C 
ENDBRANCH  11  12
ENDBRANCH   9  11
ENDBRANCH   2   5
ENDBRANCH   1   2
BRANCH   1  16
ATOM     16  N   UNL     1      47.169   6.867  13.634  0.00  0.00    +0.000 N 
ATOM     17  H   UNL     1      47.624   7.777  13.701  0.00  0.00    +0.000 HD
BRANCH  16  21
ATOM     18  C   UNL     1      48.391   4.234  16.689  0.00  0.00    +0.000 A 
ATOM     19  C   UNL     1      47.449   3.805  15.752  0.00  0.00    +0.000 A 
ATOM     20  C   UNL     1      47.048   4.663  14.720  0.00  0.00    +0.000 A 
ATOM     21  C   UNL     1      47.597   5.944  14.583  0.00  0.00    +0.000 A 
ATOM     22  C   UNL     1      48.521   6.365  15.548  0.00  0.00    +0.000 A 
ATOM     23  C   UNL     1      48.914   5.525  16.595  0.00  0.00    +0.000 A 
BRANCH  18  25
ATOM     24  N   UNL     1      47.983   3.262  18.881  0.00  0.00    +0.000 N 
ATOM     25  C   UNL     1      48.826   3.366  17.810  0.00  0.00    +0.000 C 
ATOM     26  O   UNL     1      49.874   2.736  17.772  0.00  0.00    +0.000 OA
ATOM     27  H   UNL     1      48.237   2.581  19.584  0.00  0.00    +0.000 HD
ATOM     28  H   UNL     1      47.015   3.550  18.834  0.00  0.00    +0.000 HD
ENDBRANCH  18  25
ENDBRANCH  16  21
ENDBRANCH   1  16
TORSDOF 7
ENDMDL
MODEL 6
REMARK VINA RESULT:    -7.223      3.458      7.142
REMARK INTER + INTRA:         -11.254
REMARK INTER:                 -10.058
REMARK INTRA:                  -1.196
REMARK UNBOUND:                -1.076
REMARK  Name = 
REMARK  7 active torsions:
REMARK  status: ('A' for Active; 'I' for Inactive)
REMARK    1  A    between atoms: C_2  and  C_4
REMARK    2  A    between atoms: C_7  and  N_8
REMARK    3  A    between atoms: N_8  and  C_9
REMARK    4  A    between atoms: C_9  and  C_10
REMARK    5  A    between atoms: C_10  and  C_13
REMARK    6  A    between atoms: C_17  and  C_18
REMARK    7  A    between atoms: C_18  and  C_19
REMARK                            x       y       z     vdW  Elec       q    Type
REMARK                         _______ _______ _______ _____ _____    ______ ____
ROOT
ATOM      1  C   UNL     1      45.363   5.290  13.226  0.00  0.00    +0.000 C 
ENDROOT
BRANCH   1   2
ATOM      2  C   UNL     1      44.215   5.376  12.187  0.00  0.00    +0.000 C 
ATOM      3  F   UNL     1      43.018   5.202  12.819  0.00  0.00    +0.000 F 
ATOM      4  F   UNL     1      44.182   6.652  11.692  0.00  0.00    +0.000 F 
BRANCH   2   5
ATOM      5  C   UNL     1      44.452   4.340  11.109  0.00  0.00    +0.000 A 
ATOM      6  C   UNL     1      43.862   3.072  11.191  0.00  0.00    +0.000 A 
ATOM      7  C   UNL     1      44.011   2.157  10.148  0.00  0.00    +0.000 A 
ATOM      8  C   UNL     1      44.745   2.505   9.013  0.00  0.00    +0.000 A 
ATOM      9  C   UNL     1      45.355   3.760   8.913  0.00  0.00    +0.000 A 
ATOM     10  C   UNL     1      45.207   4.670   9.969  0.00  0.00    +0.000 A 
BRANCH   9  11
ATOM     11  C   UNL     1      46.153   4.136   7.688  0.00  0.00    +0.000 C 
BRANCH  11  12
ATOM     12  C   UNL     1      46.395   2.922   6.794  0.00  0.00    +0.000 C 
ATOM     13  C   UNL     1      47.777   2.260   7.014  0.00  0.00    +0.000 C 
ATOM     14  C   UNL     1      47.970   2.191   5.495  0.00  0.00    +0.000 C 
ATOM     15  C   UNL     1      46.807   3.176   5.321  0.00  0.00    +0.000 C 
ENDBRANCH  11  12
ENDBRANCH   9  11
ENDBRANCH   2   5
ENDBRANCH   1   2
BRANCH   1  16
ATOM     16  N   UNL     1      45.907   6.600  13.611  0.00  0.00    +0.000 N 
ATOM     17  H   UNL     1      45.212   7.342  13.680  0.00  0.00    +0.000 HD
BRANCH  16  21
ATOM     18  C   UNL     1      49.761   7.667  12.280  0.00  0.00    +0.000 A 
ATOM     19  C   UNL     1      48.713   7.600  11.360  0.00  0.00    +0.000 A 
ATOM     20  C   UNL     1      47.424   7.266  11.791  0.00  0.00    +0.000 A 
ATOM     21  C   UNL     1      47.147   7.023  13.143  0.00  0.00    +0.000 A 
ATOM     22  C   UNL     1      48.216   7.070  14.047  0.00  0.00    +0.000 A 
ATOM     23  C   UNL     1      49.513   7.383  13.624  0.00  0.00    +0.000 A 
BRANCH  18  25
ATOM     24  N   UNL     1      51.693   7.232  10.867  0.00  0.00    +0.000 N 
ATOM     25  C   UNL     1      51.145   7.994  11.862  0.00  0.00    +0.000 C 
ATOM     26  O   UNL     1      51.766   8.929  12.352  0.00  0.00    +0.000 OA
ATOM     27  H   UNL     1      52.590   7.538  10.515  0.00  0.00    +0.000 HD
ATOM     28  H   UNL     1      51.131   6.640  10.272  0.00  0.00    +0.000 HD
ENDBRANCH  18  25
ENDBRANCH  16  21
ENDBRANCH   1  16
TORSDOF 7
ENDMDL
MODEL 7
REMARK VINA RESULT:    -7.202      3.314      4.004
REMARK INTER + INTRA:         -11.225
REMARK INTER:                 -10.354
REMARK INTRA:                  -0.870
REMARK UNBOUND:                -1.076
REMARK  Name = 
REMARK  7 active torsions:
REMARK  status: ('A' for Active; 'I' for Inactive)
REMARK    1  A    between atoms: C_2  and  C_4
REMARK    2  A    between atoms: C_7  and  N_8
REMARK    3  A    between atoms: N_8  and  C_9
REMARK    4  A    between atoms: C_9  and  C_10
REMARK    5  A    between atoms: C_10  and  C_13
REMARK    6  A    between atoms: C_17  and  C_18
REMARK    7  A    between atoms: C_18  and  C_19
REMARK                            x       y       z     vdW  Elec       q    Type
REMARK                         _______ _______ _______ _____ _____    ______ ____
ROOT
ATOM      1  C   UNL     1      45.090   5.886  10.862  0.00  0.00    +0.000 C 
ENDROOT
BRANCH   1   2
ATOM      2  C   UNL     1      44.215   6.856  11.698  0.00  0.00    +0.000 C 
ATOM      3  F   UNL     1      42.928   6.808  11.246  0.00  0.00    +0.000 F 
ATOM      4  F   UNL     1      44.167   6.389  12.983  0.00  0.00    +0.000 F 
BRANCH   2   5
ATOM      5  C   UNL     1      44.805   8.248  11.606  0.00  0.00    +0.000 A 
ATOM      6  C   UNL     1      44.081   9.296  11.024  0.00  0.00    +0.000 A 
ATOM      7  C   UNL     1      44.594  10.594  11.029  0.00  0.00    +0.000 A 
ATOM      8  C   UNL     1      45.832  10.854  11.621  0.00  0.00    +0.000 A 
ATOM      9  C   UNL     1      46.579   9.821  12.197  0.00  0.00    +0.000 A 
ATOM     10  C   UNL     1      46.060   8.520  12.180  0.00  0.00    +0.000 A 
BRANCH   9  11
ATOM     11  C   UNL     1      47.919  10.100  12.832  0.00  0.00    +0.000 C 
BRANCH  11  12
ATOM     12  C   UNL     1      48.846   8.892  12.716  0.00  0.00    +0.000 C 
ATOM     13  C   UNL     1      50.116   9.002  13.595  0.00  0.00    +0.000 C 
ATOM     14  C   UNL     1      50.963   8.535  12.405  0.00  0.00    +0.000 C 
ATOM     15  C   UNL     1      49.773   8.806  11.476  0.00  0.00    +0.000 C 
ENDBRANCH  11  12
ENDBRANCH   9  11
ENDBRANCH   2   5
ENDBRANCH   1   2
BRANCH   1  16
ATOM     16  N   UNL     1      44.330   5.130   9.855  0.00  0.00    +0.000 N 
ATOM     17  H   UNL     1      43.345   4.997  10.082  0.00  0.00    +0.000 HD
BRANCH  16  21
ATOM     18  C   UNL     1      46.306   1.969   7.890  0.00  0.00    +0.000 A 
ATOM     19  C   UNL     1      45.325   1.678   8.840  0.00  0.00    +0.000 A 
ATOM     20  C   UNL     1      44.647   2.718   9.486  0.00  0.00    +0.000 A 
ATOM     21  C   UNL     1      44.908   4.060   9.180  0.00  0.00    +0.000 A 
ATOM     22  C   UNL     1      45.914   4.332   8.244  0.00  0.00    +0.000 A 
ATOM     23  C   UNL     1      46.612   3.301   7.606  0.00  0.00    +0.000 A 
BRANCH  18  25
ATOM     24  N   UNL     1      46.793  -0.392   7.564  0.00  0.00    +0.000 N 
ATOM     25  C   UNL     1      47.064   0.898   7.199  0.00  0.00    +0.000 C 
ATOM     26  O   UNL     1      47.871   1.144   6.312  0.00  0.00    +0.000 OA
ATOM     27  H   UNL     1      47.231  -1.113   7.007  0.00  0.00    +0.000 HD
ATOM     28  H   UNL     1      45.966  -0.640   8.088  0.00  0.00    +0.000 HD
ENDBRANCH  18  25
ENDBRANCH  16  21
ENDBRANCH   1  16
TORSDOF 7
ENDMDL
MODEL 8
REMARK VINA RESULT:    -6.876      4.347      8.118
REMARK INTER + INTRA:         -10.765
REMARK INTER:                  -9.927
REMARK INTRA:                  -0.838
REMARK UNBOUND:                -1.076
REMARK  Name = 
REMARK  7 active torsions:
REMARK  status: ('A' for Active; 'I' for Inactive)
REMARK    1  A    between atoms: C_2  and  C_4
REMARK    2  A    between atoms: C_7  and  N_8
REMARK    3  A    between atoms: N_8  and  C_9
REMARK    4  A    between atoms: C_9  and  C_10
REMARK    5  A    between atoms: C_10  and  C_13
REMARK    6  A    between atoms: C_17  and  C_18
REMARK    7  A    between atoms: C_18  and  C_19
REMARK                            x       y       z     vdW  Elec       q    Type
REMARK                         _______ _______ _______ _____ _____    ______ ____
ROOT
ATOM      1  C   UNL     1      46.884   4.301  14.537  0.00  0.00    +0.000 C 
ENDROOT
BRANCH   1   2
ATOM      2  C   UNL     1      46.862   5.485  13.537  0.00  0.00    +0.000 C 
ATOM      3  F   UNL     1      46.852   6.661  14.229  0.00  0.00    +0.000 F 
ATOM      4  F   UNL     1      48.042   5.481  12.844  0.00  0.00    +0.000 F 
BRANCH   2   5
ATOM      5  C   UNL     1      45.656   5.340  12.633  0.00  0.00    +0.000 A 
ATOM      6  C   UNL     1      44.791   6.419  12.413  0.00  0.00    +0.000 A 
ATOM      7  C   UNL     1      43.736   6.302  11.506  0.00  0.00    +0.000 A 
ATOM      8  C   UNL     1      43.543   5.109  10.808  0.00  0.00    +0.000 A 
ATOM      9  C   UNL     1      44.387   4.012  11.021  0.00  0.00    +0.000 A 
ATOM     10  C   UNL     1      45.437   4.135  11.940  0.00  0.00    +0.000 A 
BRANCH   9  11
ATOM     11  C   UNL     1      44.176   2.720  10.271  0.00  0.00    +0.000 C 
BRANCH  11  12
ATOM     12  C   UNL     1      44.561   2.866   8.801  0.00  0.00    +0.000 C 
ATOM     13  C   UNL     1      45.767   1.988   8.388  0.00  0.00    +0.000 C 
ATOM     14  C   UNL     1      46.374   3.190   7.655  0.00  0.00    +0.000 C 
ATOM     15  C   UNL     1      45.389   4.111   8.388  0.00  0.00    +0.000 C 
ENDBRANCH  11  12
ENDBRANCH   9  11
ENDBRANCH   2   5
ENDBRANCH   1   2
BRANCH   1  16
ATOM     16  N   UNL     1      47.115   4.713  15.930  0.00  0.00    +0.000 N 
ATOM     17  H   UNL     1      46.712   5.616  16.176  0.00  0.00    +0.000 HD
BRANCH  16  21
ATOM     18  C   UNL     1      50.828   3.723  17.661  0.00  0.00    +0.000 A 
ATOM     19  C   UNL     1      50.536   5.060  17.385  0.00  0.00    +0.000 A 
ATOM     20  C   UNL     1      49.299   5.405  16.828  0.00  0.00    +0.000 A 
ATOM     21  C   UNL     1      48.322   4.436  16.565  0.00  0.00    +0.000 A 
ATOM     22  C   UNL     1      48.643   3.098  16.825  0.00  0.00    +0.000 A 
ATOM     23  C   UNL     1      49.884   2.738  17.363  0.00  0.00    +0.000 A 
BRANCH  18  25
ATOM     24  N   UNL     1      52.333   1.974  18.430  0.00  0.00    +0.000 N 
ATOM     25  C   UNL     1      52.134   3.312  18.230  0.00  0.00    +0.000 C 
ATOM     26  O   UNL     1      53.016   4.123  18.478  0.00  0.00    +0.000 OA
ATOM     27  H   UNL     1      53.266   1.699  18.710  0.00  0.00    +0.000 HD
ATOM     28  H   UNL     1      51.746   1.273  18.002  0.00  0.00    +0.000 HD
ENDBRANCH  18  25
ENDBRANCH  16  21
ENDBRANCH   1  16
TORSDOF 7
ENDMDL
MODEL 9
REMARK VINA RESULT:    -6.721      3.988      7.523
REMARK INTER + INTRA:         -10.547
REMARK INTER:                  -9.560
REMARK INTRA:                  -0.987
REMARK UNBOUND:                -1.076
REMARK  Name = 
REMARK  7 active torsions:
REMARK  status: ('A' for Active; 'I' for Inactive)
REMARK    1  A    between atoms: C_2  and  C_4
REMARK    2  A    between atoms: C_7  and  N_8
REMARK    3  A    between atoms: N_8  and  C_9
REMARK    4  A    between atoms: C_9  and  C_10
REMARK    5  A    between atoms: C_10  and  C_13
REMARK    6  A    between atoms: C_17  and  C_18
REMARK    7  A    between atoms: C_18  and  C_19
REMARK                            x       y       z     vdW  Elec       q    Type
REMARK                         _______ _______ _______ _____ _____    ______ ____
ROOT
ATOM      1  C   UNL     1      46.826   5.869  13.118  0.00  0.00    +0.000 C 
ENDROOT
BRANCH   1   2
ATOM      2  C   UNL     1      45.566   6.221  12.285  0.00  0.00    +0.000 C 
ATOM      3  F   UNL     1      44.599   6.713  13.114  0.00  0.00    +0.000 F 
ATOM      4  F   UNL     1      45.883   7.254  11.445  0.00  0.00    +0.000 F 
BRANCH   2   5
ATOM      5  C   UNL     1      45.110   4.984  11.541  0.00  0.00    +0.000 A 
ATOM      6  C   UNL     1      44.425   3.960  12.205  0.00  0.00    +0.000 A 
ATOM      7  C   UNL     1      43.928   2.867  11.492  0.00  0.00    +0.000 A 
ATOM      8  C   UNL     1      44.107   2.795  10.110  0.00  0.00    +0.000 A 
ATOM      9  C   UNL     1      44.799   3.800   9.426  0.00  0.00    +0.000 A 
ATOM     10  C   UNL     1      45.303   4.888  10.151  0.00  0.00    +0.000 A 
BRANCH   9  11
ATOM     11  C   UNL     1      44.998   3.721   7.932  0.00  0.00    +0.000 C 
BRANCH  11  12
ATOM     12  C   UNL     1      46.406   3.239   7.588  0.00  0.00    +0.000 C 
ATOM     13  C   UNL     1      46.689   3.195   6.067  0.00  0.00    +0.000 C 
ATOM     14  C   UNL     1      47.312   1.804   6.237  0.00  0.00    +0.000 C 
ATOM     15  C   UNL     1      46.683   1.714   7.633  0.00  0.00    +0.000 C 
ENDBRANCH  11  12
ENDBRANCH   9  11
ENDBRANCH   2   5
ENDBRANCH   1   2
BRANCH   1  16
ATOM     16  N   UNL     1      47.440   7.033  13.775  0.00  0.00    +0.000 N 
ATOM     17  H   UNL     1      46.788   7.783  14.000  0.00  0.00    +0.000 HD
BRANCH  16  21
ATOM     18  C   UNL     1      51.174   8.521  12.510  0.00  0.00    +0.000 A 
ATOM     19  C   UNL     1      50.830   8.593  13.861  0.00  0.00    +0.000 A 
ATOM     20  C   UNL     1      49.601   8.085  14.298  0.00  0.00    +0.000 A 
ATOM     21  C   UNL     1      48.709   7.471  13.410  0.00  0.00    +0.000 A 
ATOM     22  C   UNL     1      49.060   7.431  12.055  0.00  0.00    +0.000 A 
ATOM     23  C   UNL     1      50.277   7.953  11.603  0.00  0.00    +0.000 A 
BRANCH  18  25
ATOM     24  N   UNL     1      53.166   9.877  12.843  0.00  0.00    +0.000 N 
ATOM     25  C   UNL     1      52.455   9.066  12.001  0.00  0.00    +0.000 C 
ATOM     26  O   UNL     1      52.887   8.780  10.892  0.00  0.00    +0.000 OA
ATOM     27  H   UNL     1      54.088  10.148  12.528  0.00  0.00    +0.000 HD
ATOM     28  H   UNL     1      52.976   9.920  13.834  0.00  0.00    +0.000 HD
ENDBRANCH  18  25
ENDBRANCH  16  21
ENDBRANCH   1  16
TORSDOF 7
ENDMDL
