MODEL 1
REMARK VINA RESULT:    -8.622      0.000      0.000
REMARK INTER + INTRA:         -10.707
REMARK INTER:                 -10.135
REMARK INTRA:                  -0.573
REMARK UNBOUND:                -0.573
REMARK  Name = 
REMARK  3 active torsions:
REMARK  status: ('A' for Active; 'I' for Inactive)
REMARK    1  A    between atoms: C_2  and  C_4
REMARK    2  A    between atoms: N_8  and  C_9
REMARK    3  A    between atoms: C_9  and  C_10
REMARK                            x       y       z     vdW  Elec       q    Type
REMARK                         _______ _______ _______ _____ _____    ______ ____
ROOT
ATOM      1  C   UNL     1      46.539   2.678   7.494  0.00  0.00    +0.000 A 
ATOM      2  C   UNL     1      46.168   4.016   7.605  0.00  0.00    +0.000 A 
ATOM      3  C   UNL     1      45.301   4.402   8.630  0.00  0.00    +0.000 A 
ATOM      4  C   UNL     1      44.818   3.449   9.516  0.00  0.00    +0.000 A 
ATOM      5  N   UNL     1      43.879   3.730  10.512  0.00  0.00    +0.000 N 
ATOM      6  N   UNL     1      45.159   2.146   9.409  0.00  0.00    +0.000 NA
ATOM      7  C   UNL     1      46.003   1.786   8.404  0.00  0.00    +0.000 A 
ATOM      8  H   UNL     1      43.771   2.859  11.031  0.00  0.00    +0.000 HD
ENDROOT
BRANCH   1  10
ATOM      9  N   UNL     1      47.740   3.036   5.415  0.00  0.00    +0.000 N 
ATOM     10  C   UNL     1      47.444   2.177   6.440  0.00  0.00    +0.000 C 
ATOM     11  O   UNL     1      47.934   1.059   6.493  0.00  0.00    +0.000 OA
ATOM     12  H   UNL     1      48.436   2.721   4.752  0.00  0.00    +0.000 HD
ATOM     13  H   UNL     1      47.564   4.028   5.470  0.00  0.00    +0.000 HD
ENDBRANCH   1  10
BRANCH   5  14
ATOM     14  C   UNL     1      43.860   4.958  11.325  0.00  0.00    +0.000 C 
ATOM     15  C   UNL     1      42.574   5.150  12.124  0.00  0.00    +0.000 C 
ATOM     16  C   UNL     1      42.933   6.128  11.057  0.00  0.00    +0.000 C 
BRANCH  14  17
ATOM     17  C   UNL     1      45.193   5.247  12.013  0.00  0.00    +0.000 A 
ATOM     18  C   UNL     1      46.030   6.297  11.587  0.00  0.00    +0.000 A 
ATOM     19  C   UNL     1      47.212   6.614  12.262  0.00  0.00    +0.000 A 
ATOM     20  C   UNL     1      47.585   5.887  13.389  0.00  0.00    +0.000 A 
ATOM     21  C   UNL     1      46.783   4.836  13.820  0.00  0.00    +0.000 A 
ATOM     22 CL   UNL     1      47.234   3.935  15.217  0.00  0.00    +0.000 Cl
ATOM     23  C   UNL     1      45.606   4.514  13.141  0.00  0.00    +0.000 A 
ENDBRANCH  14  17
ENDBRANCH   5  14
TORSDOF 3
ENDMDL
MODEL 2
REMARK VINA RESULT:    -6.811      3.942      6.354
REMARK INTER + INTRA:          -8.579
REMARK INTER:                  -8.314
REMARK INTRA:                  -0.265
REMARK UNBOUND:                -0.573
REMARK  Name = 
REMARK  3 active torsions:
REMARK  status: ('A' for Active; 'I' for Inactive)
REMARK    1  A    between atoms: C_2  and  C_4
REMARK    2  A    between atoms: N_8  and  C_9
REMARK    3  A    between atoms: C_9  and  C_10
REMARK                            x       y       z     vdW  Elec       q    Type
REMARK                         _______ _______ _______ _____ _____    ______ ____
ROOT
ATOM      1  C   UNL     1      47.975   6.729  13.685  0.00  0.00    +0.000 A 
ATOM      2  C   UNL     1      47.296   5.559  14.016  0.00  0.00    +0.000 A 
ATOM      3  C   UNL     1      46.326   5.061  13.142  0.00  0.00    +0.000 A 
ATOM      4  C   UNL     1      46.050   5.742  11.964  0.00  0.00    +0.000 A 
ATOM      5  N   UNL     1      45.037   5.367  11.078  0.00  0.00    +0.000 N 
ATOM      6  N   UNL     1      46.693   6.886  11.639  0.00  0.00    +0.000 NA
ATOM      7  C   UNL     1      47.632   7.358  12.503  0.00  0.00    +0.000 A 
ATOM      8  H   UNL     1      45.118   6.009  10.291  0.00  0.00    +0.000 HD
ENDROOT
BRANCH   1  10
ATOM      9  N   UNL     1      50.288   7.363  14.060  0.00  0.00    +0.000 N 
ATOM     10  C   UNL     1      49.010   7.332  14.549  0.00  0.00    +0.000 C 
ATOM     11  O   UNL     1      48.735   7.812  15.639  0.00  0.00    +0.000 OA
ATOM     12  H   UNL     1      50.969   7.864  14.614  0.00  0.00    +0.000 HD
ATOM     13  H   UNL     1      50.499   7.214  13.085  0.00  0.00    +0.000 HD
ENDBRANCH   1  10
BRANCH   5  14
ATOM     14  C   UNL     1      44.699   3.976  10.728  0.00  0.00    +0.000 C 
ATOM     15  C   UNL     1      43.245   3.605  11.003  0.00  0.00    +0.000 C 
ATOM     16  C   UNL     1      44.336   2.917  11.751  0.00  0.00    +0.000 C 
BRANCH  14  17
ATOM     17  C   UNL     1      45.332   3.514   9.416  0.00  0.00    +0.000 A 
ATOM     18  C   UNL     1      45.744   4.433   8.432  0.00  0.00    +0.000 A 
ATOM     19  C   UNL     1      46.393   4.019   7.265  0.00  0.00    +0.000 A 
ATOM     20  C   UNL     1      46.651   2.667   7.057  0.00  0.00    +0.000 A 
ATOM     21  C   UNL     1      46.241   1.738   8.008  0.00  0.00    +0.000 A 
ATOM     22 CL   UNL     1      46.562   0.064   7.761  0.00  0.00    +0.000 Cl
ATOM     23  C   UNL     1      45.585   2.152   9.169  0.00  0.00    +0.000 A 
ENDBRANCH  14  17
ENDBRANCH   5  14
TORSDOF 3
ENDMDL
MODEL 3
REMARK VINA RESULT:    -6.384      3.891      6.060
REMARK INTER + INTRA:          -8.077
REMARK INTER:                  -7.626
REMARK INTRA:                  -0.450
REMARK UNBOUND:                -0.573
REMARK  Name = 
REMARK  3 active torsions:
REMARK  status: ('A' for Active; 'I' for Inactive)
REMARK    1  A    between atoms: C_2  and  C_4
REMARK    2  A    between atoms: N_8  and  C_9
REMARK    3  A    between atoms: C_9  and  C_10
REMARK                            x       y       z     vdW  Elec       q    Type
REMARK                         _______ _______ _______ _____ _____    ______ ____
ROOT
ATOM      1  C   UNL     1      48.495   7.070  13.196  0.00  0.00    +0.000 A 
ATOM      2  C   UNL     1      47.653   6.174  13.849  0.00  0.00    +0.000 A 
ATOM      3  C   UNL     1      46.367   5.956  13.347  0.00  0.00    +0.000 A 
ATOM      4  C   UNL     1      45.948   6.638  12.213  0.00  0.00    +0.000 A 
ATOM      5  N   UNL     1      44.653   6.549  11.697  0.00  0.00    +0.000 N 
ATOM      6  N   UNL     1      46.752   7.521  11.580  0.00  0.00    +0.000 NA
ATOM      7  C   UNL     1      48.000   7.723  12.083  0.00  0.00    +0.000 A 
ATOM      8  H   UNL     1      44.667   7.103  10.842  0.00  0.00    +0.000 HD
ENDROOT
BRANCH   1  10
ATOM      9  N   UNL     1      50.778   7.736  12.702  0.00  0.00    +0.000 N 
ATOM     10  C   UNL     1      49.866   7.369  13.657  0.00  0.00    +0.000 C 
ATOM     11  O   UNL     1      50.170   7.324  14.839  0.00  0.00    +0.000 OA
ATOM     12  H   UNL     1      51.684   8.033  13.037  0.00  0.00    +0.000 HD
ATOM     13  H   UNL     1      50.504   8.026  11.775  0.00  0.00    +0.000 HD
ENDBRANCH   1  10
BRANCH   5  14
ATOM     14  C   UNL     1      43.856   5.312  11.636  0.00  0.00    +0.000 C 
ATOM     15  C   UNL     1      42.349   5.542  11.712  0.00  0.00    +0.000 C 
ATOM     16  C   UNL     1      43.036   4.782  12.797  0.00  0.00    +0.000 C 
BRANCH  14  17
ATOM     17  C   UNL     1      44.387   4.302  10.619  0.00  0.00    +0.000 A 
ATOM     18  C   UNL     1      44.007   2.946  10.659  0.00  0.00    +0.000 A 
ATOM     19  C   UNL     1      44.428   2.036   9.685  0.00  0.00    +0.000 A 
ATOM     20  C   UNL     1      45.240   2.465   8.639  0.00  0.00    +0.000 A 
ATOM     21  C   UNL     1      45.641   3.796   8.586  0.00  0.00    +0.000 A 
ATOM     22 CL   UNL     1      46.640   4.336   7.291  0.00  0.00    +0.000 Cl
ATOM     23  C   UNL     1      45.226   4.703   9.563  0.00  0.00    +0.000 A 
ENDBRANCH  14  17
ENDBRANCH   5  14
TORSDOF 3
ENDMDL
