MODEL 1
REMARK VINA RESULT:    -7.587      0.000      0.000
REMARK INTER + INTRA:         -12.229
REMARK INTER:                 -11.357
REMARK INTRA:                  -0.872
REMARK UNBOUND:                -0.872
REMARK  Name = 
REMARK  12 active torsions:
REMARK  status: ('A' for Active; 'I' for Inactive)
REMARK    1  A    between atoms: C_1  and  C_2
REMARK    2  A    between atoms: C_2  and  C_3
REMARK    3  A    between atoms: C_2  and  C_4
REMARK    4  A    between atoms: C_2  and  C_19
REMARK    5  A    between atoms: C_4  and  N_5
REMARK    6  A    between atoms: N_5  and  C_6
REMARK    7  A    between atoms: C_9  and  C_10
REMARK    8  A    between atoms: C_10  and  C_11
REMARK    9  A    between atoms: C_10  and  O_12
REMARK   10  A    between atoms: C_10  and  C_13
REMARK   11  A    between atoms: C_23  and  O_24
REMARK   12  A    between atoms: O_24  and  C_25
REMARK                            x       y       z     vdW  Elec       q    Type
REMARK                         _______ _______ _______ _____ _____    ______ ____
ROOT
ATOM      1  N   UNL     1      46.421   5.634  12.347  0.00  0.00    +0.000 N 
ATOM      2  H   UNL     1      47.154   5.921  11.701  0.00  0.00    +0.000 HD
ENDROOT
BRANCH   1   3
ATOM      3  C   UNL     1      46.964   5.361  13.615  0.00  0.00    +0.000 A 
ATOM      4  C   UNL     1      47.833   6.225  14.282  0.00  0.00    +0.000 A 
ATOM      5  C   UNL     1      48.290   5.935  15.567  0.00  0.00    +0.000 A 
ATOM      6  C   UNL     1      47.846   4.783  16.204  0.00  0.00    +0.000 A 
ATOM      7  N   UNL     1      46.958   3.938  15.610  0.00  0.00    +0.000 NA
ATOM      8  C   UNL     1      46.543   4.252  14.354  0.00  0.00    +0.000 A 
BRANCH   6   9
ATOM      9  C   UNL     1      48.268   4.437  17.630  0.00  0.00    +0.000 C 
ATOM     10  C   UNL     1      48.108   5.677  18.523  0.00  0.00    +0.000 C 
BRANCH   9  11
ATOM     11  C   UNL     1      49.726   3.890  17.687  0.00  0.00    +0.000 C 
ATOM     12  F   UNL     1      49.891   2.737  16.993  0.00  0.00    +0.000 F 
ATOM     13  F   UNL     1      50.613   4.774  17.158  0.00  0.00    +0.000 F 
ATOM     14  F   UNL     1      50.137   3.638  18.953  0.00  0.00    +0.000 F 
ENDBRANCH   9  11
BRANCH   9  15
ATOM     15  O   UNL     1      47.315   3.479  18.170  0.00  0.00    +0.000 OA
ATOM     16  H   UNL     1      46.769   3.204  17.402  0.00  0.00    +0.000 HD
ENDBRANCH   9  15
ENDBRANCH   6   9
ENDBRANCH   1   3
BRANCH   1  17
ATOM     17  C   UNL     1      45.244   6.513  12.304  0.00  0.00    +0.000 C 
BRANCH  17  19
ATOM     18  C   UNL     1      43.188   5.164  12.939  0.00  0.00    +0.000 C 
ATOM     19  C   UNL     1      43.943   5.837  11.769  0.00  0.00    +0.000 C 
ATOM     20  C   UNL     1      43.039   6.929  11.147  0.00  0.00    +0.000 C 
BRANCH  19  21
ATOM     21  C   UNL     1      44.256   4.758  10.703  0.00  0.00    +0.000 A 
ATOM     22  C   UNL     1      43.819   3.442  10.881  0.00  0.00    +0.000 A 
ATOM     23  N   UNL     1      44.085   2.415  10.043  0.00  0.00    +0.000 NA
ATOM     24  C   UNL     1      44.822   2.703   8.950  0.00  0.00    +0.000 A 
ATOM     25  C   UNL     1      45.287   3.970   8.638  0.00  0.00    +0.000 A 
ATOM     26  C   UNL     1      44.998   5.007   9.525  0.00  0.00    +0.000 A 
BRANCH  25  27
ATOM     27  O   UNL     1      46.033   4.077   7.495  0.00  0.00    +0.000 OA
BRANCH  27  28
ATOM     28  C   UNL     1      46.428   2.885   6.786  0.00  0.00    +0.000 C 
ATOM     29  C   UNL     1      47.887   2.393   6.978  0.00  0.00    +0.000 C 
ATOM     30  C   UNL     1      47.914   2.071   5.472  0.00  0.00    +0.000 C 
ATOM     31  C   UNL     1      46.809   3.128   5.299  0.00  0.00    +0.000 C 
ENDBRANCH  27  28
ENDBRANCH  25  27
ENDBRANCH  19  21
ENDBRANCH  17  19
ENDBRANCH   1  17
TORSDOF 9
ENDMDL
MODEL 2
REMARK VINA RESULT:    -7.458      1.326      1.973
REMARK INTER + INTRA:         -12.035
REMARK INTER:                 -11.103
REMARK INTRA:                  -0.933
REMARK UNBOUND:                -0.872
REMARK  Name = 
REMARK  12 active torsions:
REMARK  status: ('A' for Active; 'I' for Inactive)
REMARK    1  A    between atoms: C_1  and  C_2
REMARK    2  A    between atoms: C_2  and  C_3
REMARK    3  A    between atoms: C_2  and  C_4
REMARK    4  A    between atoms: C_2  and  C_19
REMARK    5  A    between atoms: C_4  and  N_5
REMARK    6  A    between atoms: N_5  and  C_6
REMARK    7  A    between atoms: C_9  and  C_10
REMARK    8  A    between atoms: C_10  and  C_11
REMARK    9  A    between atoms: C_10  and  O_12
REMARK   10  A    between atoms: C_10  and  C_13
REMARK   11  A    between atoms: C_23  and  O_24
REMARK   12  A    between atoms: O_24  and  C_25
REMARK                            x       y       z     vdW  Elec       q    Type
REMARK                         _______ _______ _______ _____ _____    ______ ____
ROOT
ATOM      1  N   UNL     1      47.012   4.896  13.719  0.00  0.00    +0.000 N 
ATOM      2  H   UNL     1      47.766   5.011  13.044  0.00  0.00    +0.000 HD
ENDROOT
BRANCH   1   3
ATOM      3  C   UNL     1      47.524   4.887  15.029  0.00  0.00    +0.000 A 
ATOM      4  C   UNL     1      48.225   5.956  15.588  0.00  0.00    +0.000 A 
ATOM      5  C   UNL     1      48.654   5.920  16.914  0.00  0.00    +0.000 A 
ATOM      6  C   UNL     1      48.348   4.814  17.699  0.00  0.00    +0.000 A 
ATOM      7  N   UNL     1      47.623   3.772  17.209  0.00  0.00    +0.000 NA
ATOM      8  C   UNL     1      47.230   3.842  15.908  0.00  0.00    +0.000 A 
BRANCH   6   9
ATOM      9  C   UNL     1      48.743   4.738  19.172  0.00  0.00    +0.000 C 
ATOM     10  C   UNL     1      47.922   5.760  19.973  0.00  0.00    +0.000 C 
BRANCH   9  11
ATOM     11  C   UNL     1      50.271   4.965  19.375  0.00  0.00    +0.000 C 
ATOM     12  F   UNL     1      50.643   6.262  19.227  0.00  0.00    +0.000 F 
ATOM     13  F   UNL     1      50.670   4.604  20.624  0.00  0.00    +0.000 F 
ATOM     14  F   UNL     1      51.024   4.250  18.506  0.00  0.00    +0.000 F 
ENDBRANCH   9  11
BRANCH   9  15
ATOM     15  O   UNL     1      48.319   3.447  19.693  0.00  0.00    +0.000 OA
ATOM     16  H   UNL     1      48.800   3.346  20.543  0.00  0.00    +0.000 HD
ENDBRANCH   9  15
ENDBRANCH   6   9
ENDBRANCH   1   3
BRANCH   1  17
ATOM     17  C   UNL     1      45.870   5.784  13.459  0.00  0.00    +0.000 C 
BRANCH  17  19
ATOM     18  C   UNL     1      44.921   7.631  11.999  0.00  0.00    +0.000 C 
ATOM     19  C   UNL     1      45.813   6.368  12.013  0.00  0.00    +0.000 C 
ATOM     20  C   UNL     1      47.247   6.758  11.580  0.00  0.00    +0.000 C 
BRANCH  19  21
ATOM     21  C   UNL     1      45.229   5.346  11.006  0.00  0.00    +0.000 A 
ATOM     22  C   UNL     1      44.257   4.427  11.416  0.00  0.00    +0.000 A 
ATOM     23  N   UNL     1      43.724   3.461  10.636  0.00  0.00    +0.000 NA
ATOM     24  C   UNL     1      44.169   3.398   9.363  0.00  0.00    +0.000 A 
ATOM     25  C   UNL     1      45.101   4.269   8.822  0.00  0.00    +0.000 A 
ATOM     26  C   UNL     1      45.634   5.253   9.655  0.00  0.00    +0.000 A 
BRANCH  25  27
ATOM     27  O   UNL     1      45.448   4.049   7.516  0.00  0.00    +0.000 OA
BRANCH  27  28
ATOM     28  C   UNL     1      46.722   3.447   7.207  0.00  0.00    +0.000 C 
ATOM     29  C   UNL     1      46.957   2.992   5.742  0.00  0.00    +0.000 C 
ATOM     30  C   UNL     1      47.650   1.736   6.306  0.00  0.00    +0.000 C 
ATOM     31  C   UNL     1      46.824   1.944   7.588  0.00  0.00    +0.000 C 
ENDBRANCH  27  28
ENDBRANCH  25  27
ENDBRANCH  19  21
ENDBRANCH  17  19
ENDBRANCH   1  17
TORSDOF 9
ENDMDL
MODEL 3
REMARK VINA RESULT:    -7.326      1.559      2.036
REMARK INTER + INTRA:         -11.838
REMARK INTER:                 -10.953
REMARK INTRA:                  -0.885
REMARK UNBOUND:                -0.872
REMARK  Name = 
REMARK  12 active torsions:
REMARK  status: ('A' for Active; 'I' for Inactive)
REMARK    1  A    between atoms: C_1  and  C_2
REMARK    2  A    between atoms: C_2  and  C_3
REMARK    3  A    between atoms: C_2  and  C_4
REMARK    4  A    between atoms: C_2  and  C_19
REMARK    5  A    between atoms: C_4  and  N_5
REMARK    6  A    between atoms: N_5  and  C_6
REMARK    7  A    between atoms: C_9  and  C_10
REMARK    8  A    between atoms: C_10  and  C_11
REMARK    9  A    between atoms: C_10  and  O_12
REMARK   10  A    between atoms: C_10  and  C_13
REMARK   11  A    between atoms: C_23  and  O_24
REMARK   12  A    between atoms: O_24  and  C_25
REMARK                            x       y       z     vdW  Elec       q    Type
REMARK                         _______ _______ _______ _____ _____    ______ ____
ROOT
ATOM      1  N   UNL     1      47.028   6.697  13.483  0.00  0.00    +0.000 N 
ATOM      2  H   UNL     1      46.267   7.320  13.747  0.00  0.00    +0.000 HD
ENDROOT
BRANCH   1   3
ATOM      3  C   UNL     1      47.546   6.047  14.617  0.00  0.00    +0.000 A 
ATOM      4  C   UNL     1      47.105   4.797  15.055  0.00  0.00    +0.000 A 
ATOM      5  C   UNL     1      47.700   4.169  16.149  0.00  0.00    +0.000 A 
ATOM      6  C   UNL     1      48.769   4.783  16.789  0.00  0.00    +0.000 A 
ATOM      7  N   UNL     1      49.264   5.978  16.363  0.00  0.00    +0.000 NA
ATOM      8  C   UNL     1      48.651   6.562  15.298  0.00  0.00    +0.000 A 
BRANCH   6   9
ATOM      9  C   UNL     1      49.496   4.121  17.958  0.00  0.00    +0.000 C 
ATOM     10  C   UNL     1      49.372   2.595  17.836  0.00  0.00    +0.000 C 
BRANCH   9  11
ATOM     11  C   UNL     1      48.958   4.619  19.333  0.00  0.00    +0.000 C 
ATOM     12  F   UNL     1      47.821   5.353  19.227  0.00  0.00    +0.000 F 
ATOM     13  F   UNL     1      48.656   3.582  20.158  0.00  0.00    +0.000 F 
ATOM     14  F   UNL     1      49.853   5.392  19.993  0.00  0.00    +0.000 F 
ENDBRANCH   9  11
BRANCH   9  15
ATOM     15  O   UNL     1      50.921   4.380  17.815  0.00  0.00    +0.000 OA
ATOM     16  H   UNL     1      51.255   3.655  17.244  0.00  0.00    +0.000 HD
ENDBRANCH   9  15
ENDBRANCH   6   9
ENDBRANCH   1   3
BRANCH   1  17
ATOM     17  C   UNL     1      46.701   5.853  12.325  0.00  0.00    +0.000 C 
BRANCH  17  19
ATOM     18  C   UNL     1      44.282   5.684  13.078  0.00  0.00    +0.000 C 
ATOM     19  C   UNL     1      45.211   5.923  11.865  0.00  0.00    +0.000 C 
ATOM     20  C   UNL     1      44.937   7.333  11.289  0.00  0.00    +0.000 C 
BRANCH  19  21
ATOM     21  C   UNL     1      44.895   4.854  10.789  0.00  0.00    +0.000 A 
ATOM     22  C   UNL     1      44.183   3.700  11.128  0.00  0.00    +0.000 A 
ATOM     23  N   UNL     1      43.902   2.683  10.282  0.00  0.00    +0.000 NA
ATOM     24  C   UNL     1      44.344   2.815   9.013  0.00  0.00    +0.000 A 
ATOM     25  C   UNL     1      45.029   3.922   8.540  0.00  0.00    +0.000 A 
ATOM     26  C   UNL     1      45.305   4.951   9.439  0.00  0.00    +0.000 A 
BRANCH  25  27
ATOM     27  O   UNL     1      45.414   3.879   7.226  0.00  0.00    +0.000 OA
BRANCH  27  28
ATOM     28  C   UNL     1      46.761   3.489   6.889  0.00  0.00    +0.000 C 
ATOM     29  C   UNL     1      47.014   2.979   5.445  0.00  0.00    +0.000 C 
ATOM     30  C   UNL     1      47.941   1.908   6.050  0.00  0.00    +0.000 C 
ATOM     31  C   UNL     1      47.144   2.058   7.357  0.00  0.00    +0.000 C 
ENDBRANCH  27  28
ENDBRANCH  25  27
ENDBRANCH  19  21
ENDBRANCH  17  19
ENDBRANCH   1  17
TORSDOF 9
ENDMDL
MODEL 4
REMARK VINA RESULT:    -6.922      4.014      8.463
REMARK INTER + INTRA:         -11.234
REMARK INTER:                  -9.683
REMARK INTRA:                  -1.551
REMARK UNBOUND:                -0.872
REMARK  Name = 
REMARK  12 active torsions:
REMARK  status: ('A' for Active; 'I' for Inactive)
REMARK    1  A    between atoms: C_1  and  C_2
REMARK    2  A    between atoms: C_2  and  C_3
REMARK    3  A    between atoms: C_2  and  C_4
REMARK    4  A    between atoms: C_2  and  C_19
REMARK    5  A    between atoms: C_4  and  N_5
REMARK    6  A    between atoms: N_5  and  C_6
REMARK    7  A    between atoms: C_9  and  C_10
REMARK    8  A    between atoms: C_10  and  C_11
REMARK    9  A    between atoms: C_10  and  O_12
REMARK   10  A    between atoms: C_10  and  C_13
REMARK   11  A    between atoms: C_23  and  O_24
REMARK   12  A    between atoms: O_24  and  C_25
REMARK                            x       y       z     vdW  Elec       q    Type
REMARK                         _______ _______ _______ _____ _____    ______ ____
ROOT
ATOM      1  N   UNL     1      46.790   8.600  13.834  0.00  0.00    +0.000 N 
ATOM      2  H   UNL     1      46.028   9.106  14.281  0.00  0.00    +0.000 HD
ENDROOT
BRANCH   1   3
ATOM      3  C   UNL     1      46.284   7.589  12.997  0.00  0.00    +0.000 A 
ATOM      4  C   UNL     1      46.623   6.242  13.126  0.00  0.00    +0.000 A 
ATOM      5  C   UNL     1      46.040   5.273  12.310  0.00  0.00    +0.000 A 
ATOM      6  C   UNL     1      45.082   5.654  11.378  0.00  0.00    +0.000 A 
ATOM      7  N   UNL     1      44.684   6.950  11.255  0.00  0.00    +0.000 NA
ATOM      8  C   UNL     1      45.282   7.866  12.063  0.00  0.00    +0.000 A 
BRANCH   6   9
ATOM      9  C   UNL     1      44.370   4.633  10.494  0.00  0.00    +0.000 C 
ATOM     10  C   UNL     1      44.104   3.354  11.303  0.00  0.00    +0.000 C 
BRANCH   9  11
ATOM     11  C   UNL     1      45.181   4.320   9.200  0.00  0.00    +0.000 C 
ATOM     12  F   UNL     1      44.415   4.307   8.080  0.00  0.00    +0.000 F 
ATOM     13  F   UNL     1      46.149   5.247   8.980  0.00  0.00    +0.000 F 
ATOM     14  F   UNL     1      45.800   3.117   9.255  0.00  0.00    +0.000 F 
ENDBRANCH   9  11
BRANCH   9  15
ATOM     15  O   UNL     1      43.043   5.145  10.183  0.00  0.00    +0.000 OA
ATOM     16  H   UNL     1      42.469   4.350  10.131  0.00  0.00    +0.000 HD
ENDBRANCH   9  15
ENDBRANCH   6   9
ENDBRANCH   1   3
BRANCH   1  17
ATOM     17  C   UNL     1      47.809   9.490  13.260  0.00  0.00    +0.000 C 
BRANCH  17  19
ATOM     18  C   UNL     1      49.819   8.132  12.509  0.00  0.00    +0.000 C 
ATOM     19  C   UNL     1      49.282   9.098  13.592  0.00  0.00    +0.000 C 
ATOM     20  C   UNL     1      50.146  10.382  13.596  0.00  0.00    +0.000 C 
BRANCH  19  21
ATOM     21  C   UNL     1      49.391   8.397  14.969  0.00  0.00    +0.000 A 
ATOM     22  C   UNL     1      49.376   9.151  16.147  0.00  0.00    +0.000 A 
ATOM     23  N   UNL     1      49.519   8.648  17.393  0.00  0.00    +0.000 NA
ATOM     24  C   UNL     1      49.678   7.310  17.489  0.00  0.00    +0.000 A 
ATOM     25  C   UNL     1      49.675   6.448  16.405  0.00  0.00    +0.000 A 
ATOM     26  C   UNL     1      49.528   7.000  15.133  0.00  0.00    +0.000 A 
BRANCH  25  27
ATOM     27  O   UNL     1      49.863   5.121  16.687  0.00  0.00    +0.000 OA
BRANCH  27  28
ATOM     28  C   UNL     1      48.906   4.422  17.507  0.00  0.00    +0.000 C 
ATOM     29  C   UNL     1      48.908   2.871  17.439  0.00  0.00    +0.000 C 
ATOM     30  C   UNL     1      47.369   2.927  17.473  0.00  0.00    +0.000 C 
ATOM     31  C   UNL     1      47.478   4.349  16.896  0.00  0.00    +0.000 C 
ENDBRANCH  27  28
ENDBRANCH  25  27
ENDBRANCH  19  21
ENDBRANCH  17  19
ENDBRANCH   1  17
TORSDOF 9
ENDMDL
MODEL 5
REMARK VINA RESULT:    -6.824      2.453      4.199
REMARK INTER + INTRA:         -11.087
REMARK INTER:                  -9.709
REMARK INTRA:                  -1.378
REMARK UNBOUND:                -0.872
REMARK  Name = 
REMARK  12 active torsions:
REMARK  status: ('A' for Active; 'I' for Inactive)
REMARK    1  A    between atoms: C_1  and  C_2
REMARK    2  A    between atoms: C_2  and  C_3
REMARK    3  A    between atoms: C_2  and  C_4
REMARK    4  A    between atoms: C_2  and  C_19
REMARK    5  A    between atoms: C_4  and  N_5
REMARK    6  A    between atoms: N_5  and  C_6
REMARK    7  A    between atoms: C_9  and  C_10
REMARK    8  A    between atoms: C_10  and  C_11
REMARK    9  A    between atoms: C_10  and  O_12
REMARK   10  A    between atoms: C_10  and  C_13
REMARK   11  A    between atoms: C_23  and  O_24
REMARK   12  A    between atoms: O_24  and  C_25
REMARK                            x       y       z     vdW  Elec       q    Type
REMARK                         _______ _______ _______ _____ _____    ______ ____
ROOT
ATOM      1  N   UNL     1      50.244   7.863  14.092  0.00  0.00    +0.000 N 
ATOM      2  H   UNL     1      51.171   8.227  14.306  0.00  0.00    +0.000 HD
ENDROOT
BRANCH   1   3
ATOM      3  C   UNL     1      49.770   7.073  15.155  0.00  0.00    +0.000 A 
ATOM      4  C   UNL     1      50.260   7.162  16.458  0.00  0.00    +0.000 A 
ATOM      5  C   UNL     1      49.708   6.400  17.487  0.00  0.00    +0.000 A 
ATOM      6  C   UNL     1      48.631   5.566  17.215  0.00  0.00    +0.000 A 
ATOM      7  N   UNL     1      48.088   5.488  15.969  0.00  0.00    +0.000 NA
ATOM      8  C   UNL     1      48.660   6.240  14.991  0.00  0.00    +0.000 A 
BRANCH   6   9
ATOM      9  C   UNL     1      47.949   4.748  18.309  0.00  0.00    +0.000 C 
ATOM     10  C   UNL     1      48.468   5.201  19.682  0.00  0.00    +0.000 C 
BRANCH   9  11
ATOM     11  C   UNL     1      48.161   3.217  18.107  0.00  0.00    +0.000 C 
ATOM     12  F   UNL     1      48.211   2.527  19.274  0.00  0.00    +0.000 F 
ATOM     13  F   UNL     1      47.151   2.662  17.388  0.00  0.00    +0.000 F 
ATOM     14  F   UNL     1      49.309   2.935  17.446  0.00  0.00    +0.000 F 
ENDBRANCH   9  11
BRANCH   9  15
ATOM     15  O   UNL     1      46.535   5.095  18.326  0.00  0.00    +0.000 OA
ATOM     16  H   UNL     1      46.492   6.002  17.955  0.00  0.00    +0.000 HD
ENDBRANCH   9  15
ENDBRANCH   6   9
ENDBRANCH   1   3
BRANCH   1  17
ATOM     17  C   UNL     1      49.332   8.893  13.572  0.00  0.00    +0.000 C 
BRANCH  17  19
ATOM     18  C   UNL     1      48.813  10.020  11.357  0.00  0.00    +0.000 C 
ATOM     19  C   UNL     1      48.861   8.665  12.102  0.00  0.00    +0.000 C 
ATOM     20  C   UNL     1      49.876   7.736  11.396  0.00  0.00    +0.000 C 
BRANCH  19  21
ATOM     21  C   UNL     1      47.450   8.027  12.047  0.00  0.00    +0.000 A 
ATOM     22  C   UNL     1      46.323   8.772  12.405  0.00  0.00    +0.000 A 
ATOM     23  N   UNL     1      45.058   8.298  12.446  0.00  0.00    +0.000 NA
ATOM     24  C   UNL     1      44.888   7.004  12.100  0.00  0.00    +0.000 A 
ATOM     25  C   UNL     1      45.914   6.167  11.692  0.00  0.00    +0.000 A 
ATOM     26  C   UNL     1      47.207   6.687  11.665  0.00  0.00    +0.000 A 
BRANCH  25  27
ATOM     27  O   UNL     1      45.561   4.878  11.393  0.00  0.00    +0.000 OA
BRANCH  27  28
ATOM     28  C   UNL     1      44.811   4.603  10.193  0.00  0.00    +0.000 C 
ATOM     29  C   UNL     1      44.642   3.115   9.784  0.00  0.00    +0.000 C 
ATOM     30  C   UNL     1      44.868   3.552   8.324  0.00  0.00    +0.000 C 
ATOM     31  C   UNL     1      45.628   4.769   8.881  0.00  0.00    +0.000 C 
ENDBRANCH  27  28
ENDBRANCH  25  27
ENDBRANCH  19  21
ENDBRANCH  17  19
ENDBRANCH   1  17
TORSDOF 9
ENDMDL
MODEL 6
REMARK VINA RESULT:    -6.820      3.937      8.588
REMARK INTER + INTRA:         -11.081
REMARK INTER:                  -9.955
REMARK INTRA:                  -1.126
REMARK UNBOUND:                -0.872
REMARK  Name = 
REMARK  12 active torsions:
REMARK  status: ('A' for Active; 'I' for Inactive)
REMARK    1  A    between atoms: C_1  and  C_2
REMARK    2  A    between atoms: C_2  and  C_3
REMARK    3  A    between atoms: C_2  and  C_4
REMARK    4  A    between atoms: C_2  and  C_19
REMARK    5  A    between atoms: C_4  and  N_5
REMARK    6  A    between atoms: N_5  and  C_6
REMARK    7  A    between atoms: C_9  and  C_10
REMARK    8  A    between atoms: C_10  and  C_11
REMARK    9  A    between atoms: C_10  and  O_12
REMARK   10  A    between atoms: C_10  and  C_13
REMARK   11  A    between atoms: C_23  and  O_24
REMARK   12  A    between atoms: O_24  and  C_25
REMARK                            x       y       z     vdW  Elec       q    Type
REMARK                         _______ _______ _______ _____ _____    ______ ____
ROOT
ATOM      1  N   UNL     1      47.492   7.778  14.070  0.00  0.00    +0.000 N 
ATOM      2  H   UNL     1      47.259   8.758  13.922  0.00  0.00    +0.000 HD
ENDROOT
BRANCH   1   3
ATOM      3  C   UNL     1      46.758   6.962  13.191  0.00  0.00    +0.000 A 
ATOM      4  C   UNL     1      46.733   5.569  13.275  0.00  0.00    +0.000 A 
ATOM      5  C   UNL     1      45.935   4.812  12.418  0.00  0.00    +0.000 A 
ATOM      6  C   UNL     1      45.128   5.458  11.489  0.00  0.00    +0.000 A 
ATOM      7  N   UNL     1      45.083   6.817  11.408  0.00  0.00    +0.000 NA
ATOM      8  C   UNL     1      45.882   7.519  12.256  0.00  0.00    +0.000 A 
BRANCH   6   9
ATOM      9  C   UNL     1      44.193   4.688  10.560  0.00  0.00    +0.000 C 
ATOM     10  C   UNL     1      43.578   3.505  11.323  0.00  0.00    +0.000 C 
BRANCH   9  11
ATOM     11  C   UNL     1      44.925   4.204   9.272  0.00  0.00    +0.000 C 
ATOM     12  F   UNL     1      45.400   2.937   9.372  0.00  0.00    +0.000 F 
ATOM     13  F   UNL     1      44.096   4.207   8.194  0.00  0.00    +0.000 F 
ATOM     14  F   UNL     1      45.983   4.986   8.950  0.00  0.00    +0.000 F 
ENDBRANCH   9  11
BRANCH   9  15
ATOM     15  O   UNL     1      43.058   5.542  10.242  0.00  0.00    +0.000 OA
ATOM     16  H   UNL     1      43.299   5.981   9.399  0.00  0.00    +0.000 HD
ENDBRANCH   9  15
ENDBRANCH   6   9
ENDBRANCH   1   3
BRANCH   1  17
ATOM     17  C   UNL     1      48.940   7.539  14.145  0.00  0.00    +0.000 C 
BRANCH  17  19
ATOM     18  C   UNL     1      51.066   7.410  15.528  0.00  0.00    +0.000 C 
ATOM     19  C   UNL     1      49.584   7.851  15.532  0.00  0.00    +0.000 C 
ATOM     20  C   UNL     1      49.512   9.378  15.777  0.00  0.00    +0.000 C 
BRANCH  19  21
ATOM     21  C   UNL     1      48.855   7.109  16.680  0.00  0.00    +0.000 A 
ATOM     22  C   UNL     1      48.530   7.783  17.861  0.00  0.00    +0.000 A 
ATOM     23  N   UNL     1      47.947   7.218  18.942  0.00  0.00    +0.000 NA
ATOM     24  C   UNL     1      47.653   5.904  18.852  0.00  0.00    +0.000 A 
ATOM     25  C   UNL     1      47.890   5.130  17.727  0.00  0.00    +0.000 A 
ATOM     26  C   UNL     1      48.496   5.743  16.631  0.00  0.00    +0.000 A 
BRANCH  25  27
ATOM     27  O   UNL     1      47.542   3.809  17.817  0.00  0.00    +0.000 OA
BRANCH  27  28
ATOM     28  C   UNL     1      48.571   2.805  17.926  0.00  0.00    +0.000 C 
ATOM     29  C   UNL     1      50.041   3.298  18.008  0.00  0.00    +0.000 C 
ATOM     30  C   UNL     1      50.422   2.130  17.078  0.00  0.00    +0.000 C 
ATOM     31  C   UNL     1      48.968   2.152  16.572  0.00  0.00    +0.000 C 
ENDBRANCH  27  28
ENDBRANCH  25  27
ENDBRANCH  19  21
ENDBRANCH  17  19
ENDBRANCH   1  17
TORSDOF 9
ENDMDL
MODEL 7
REMARK VINA RESULT:    -6.710      3.981      8.882
REMARK INTER + INTRA:         -10.916
REMARK INTER:                  -9.733
REMARK INTRA:                  -1.183
REMARK UNBOUND:                -0.872
REMARK  Name = 
REMARK  12 active torsions:
REMARK  status: ('A' for Active; 'I' for Inactive)
REMARK    1  A    between atoms: C_1  and  C_2
REMARK    2  A    between atoms: C_2  and  C_3
REMARK    3  A    between atoms: C_2  and  C_4
REMARK    4  A    between atoms: C_2  and  C_19
REMARK    5  A    between atoms: C_4  and  N_5
REMARK    6  A    between atoms: N_5  and  C_6
REMARK    7  A    between atoms: C_9  and  C_10
REMARK    8  A    between atoms: C_10  and  C_11
REMARK    9  A    between atoms: C_10  and  O_12
REMARK   10  A    between atoms: C_10  and  C_13
REMARK   11  A    between atoms: C_23  and  O_24
REMARK   12  A    between atoms: O_24  and  C_25
REMARK                            x       y       z     vdW  Elec       q    Type
REMARK                         _______ _______ _______ _____ _____    ______ ____
ROOT
ATOM      1  N   UNL     1      47.704   7.700  14.094  0.00  0.00    +0.000 N 
ATOM      2  H   UNL     1      47.690   8.677  13.808  0.00  0.00    +0.000 HD
ENDROOT
BRANCH   1   3
ATOM      3  C   UNL     1      46.902   6.926  13.236  0.00  0.00    +0.000 A 
ATOM      4  C   UNL     1      46.819   5.535  13.308  0.00  0.00    +0.000 A 
ATOM      5  C   UNL     1      45.957   4.823  12.475  0.00  0.00    +0.000 A 
ATOM      6  C   UNL     1      45.146   5.514  11.583  0.00  0.00    +0.000 A 
ATOM      7  N   UNL     1      45.157   6.874  11.516  0.00  0.00    +0.000 NA
ATOM      8  C   UNL     1      46.017   7.531  12.340  0.00  0.00    +0.000 A 
BRANCH   6   9
ATOM      9  C   UNL     1      44.144   4.795  10.683  0.00  0.00    +0.000 C 
ATOM     10  C   UNL     1      43.437   3.692  11.486  0.00  0.00    +0.000 C 
BRANCH   9  11
ATOM     11  C   UNL     1      44.824   4.211   9.408  0.00  0.00    +0.000 C 
ATOM     12  F   UNL     1      44.009   4.205   8.324  0.00  0.00    +0.000 F 
ATOM     13  F   UNL     1      45.917   4.934   9.048  0.00  0.00    +0.000 F 
ATOM     14  F   UNL     1      45.242   2.935   9.580  0.00  0.00    +0.000 F 
ENDBRANCH   9  11
BRANCH   9  15
ATOM     15  O   UNL     1      43.081   5.730  10.343  0.00  0.00    +0.000 OA
ATOM     16  H   UNL     1      43.450   6.617  10.544  0.00  0.00    +0.000 HD
ENDBRANCH   9  15
ENDBRANCH   6   9
ENDBRANCH   1   3
BRANCH   1  17
ATOM     17  C   UNL     1      49.060   7.203  14.364  0.00  0.00    +0.000 C 
BRANCH  17  19
ATOM     18  C   UNL     1      51.018   7.912  15.816  0.00  0.00    +0.000 C 
ATOM     19  C   UNL     1      49.555   7.413  15.829  0.00  0.00    +0.000 C 
ATOM     20  C   UNL     1      48.663   8.484  16.502  0.00  0.00    +0.000 C 
BRANCH  19  21
ATOM     21  C   UNL     1      49.492   6.099  16.647  0.00  0.00    +0.000 A 
ATOM     22  C   UNL     1      48.259   5.507  16.938  0.00  0.00    +0.000 A 
ATOM     23  N   UNL     1      48.088   4.396  17.688  0.00  0.00    +0.000 NA
ATOM     24  C   UNL     1      49.207   3.821  18.178  0.00  0.00    +0.000 A 
ATOM     25  C   UNL     1      50.490   4.286  17.936  0.00  0.00    +0.000 A 
ATOM     26  C   UNL     1      50.630   5.437  17.161  0.00  0.00    +0.000 A 
BRANCH  25  27
ATOM     27  O   UNL     1      51.509   3.587  18.526  0.00  0.00    +0.000 OA
BRANCH  27  28
ATOM     28  C   UNL     1      52.318   2.698  17.730  0.00  0.00    +0.000 C 
ATOM     29  C   UNL     1      51.769   1.267  17.481  0.00  0.00    +0.000 C 
ATOM     30  C   UNL     1      53.204   0.745  17.686  0.00  0.00    +0.000 C 
ATOM     31  C   UNL     1      53.470   2.012  18.517  0.00  0.00    +0.000 C 
ENDBRANCH  27  28
ENDBRANCH  25  27
ENDBRANCH  19  21
ENDBRANCH  17  19
ENDBRANCH   1  17
TORSDOF 9
ENDMDL
MODEL 8
REMARK VINA RESULT:    -6.524      4.030      8.464
REMARK INTER + INTRA:         -10.638
REMARK INTER:                  -9.139
REMARK INTRA:                  -1.500
REMARK UNBOUND:                -0.872
REMARK  Name = 
REMARK  12 active torsions:
REMARK  status: ('A' for Active; 'I' for Inactive)
REMARK    1  A    between atoms: C_1  and  C_2
REMARK    2  A    between atoms: C_2  and  C_3
REMARK    3  A    between atoms: C_2  and  C_4
REMARK    4  A    between atoms: C_2  and  C_19
REMARK    5  A    between atoms: C_4  and  N_5
REMARK    6  A    between atoms: N_5  and  C_6
REMARK    7  A    between atoms: C_9  and  C_10
REMARK    8  A    between atoms: C_10  and  C_11
REMARK    9  A    between atoms: C_10  and  O_12
REMARK   10  A    between atoms: C_10  and  C_13
REMARK   11  A    between atoms: C_23  and  O_24
REMARK   12  A    between atoms: O_24  and  C_25
REMARK                            x       y       z     vdW  Elec       q    Type
REMARK                         _______ _______ _______ _____ _____    ______ ____
ROOT
ATOM      1  N   UNL     1      49.071   7.126  13.398  0.00  0.00    +0.000 N 
ATOM      2  H   UNL     1      49.724   6.472  13.826  0.00  0.00    +0.000 HD
ENDROOT
BRANCH   1   3
ATOM      3  C   UNL     1      47.882   6.467  13.037  0.00  0.00    +0.000 A 
ATOM      4  C   UNL     1      47.220   5.564  13.869  0.00  0.00    +0.000 A 
ATOM      5  C   UNL     1      46.009   4.988  13.487  0.00  0.00    +0.000 A 
ATOM      6  C   UNL     1      45.439   5.347  12.271  0.00  0.00    +0.000 A 
ATOM      7  N   UNL     1      46.024   6.262  11.452  0.00  0.00    +0.000 NA
ATOM      8  C   UNL     1      47.209   6.795  11.857  0.00  0.00    +0.000 A 
BRANCH   6   9
ATOM      9  C   UNL     1      44.089   4.792  11.821  0.00  0.00    +0.000 C 
ATOM     10  C   UNL     1      43.036   5.073  12.903  0.00  0.00    +0.000 C 
BRANCH   9  11
ATOM     11  C   UNL     1      44.166   3.270  11.496  0.00  0.00    +0.000 C 
ATOM     12  F   UNL     1      45.429   2.840  11.249  0.00  0.00    +0.000 F 
ATOM     13  F   UNL     1      43.710   2.514  12.529  0.00  0.00    +0.000 F 
ATOM     14  F   UNL     1      43.428   2.932  10.412  0.00  0.00    +0.000 F 
ENDBRANCH   9  11
BRANCH   9  15
ATOM     15  O   UNL     1      43.639   5.563  10.671  0.00  0.00    +0.000 OA
ATOM     16  H   UNL     1      44.461   5.896  10.251  0.00  0.00    +0.000 HD
ENDBRANCH   9  15
ENDBRANCH   6   9
ENDBRANCH   1   3
BRANCH   1  17
ATOM     17  C   UNL     1      48.932   8.376  14.159  0.00  0.00    +0.000 C 
BRANCH  17  19
ATOM     18  C   UNL     1      51.155   7.683  15.169  0.00  0.00    +0.000 C 
ATOM     19  C   UNL     1      49.856   8.485  15.412  0.00  0.00    +0.000 C 
ATOM     20  C   UNL     1      50.215   9.974  15.633  0.00  0.00    +0.000 C 
BRANCH  19  21
ATOM     21  C   UNL     1      49.165   7.926  16.681  0.00  0.00    +0.000 A 
ATOM     22  C   UNL     1      48.263   8.717  17.400  0.00  0.00    +0.000 A 
ATOM     23  N   UNL     1      47.650   8.349  18.546  0.00  0.00    +0.000 NA
ATOM     24  C   UNL     1      47.935   7.115  19.014  0.00  0.00    +0.000 A 
ATOM     25  C   UNL     1      48.783   6.221  18.381  0.00  0.00    +0.000 A 
ATOM     26  C   UNL     1      49.402   6.633  17.201  0.00  0.00    +0.000 A 
BRANCH  25  27
ATOM     27  O   UNL     1      48.969   5.017  19.006  0.00  0.00    +0.000 OA
BRANCH  27  28
ATOM     28  C   UNL     1      48.408   3.819  18.431  0.00  0.00    +0.000 C 
ATOM     29  C   UNL     1      49.233   3.106  17.325  0.00  0.00    +0.000 C 
ATOM     30  C   UNL     1      47.908   2.865  16.577  0.00  0.00    +0.000 C 
ATOM     31  C   UNL     1      47.342   4.082  17.331  0.00  0.00    +0.000 C 
ENDBRANCH  27  28
ENDBRANCH  25  27
ENDBRANCH  19  21
ENDBRANCH  17  19
ENDBRANCH   1  17
TORSDOF 9
ENDMDL
MODEL 9
REMARK VINA RESULT:    -6.521      4.154      9.323
REMARK INTER + INTRA:         -10.634
REMARK INTER:                  -9.825
REMARK INTRA:                  -0.809
REMARK UNBOUND:                -0.872
REMARK  Name = 
REMARK  12 active torsions:
REMARK  status: ('A' for Active; 'I' for Inactive)
REMARK    1  A    between atoms: C_1  and  C_2
REMARK    2  A    between atoms: C_2  and  C_3
REMARK    3  A    between atoms: C_2  and  C_4
REMARK    4  A    between atoms: C_2  and  C_19
REMARK    5  A    between atoms: C_4  and  N_5
REMARK    6  A    between atoms: N_5  and  C_6
REMARK    7  A    between atoms: C_9  and  C_10
REMARK    8  A    between atoms: C_10  and  C_11
REMARK    9  A    between atoms: C_10  and  O_12
REMARK   10  A    between atoms: C_10  and  C_13
REMARK   11  A    between atoms: C_23  and  O_24
REMARK   12  A    between atoms: O_24  and  C_25
REMARK                            x       y       z     vdW  Elec       q    Type
REMARK                         _______ _______ _______ _____ _____    ______ ____
ROOT
ATOM      1  N   UNL     1      47.580   5.542  15.113  0.00  0.00    +0.000 N 
ATOM      2  H   UNL     1      48.482   5.932  14.844  0.00  0.00    +0.000 HD
ENDROOT
BRANCH   1   3
ATOM      3  C   UNL     1      46.834   5.200  13.972  0.00  0.00    +0.000 A 
ATOM      4  C   UNL     1      46.552   3.884  13.603  0.00  0.00    +0.000 A 
ATOM      5  C   UNL     1      45.751   3.603  12.498  0.00  0.00    +0.000 A 
ATOM      6  C   UNL     1      45.199   4.652  11.772  0.00  0.00    +0.000 A 
ATOM      7  N   UNL     1      45.406   5.950  12.127  0.00  0.00    +0.000 NA
ATOM      8  C   UNL     1      46.199   6.182  13.207  0.00  0.00    +0.000 A 
BRANCH   6   9
ATOM      9  C   UNL     1      44.271   4.409  10.584  0.00  0.00    +0.000 C 
ATOM     10  C   UNL     1      43.402   3.172  10.860  0.00  0.00    +0.000 C 
BRANCH   9  11
ATOM     11  C   UNL     1      45.063   4.250   9.252  0.00  0.00    +0.000 C 
ATOM     12  F   UNL     1      45.678   3.047   9.136  0.00  0.00    +0.000 F 
ATOM     13  F   UNL     1      44.249   4.358   8.169  0.00  0.00    +0.000 F 
ATOM     14  F   UNL     1      46.028   5.189   9.106  0.00  0.00    +0.000 F 
ENDBRANCH   9  11
BRANCH   9  15
ATOM     15  O   UNL     1      43.320   5.508  10.514  0.00  0.00    +0.000 OA
ATOM     16  H   UNL     1      42.651   5.311  11.205  0.00  0.00    +0.000 HD
ENDBRANCH   9  15
ENDBRANCH   6   9
ENDBRANCH   1   3
BRANCH   1  17
ATOM     17  C   UNL     1      47.689   4.523  16.166  0.00  0.00    +0.000 C 
BRANCH  17  19
ATOM     18  C   UNL     1      49.408   6.203  16.985  0.00  0.00    +0.000 C 
ATOM     19  C   UNL     1      48.737   4.840  17.278  0.00  0.00    +0.000 C 
ATOM     20  C   UNL     1      48.004   4.920  18.639  0.00  0.00    +0.000 C 
BRANCH  19  21
ATOM     21  C   UNL     1      49.841   3.756  17.349  0.00  0.00    +0.000 A 
ATOM     22  C   UNL     1      49.611   2.479  16.828  0.00  0.00    +0.000 A 
ATOM     23  N   UNL     1      50.482   1.448  16.887  0.00  0.00    +0.000 NA
ATOM     24  C   UNL     1      51.665   1.690  17.490  0.00  0.00    +0.000 A 
ATOM     25  C   UNL     1      52.032   2.919  18.016  0.00  0.00    +0.000 A 
ATOM     26  C   UNL     1      51.108   3.961  17.941  0.00  0.00    +0.000 A 
BRANCH  25  27
ATOM     27  O   UNL     1      53.266   2.981  18.606  0.00  0.00    +0.000 OA
BRANCH  27  28
ATOM     28  C   UNL     1      54.387   3.502  17.863  0.00  0.00    +0.000 C 
ATOM     29  C   UNL     1      55.478   4.264  18.663  0.00  0.00    +0.000 C 
ATOM     30  C   UNL     1      55.544   5.271  17.498  0.00  0.00    +0.000 C 
ATOM     31  C   UNL     1      54.104   4.854  17.151  0.00  0.00    +0.000 C 
ENDBRANCH  27  28
ENDBRANCH  25  27
ENDBRANCH  19  21
ENDBRANCH  17  19
ENDBRANCH   1  17
TORSDOF 9
ENDMDL
