MODEL 1
REMARK VINA RESULT:    -7.134      0.000      0.000
REMARK INTER + INTRA:         -12.445
REMARK INTER:                 -11.097
REMARK INTRA:                  -1.348
REMARK UNBOUND:                -1.348
REMARK  Name = 
REMARK  10 active torsions:
REMARK  status: ('A' for Active; 'I' for Inactive)
REMARK    1  A    between atoms: N_1  and  C_2
REMARK    2  A    between atoms: C_2  and  C_3
REMARK    3  A    between atoms: C_3  and  N_4
REMARK    4  A    between atoms: N_4  and  C_5
REMARK    5  A    between atoms: C_5  and  C_6
REMARK    6  A    between atoms: C_9  and  C_10
REMARK    7  A    between atoms: C_10  and  C_11
REMARK    8  A    between atoms: C_14  and  C_15
REMARK    9  A    between atoms: C_15  and  N_16
REMARK   10  A    between atoms: C_17  and  C_19
REMARK                            x       y       z     vdW  Elec       q    Type
REMARK                         _______ _______ _______ _____ _____    ______ ____
ROOT
ATOM      1  C   UNL     1      45.892   6.720  12.809  0.00  0.00    +0.000 A 
ATOM      2  C   UNL     1      46.792   5.799  13.367  0.00  0.00    +0.000 A 
ATOM      3  C   UNL     1      47.864   6.237  14.145  0.00  0.00    +0.000 A 
ATOM      4  C   UNL     1      48.063   7.604  14.374  0.00  0.00    +0.000 A 
ATOM      5  C   UNL     1      47.210   8.526  13.752  0.00  0.00    +0.000 A 
ATOM      6  C   UNL     1      46.127   8.089  12.988  0.00  0.00    +0.000 A 
ENDROOT
BRANCH   1   7
ATOM      7  C   UNL     1      44.637   6.241  12.111  0.00  0.00    +0.000 C 
BRANCH   7  11
ATOM      8  C   UNL     1      45.119   3.416   8.936  0.00  0.00    +0.000 A 
ATOM      9  C   UNL     1      45.770   4.639   8.827  0.00  0.00    +0.000 A 
ATOM     10  C   UNL     1      45.639   5.565   9.855  0.00  0.00    +0.000 A 
ATOM     11  C   UNL     1      44.869   5.262  10.983  0.00  0.00    +0.000 A 
ATOM     12  C   UNL     1      44.247   4.018  10.995  0.00  0.00    +0.000 A 
ATOM     13  N   UNL     1      44.358   3.092  10.013  0.00  0.00    +0.000 NA
BRANCH   8  14
ATOM     14  C   UNL     1      45.312   2.367   7.858  0.00  0.00    +0.000 C 
BRANCH  14  15
ATOM     15  N   UNL     1      46.046   1.164   8.303  0.00  0.00    +0.000 NA
ATOM     16  H   UNL     1      46.451   1.397   9.215  0.00  0.00    +0.000 HD
BRANCH  15  17
ATOM     17  C   UNL     1      47.191   0.855   7.426  0.00  0.00    +0.000 C 
BRANCH  17  18
ATOM     18  C   UNL     1      47.922   2.104   6.897  0.00  0.00    +0.000 C 
BRANCH  18  19
ATOM     19  N   UNL     1      48.399   1.897   5.524  0.00  0.00    +0.000 NA
ATOM     20  H   UNL     1      47.990   2.613   4.924  0.00  0.00    +0.000 HD
ATOM     21  H   UNL     1      48.041   1.004   5.185  0.00  0.00    +0.000 HD
ENDBRANCH  18  19
ENDBRANCH  17  18
ENDBRANCH  15  17
ENDBRANCH  14  15
ENDBRANCH   8  14
ENDBRANCH   7  11
ENDBRANCH   1   7
BRANCH   4  22
ATOM     22  C   UNL     1      49.181   8.082  15.260  0.00  0.00    +0.000 C 
BRANCH  22  23
ATOM     23  N   UNL     1      50.009   6.988  15.687  0.00  0.00    +0.000 N 
ATOM     24  C   UNL     1      50.370   6.845  17.002  0.00  0.00    +0.000 C 
ATOM     25  O   UNL     1      49.962   7.607  17.876  0.00  0.00    +0.000 OA
ATOM     26  H   UNL     1      50.527   6.494  14.968  0.00  0.00    +0.000 HD
BRANCH  24  27
ATOM     27  C   UNL     1      51.223   5.696  17.326  0.00  0.00    +0.000 A 
ATOM     28  C   UNL     1      52.547   5.905  17.685  0.00  0.00    +0.000 A 
ATOM     29  S   UNL     1      53.383   4.473  18.084  0.00  0.00    +0.000 S 
ATOM     30  C   UNL     1      52.020   3.518  17.740  0.00  0.00    +0.000 A 
ATOM     31  N   UNL     1      52.067   2.164  17.856  0.00  0.00    +0.000 NA
ATOM     32  C   UNL     1      50.974   1.559  17.534  0.00  0.00    +0.000 A 
ATOM     33  N   UNL     1      49.834   2.189  17.102  0.00  0.00    +0.000 N 
ATOM     34  C   UNL     1      49.728   3.555  16.994  0.00  0.00    +0.000 A 
ATOM     35  O   UNL     1      48.680   4.085  16.642  0.00  0.00    +0.000 OA
ATOM     36  C   UNL     1      50.935   4.281  17.340  0.00  0.00    +0.000 A 
ATOM     37  H   UNL     1      49.008   1.657  16.869  0.00  0.00    +0.000 HD
ENDBRANCH  24  27
ENDBRANCH  22  23
ENDBRANCH   4  22
TORSDOF 10
ENDMDL
MODEL 2
REMARK VINA RESULT:    -6.849      1.967      2.085
REMARK INTER + INTRA:         -12.001
REMARK INTER:                 -10.829
REMARK INTRA:                  -1.173
REMARK UNBOUND:                -1.348
REMARK  Name = 
REMARK  10 active torsions:
REMARK  status: ('A' for Active; 'I' for Inactive)
REMARK    1  A    between atoms: N_1  and  C_2
REMARK    2  A    between atoms: C_2  and  C_3
REMARK    3  A    between atoms: C_3  and  N_4
REMARK    4  A    between atoms: N_4  and  C_5
REMARK    5  A    between atoms: C_5  and  C_6
REMARK    6  A    between atoms: C_9  and  C_10
REMARK    7  A    between atoms: C_10  and  C_11
REMARK    8  A    between atoms: C_14  and  C_15
REMARK    9  A    between atoms: C_15  and  N_16
REMARK   10  A    between atoms: C_17  and  C_19
REMARK                            x       y       z     vdW  Elec       q    Type
REMARK                         _______ _______ _______ _____ _____    ______ ____
ROOT
ATOM      1  C   UNL     1      45.016   6.791  11.767  0.00  0.00    +0.000 A 
ATOM      2  C   UNL     1      46.146   6.130  12.274  0.00  0.00    +0.000 A 
ATOM      3  C   UNL     1      47.094   6.824  13.027  0.00  0.00    +0.000 A 
ATOM      4  C   UNL     1      46.937   8.192  13.281  0.00  0.00    +0.000 A 
ATOM      5  C   UNL     1      45.850   8.866  12.709  0.00  0.00    +0.000 A 
ATOM      6  C   UNL     1      44.890   8.170  11.971  0.00  0.00    +0.000 A 
ENDROOT
BRANCH   1   7
ATOM      7  C   UNL     1      43.905   6.008  11.100  0.00  0.00    +0.000 C 
BRANCH   7  11
ATOM      8  C   UNL     1      45.010   2.424   9.045  0.00  0.00    +0.000 A 
ATOM      9  C   UNL     1      45.462   3.635   8.535  0.00  0.00    +0.000 A 
ATOM     10  C   UNL     1      45.127   4.811   9.197  0.00  0.00    +0.000 A 
ATOM     11  C   UNL     1      44.353   4.768  10.361  0.00  0.00    +0.000 A 
ATOM     12  C   UNL     1      43.939   3.510  10.787  0.00  0.00    +0.000 A 
ATOM     13  N   UNL     1      44.252   2.347  10.168  0.00  0.00    +0.000 NA
BRANCH   8  14
ATOM     14  C   UNL     1      45.429   1.128   8.376  0.00  0.00    +0.000 C 
BRANCH  14  15
ATOM     15  N   UNL     1      46.863   1.060   8.027  0.00  0.00    +0.000 NA
ATOM     16  H   UNL     1      47.262   1.971   8.272  0.00  0.00    +0.000 HD
BRANCH  15  17
ATOM     17  C   UNL     1      47.074   0.911   6.574  0.00  0.00    +0.000 C 
BRANCH  17  18
ATOM     18  C   UNL     1      47.544   2.203   5.881  0.00  0.00    +0.000 C 
BRANCH  18  19
ATOM     19  N   UNL     1      48.828   2.662   6.429  0.00  0.00    +0.000 NA
ATOM     20  H   UNL     1      48.828   3.681   6.452  0.00  0.00    +0.000 HD
ATOM     21  H   UNL     1      49.572   2.393   5.787  0.00  0.00    +0.000 HD
ENDBRANCH  18  19
ENDBRANCH  17  18
ENDBRANCH  15  17
ENDBRANCH  14  15
ENDBRANCH   8  14
ENDBRANCH   7  11
ENDBRANCH   1   7
BRANCH   4  22
ATOM     22  C   UNL     1      47.923   8.934  14.141  0.00  0.00    +0.000 C 
BRANCH  22  23
ATOM     23  N   UNL     1      48.127   8.263  15.396  0.00  0.00    +0.000 N 
ATOM     24  C   UNL     1      49.244   7.499  15.616  0.00  0.00    +0.000 C 
ATOM     25  O   UNL     1      50.139   7.397  14.780  0.00  0.00    +0.000 OA
ATOM     26  H   UNL     1      47.316   8.153  15.996  0.00  0.00    +0.000 HD
BRANCH  24  27
ATOM     27  C   UNL     1      49.346   6.853  16.930  0.00  0.00    +0.000 A 
ATOM     28  C   UNL     1      49.967   7.523  17.975  0.00  0.00    +0.000 A 
ATOM     29  S   UNL     1      49.952   6.661  19.446  0.00  0.00    +0.000 S 
ATOM     30  C   UNL     1      49.162   5.339  18.726  0.00  0.00    +0.000 A 
ATOM     31  N   UNL     1      48.865   4.225  19.445  0.00  0.00    +0.000 NA
ATOM     32  C   UNL     1      48.295   3.285  18.768  0.00  0.00    +0.000 A 
ATOM     33  N   UNL     1      47.996   3.360  17.432  0.00  0.00    +0.000 N 
ATOM     34  C   UNL     1      48.251   4.474  16.668  0.00  0.00    +0.000 A 
ATOM     35  O   UNL     1      47.935   4.520  15.485  0.00  0.00    +0.000 OA
ATOM     36  C   UNL     1      48.899   5.558  17.383  0.00  0.00    +0.000 A 
ATOM     37  H   UNL     1      47.545   2.590  16.960  0.00  0.00    +0.000 HD
ENDBRANCH  24  27
ENDBRANCH  22  23
ENDBRANCH   4  22
TORSDOF 10
ENDMDL
MODEL 3
REMARK VINA RESULT:    -6.506      5.233      8.104
REMARK INTER + INTRA:         -11.467
REMARK INTER:                 -10.326
REMARK INTRA:                  -1.141
REMARK UNBOUND:                -1.348
REMARK  Name = 
REMARK  10 active torsions:
REMARK  status: ('A' for Active; 'I' for Inactive)
REMARK    1  A    between atoms: N_1  and  C_2
REMARK    2  A    between atoms: C_2  and  C_3
REMARK    3  A    between atoms: C_3  and  N_4
REMARK    4  A    between atoms: N_4  and  C_5
REMARK    5  A    between atoms: C_5  and  C_6
REMARK    6  A    between atoms: C_9  and  C_10
REMARK    7  A    between atoms: C_10  and  C_11
REMARK    8  A    between atoms: C_14  and  C_15
REMARK    9  A    between atoms: C_15  and  N_16
REMARK   10  A    between atoms: C_17  and  C_19
REMARK                            x       y       z     vdW  Elec       q    Type
REMARK                         _______ _______ _______ _____ _____    ______ ____
ROOT
ATOM      1  C   UNL     1      50.634   8.743  11.372  0.00  0.00    +0.000 A 
ATOM      2  C   UNL     1      49.746   9.827  11.435  0.00  0.00    +0.000 A 
ATOM      3  C   UNL     1      48.444   9.652  11.906  0.00  0.00    +0.000 A 
ATOM      4  C   UNL     1      48.002   8.387  12.314  0.00  0.00    +0.000 A 
ATOM      5  C   UNL     1      48.864   7.291  12.177  0.00  0.00    +0.000 A 
ATOM      6  C   UNL     1      50.172   7.468  11.723  0.00  0.00    +0.000 A 
ENDROOT
BRANCH   1   7
ATOM      7  C   UNL     1      52.091   8.963  11.026  0.00  0.00    +0.000 C 
BRANCH   7  11
ATOM      8  C   UNL     1      53.882   5.773   8.810  0.00  0.00    +0.000 A 
ATOM      9  C   UNL     1      52.894   6.526   8.188  0.00  0.00    +0.000 A 
ATOM     10  C   UNL     1      52.310   7.578   8.885  0.00  0.00    +0.000 A 
ATOM     11  C   UNL     1      52.720   7.872  10.189  0.00  0.00    +0.000 A 
ATOM     12  C   UNL     1      53.707   7.055  10.731  0.00  0.00    +0.000 A 
ATOM     13  N   UNL     1      54.299   6.027  10.077  0.00  0.00    +0.000 NA
BRANCH   8  14
ATOM     14  C   UNL     1      54.580   4.671   8.037  0.00  0.00    +0.000 C 
BRANCH  14  15
ATOM     15  N   UNL     1      53.668   3.774   7.298  0.00  0.00    +0.000 NA
ATOM     16  H   UNL     1      53.398   3.035   7.955  0.00  0.00    +0.000 HD
BRANCH  15  17
ATOM     17  C   UNL     1      54.346   3.087   6.182  0.00  0.00    +0.000 C 
BRANCH  17  18
ATOM     18  C   UNL     1      54.204   1.554   6.221  0.00  0.00    +0.000 C 
BRANCH  18  19
ATOM     19  N   UNL     1      54.560   1.022   7.543  0.00  0.00    +0.000 NA
ATOM     20  H   UNL     1      53.707   0.905   8.089  0.00  0.00    +0.000 HD
ATOM     21  H   UNL     1      55.119   1.718   8.036  0.00  0.00    +0.000 HD
ENDBRANCH  18  19
ENDBRANCH  17  18
ENDBRANCH  15  17
ENDBRANCH  14  15
ENDBRANCH   8  14
ENDBRANCH   7  11
ENDBRANCH   1   7
BRANCH   4  22
ATOM     22  C   UNL     1      46.619   8.200  12.878  0.00  0.00    +0.000 C 
BRANCH  22  23
ATOM     23  N   UNL     1      46.117   6.883  12.595  0.00  0.00    +0.000 N 
ATOM     24  C   UNL     1      45.031   6.700  11.779  0.00  0.00    +0.000 C 
ATOM     25  O   UNL     1      44.475   7.638  11.214  0.00  0.00    +0.000 OA
ATOM     26  H   UNL     1      46.412   6.136  13.215  0.00  0.00    +0.000 HD
BRANCH  24  27
ATOM     27  C   UNL     1      44.600   5.314  11.565  0.00  0.00    +0.000 A 
ATOM     28  C   UNL     1      43.890   4.656  12.560  0.00  0.00    +0.000 A 
ATOM     29  S   UNL     1      43.416   3.075  12.131  0.00  0.00    +0.000 S 
ATOM     30  C   UNL     1      44.188   3.194  10.621  0.00  0.00    +0.000 A 
ATOM     31  N   UNL     1      44.185   2.151   9.749  0.00  0.00    +0.000 NA
ATOM     32  C   UNL     1      44.834   2.365   8.655  0.00  0.00    +0.000 A 
ATOM     33  N   UNL     1      45.491   3.532   8.354  0.00  0.00    +0.000 N 
ATOM     34  C   UNL     1      45.500   4.623   9.190  0.00  0.00    +0.000 A 
ATOM     35  O   UNL     1      46.065   5.663   8.871  0.00  0.00    +0.000 OA
ATOM     36  C   UNL     1      44.788   4.430  10.439  0.00  0.00    +0.000 A 
ATOM     37  H   UNL     1      45.979   3.638   7.477  0.00  0.00    +0.000 HD
ENDBRANCH  24  27
ENDBRANCH  22  23
ENDBRANCH   4  22
TORSDOF 10
ENDMDL
MODEL 4
REMARK VINA RESULT:    -6.504      3.671      4.621
REMARK INTER + INTRA:         -11.464
REMARK INTER:                  -9.964
REMARK INTRA:                  -1.501
REMARK UNBOUND:                -1.348
REMARK  Name = 
REMARK  10 active torsions:
REMARK  status: ('A' for Active; 'I' for Inactive)
REMARK    1  A    between atoms: N_1  and  C_2
REMARK    2  A    between atoms: C_2  and  C_3
REMARK    3  A    between atoms: C_3  and  N_4
REMARK    4  A    between atoms: N_4  and  C_5
REMARK    5  A    between atoms: C_5  and  C_6
REMARK    6  A    between atoms: C_9  and  C_10
REMARK    7  A    between atoms: C_10  and  C_11
REMARK    8  A    between atoms: C_14  and  C_15
REMARK    9  A    between atoms: C_15  and  N_16
REMARK   10  A    between atoms: C_17  and  C_19
REMARK                            x       y       z     vdW  Elec       q    Type
REMARK                         _______ _______ _______ _____ _____    ______ ____
ROOT
ATOM      1  C   UNL     1      45.894   6.849  12.887  0.00  0.00    +0.000 A 
ATOM      2  C   UNL     1      47.055   6.220  13.362  0.00  0.00    +0.000 A 
ATOM      3  C   UNL     1      48.113   6.974  13.871  0.00  0.00    +0.000 A 
ATOM      4  C   UNL     1      48.035   8.372  13.907  0.00  0.00    +0.000 A 
ATOM      5  C   UNL     1      46.910   9.002  13.360  0.00  0.00    +0.000 A 
ATOM      6  C   UNL     1      45.843   8.249  12.867  0.00  0.00    +0.000 A 
ENDROOT
BRANCH   1   7
ATOM      7  C   UNL     1      44.682   6.031  12.496  0.00  0.00    +0.000 C 
BRANCH   7  11
ATOM      8  C   UNL     1      45.073   3.420   9.131  0.00  0.00    +0.000 A 
ATOM      9  C   UNL     1      45.644   4.684   9.047  0.00  0.00    +0.000 A 
ATOM     10  C   UNL     1      45.542   5.542  10.135  0.00  0.00    +0.000 A 
ATOM     11  C   UNL     1      44.880   5.132  11.296  0.00  0.00    +0.000 A 
ATOM     12  C   UNL     1      44.331   3.853  11.281  0.00  0.00    +0.000 A 
ATOM     13  N   UNL     1      44.417   2.992  10.239  0.00  0.00    +0.000 NA
BRANCH   8  14
ATOM     14  C   UNL     1      45.240   2.446   7.980  0.00  0.00    +0.000 C 
BRANCH  14  15
ATOM     15  N   UNL     1      46.023   1.238   8.314  0.00  0.00    +0.000 NA
ATOM     16  H   UNL     1      46.442   1.413   9.233  0.00  0.00    +0.000 HD
BRANCH  15  17
ATOM     17  C   UNL     1      47.157   1.038   7.391  0.00  0.00    +0.000 C 
BRANCH  17  18
ATOM     18  C   UNL     1      47.580   2.316   6.643  0.00  0.00    +0.000 C 
BRANCH  18  19
ATOM     19  N   UNL     1      48.506   2.006   5.546  0.00  0.00    +0.000 NA
ATOM     20  H   UNL     1      48.379   1.032   5.276  0.00  0.00    +0.000 HD
ATOM     21  H   UNL     1      49.462   2.082   5.894  0.00  0.00    +0.000 HD
ENDBRANCH  18  19
ENDBRANCH  17  18
ENDBRANCH  15  17
ENDBRANCH  14  15
ENDBRANCH   8  14
ENDBRANCH   7  11
ENDBRANCH   1   7
BRANCH   4  22
ATOM     22  C   UNL     1      49.146   9.190  14.508  0.00  0.00    +0.000 C 
BRANCH  22  23
ATOM     23  N   UNL     1      50.310   9.184  13.664  0.00  0.00    +0.000 N 
ATOM     24  C   UNL     1      51.456   8.534  14.044  0.00  0.00    +0.000 C 
ATOM     25  O   UNL     1      51.523   7.888  15.087  0.00  0.00    +0.000 OA
ATOM     26  H   UNL     1      50.348   9.881  12.928  0.00  0.00    +0.000 HD
BRANCH  24  27
ATOM     27  C   UNL     1      52.585   8.599  13.109  0.00  0.00    +0.000 A 
ATOM     28  C   UNL     1      53.802   9.110  13.539  0.00  0.00    +0.000 A 
ATOM     29  S   UNL     1      55.023   9.063  12.351  0.00  0.00    +0.000 S 
ATOM     30  C   UNL     1      53.956   8.405  11.203  0.00  0.00    +0.000 A 
ATOM     31  N   UNL     1      54.369   8.138   9.935  0.00  0.00    +0.000 NA
ATOM     32  C   UNL     1      53.450   7.671   9.158  0.00  0.00    +0.000 A 
ATOM     33  N   UNL     1      52.150   7.449   9.536  0.00  0.00    +0.000 N 
ATOM     34  C   UNL     1      51.691   7.678  10.811  0.00  0.00    +0.000 A 
ATOM     35  O   UNL     1      50.532   7.431  11.123  0.00  0.00    +0.000 OA
ATOM     36  C   UNL     1      52.687   8.209  11.723  0.00  0.00    +0.000 A 
ATOM     37  H   UNL     1      51.479   7.078   8.880  0.00  0.00    +0.000 HD
ENDBRANCH  24  27
ENDBRANCH  22  23
ENDBRANCH   4  22
TORSDOF 10
ENDMDL
MODEL 5
REMARK VINA RESULT:    -6.474      3.603      9.370
REMARK INTER + INTRA:         -11.417
REMARK INTER:                 -10.288
REMARK INTRA:                  -1.129
REMARK UNBOUND:                -1.348
REMARK  Name = 
REMARK  10 active torsions:
REMARK  status: ('A' for Active; 'I' for Inactive)
REMARK    1  A    between atoms: N_1  and  C_2
REMARK    2  A    between atoms: C_2  and  C_3
REMARK    3  A    between atoms: C_3  and  N_4
REMARK    4  A    between atoms: N_4  and  C_5
REMARK    5  A    between atoms: C_5  and  C_6
REMARK    6  A    between atoms: C_9  and  C_10
REMARK    7  A    between atoms: C_10  and  C_11
REMARK    8  A    between atoms: C_14  and  C_15
REMARK    9  A    between atoms: C_15  and  N_16
REMARK   10  A    between atoms: C_17  and  C_19
REMARK                            x       y       z     vdW  Elec       q    Type
REMARK                         _______ _______ _______ _____ _____    ______ ____
ROOT
ATOM      1  C   UNL     1      49.303   5.677  17.006  0.00  0.00    +0.000 A 
ATOM      2  C   UNL     1      48.202   5.147  16.316  0.00  0.00    +0.000 A 
ATOM      3  C   UNL     1      47.828   5.663  15.075  0.00  0.00    +0.000 A 
ATOM      4  C   UNL     1      48.541   6.723  14.503  0.00  0.00    +0.000 A 
ATOM      5  C   UNL     1      49.591   7.303  15.227  0.00  0.00    +0.000 A 
ATOM      6  C   UNL     1      49.978   6.777  16.461  0.00  0.00    +0.000 A 
ENDROOT
BRANCH   1   7
ATOM      7  C   UNL     1      49.813   5.010  18.266  0.00  0.00    +0.000 C 
BRANCH   7  11
ATOM      8  C   UNL     1      52.448   1.678  17.775  0.00  0.00    +0.000 A 
ATOM      9  C   UNL     1      51.138   1.545  17.333  0.00  0.00    +0.000 A 
ATOM     10  C   UNL     1      50.269   2.622  17.468  0.00  0.00    +0.000 A 
ATOM     11  C   UNL     1      50.715   3.819  18.036  0.00  0.00    +0.000 A 
ATOM     12  C   UNL     1      52.040   3.852  18.460  0.00  0.00    +0.000 A 
ATOM     13  N   UNL     1      52.912   2.823  18.338  0.00  0.00    +0.000 NA
BRANCH   8  14
ATOM     14  C   UNL     1      53.427   0.538  17.566  0.00  0.00    +0.000 C 
BRANCH  14  15
ATOM     15  N   UNL     1      53.214  -0.619  18.460  0.00  0.00    +0.000 NA
ATOM     16  H   UNL     1      53.217  -0.248  19.415  0.00  0.00    +0.000 HD
BRANCH  15  17
ATOM     17  C   UNL     1      54.332  -1.580  18.402  0.00  0.00    +0.000 C 
BRANCH  17  18
ATOM     18  C   UNL     1      54.161  -2.786  19.345  0.00  0.00    +0.000 C 
BRANCH  18  19
ATOM     19  N   UNL     1      53.621  -2.369  20.646  0.00  0.00    +0.000 NA
ATOM     20  H   UNL     1      53.792  -3.111  21.323  0.00  0.00    +0.000 HD
ATOM     21  H   UNL     1      52.608  -2.286  20.566  0.00  0.00    +0.000 HD
ENDBRANCH  18  19
ENDBRANCH  17  18
ENDBRANCH  15  17
ENDBRANCH  14  15
ENDBRANCH   8  14
ENDBRANCH   7  11
ENDBRANCH   1   7
BRANCH   4  22
ATOM     22  C   UNL     1      48.181   7.246  13.138  0.00  0.00    +0.000 C 
BRANCH  22  23
ATOM     23  N   UNL     1      47.440   6.271  12.387  0.00  0.00    +0.000 N 
ATOM     24  C   UNL     1      46.342   6.631  11.648  0.00  0.00    +0.000 C 
ATOM     25  O   UNL     1      45.977   7.800  11.552  0.00  0.00    +0.000 OA
ATOM     26  H   UNL     1      47.585   5.296  12.629  0.00  0.00    +0.000 HD
BRANCH  24  27
ATOM     27  C   UNL     1      45.657   5.553  10.926  0.00  0.00    +0.000 A 
ATOM     28  C   UNL     1      45.707   5.519   9.539  0.00  0.00    +0.000 A 
ATOM     29  S   UNL     1      44.911   4.173   8.859  0.00  0.00    +0.000 S 
ATOM     30  C   UNL     1      44.427   3.616  10.390  0.00  0.00    +0.000 A 
ATOM     31  N   UNL     1      43.673   2.492  10.520  0.00  0.00    +0.000 NA
ATOM     32  C   UNL     1      43.349   2.201  11.735  0.00  0.00    +0.000 A 
ATOM     33  N   UNL     1      43.710   2.937  12.835  0.00  0.00    +0.000 N 
ATOM     34  C   UNL     1      44.493   4.064  12.758  0.00  0.00    +0.000 A 
ATOM     35  O   UNL     1      44.828   4.675  13.766  0.00  0.00    +0.000 OA
ATOM     36  C   UNL     1      44.879   4.438  11.410  0.00  0.00    +0.000 A 
ATOM     37  H   UNL     1      43.427   2.652  13.761  0.00  0.00    +0.000 HD
ENDBRANCH  24  27
ENDBRANCH  22  23
ENDBRANCH   4  22
TORSDOF 10
ENDMDL
MODEL 6
REMARK VINA RESULT:    -6.404      4.111      8.984
REMARK INTER + INTRA:         -11.308
REMARK INTER:                  -9.811
REMARK INTRA:                  -1.497
REMARK UNBOUND:                -1.348
REMARK  Name = 
REMARK  10 active torsions:
REMARK  status: ('A' for Active; 'I' for Inactive)
REMARK    1  A    between atoms: N_1  and  C_2
REMARK    2  A    between atoms: C_2  and  C_3
REMARK    3  A    between atoms: C_3  and  N_4
REMARK    4  A    between atoms: N_4  and  C_5
REMARK    5  A    between atoms: C_5  and  C_6
REMARK    6  A    between atoms: C_9  and  C_10
REMARK    7  A    between atoms: C_10  and  C_11
REMARK    8  A    between atoms: C_14  and  C_15
REMARK    9  A    between atoms: C_15  and  N_16
REMARK   10  A    between atoms: C_17  and  C_19
REMARK                            x       y       z     vdW  Elec       q    Type
REMARK                         _______ _______ _______ _____ _____    ______ ____
ROOT
ATOM      1  C   UNL     1      51.140   4.140  18.345  0.00  0.00    +0.000 A 
ATOM      2  C   UNL     1      50.870   3.025  17.538  0.00  0.00    +0.000 A 
ATOM      3  C   UNL     1      49.569   2.757  17.111  0.00  0.00    +0.000 A 
ATOM      4  C   UNL     1      48.512   3.593  17.489  0.00  0.00    +0.000 A 
ATOM      5  C   UNL     1      48.770   4.662  18.357  0.00  0.00    +0.000 A 
ATOM      6  C   UNL     1      50.074   4.941  18.771  0.00  0.00    +0.000 A 
ENDROOT
BRANCH   1   7
ATOM      7  C   UNL     1      52.568   4.528  18.665  0.00  0.00    +0.000 C 
BRANCH   7  11
ATOM      8  C   UNL     1      54.802   6.074  15.362  0.00  0.00    +0.000 A 
ATOM      9  C   UNL     1      55.344   5.013  16.077  0.00  0.00    +0.000 A 
ATOM     10  C   UNL     1      54.626   4.485  17.145  0.00  0.00    +0.000 A 
ATOM     11  C   UNL     1      53.377   5.014  17.485  0.00  0.00    +0.000 A 
ATOM     12  C   UNL     1      52.925   6.084  16.718  0.00  0.00    +0.000 A 
ATOM     13  N   UNL     1      53.597   6.617  15.670  0.00  0.00    +0.000 NA
BRANCH   8  14
ATOM     14  C   UNL     1      55.539   6.612  14.150  0.00  0.00    +0.000 C 
BRANCH  14  15
ATOM     15  N   UNL     1      55.062   6.072  12.860  0.00  0.00    +0.000 NA
ATOM     16  H   UNL     1      55.854   5.567  12.451  0.00  0.00    +0.000 HD
BRANCH  15  17
ATOM     17  C   UNL     1      54.731   7.141  11.898  0.00  0.00    +0.000 C 
BRANCH  17  18
ATOM     18  C   UNL     1      54.044   8.361  12.541  0.00  0.00    +0.000 C 
BRANCH  18  19
ATOM     19  N   UNL     1      52.668   8.044  12.943  0.00  0.00    +0.000 NA
ATOM     20  H   UNL     1      52.046   8.764  12.578  0.00  0.00    +0.000 HD
ATOM     21  H   UNL     1      52.603   8.101  13.959  0.00  0.00    +0.000 HD
ENDBRANCH  18  19
ENDBRANCH  17  18
ENDBRANCH  15  17
ENDBRANCH  14  15
ENDBRANCH   8  14
ENDBRANCH   7  11
ENDBRANCH   1   7
BRANCH   4  22
ATOM     22  C   UNL     1      47.116   3.346  16.985  0.00  0.00    +0.000 C 
BRANCH  22  23
ATOM     23  N   UNL     1      46.728   4.339  16.021  0.00  0.00    +0.000 N 
ATOM     24  C   UNL     1      46.917   4.134  14.678  0.00  0.00    +0.000 C 
ATOM     25  O   UNL     1      47.373   3.082  14.238  0.00  0.00    +0.000 OA
ATOM     26  H   UNL     1      46.565   5.278  16.368  0.00  0.00    +0.000 HD
BRANCH  24  27
ATOM     27  C   UNL     1      46.490   5.217  13.785  0.00  0.00    +0.000 A 
ATOM     28  C   UNL     1      47.319   6.314  13.594  0.00  0.00    +0.000 A 
ATOM     29  S   UNL     1      46.702   7.453  12.484  0.00  0.00    +0.000 S 
ATOM     30  C   UNL     1      45.283   6.546  12.260  0.00  0.00    +0.000 A 
ATOM     31  N   UNL     1      44.297   6.983  11.431  0.00  0.00    +0.000 NA
ATOM     32  C   UNL     1      43.261   6.215  11.377  0.00  0.00    +0.000 A 
ATOM     33  N   UNL     1      43.122   5.046  12.082  0.00  0.00    +0.000 N 
ATOM     34  C   UNL     1      44.099   4.549  12.910  0.00  0.00    +0.000 A 
ATOM     35  O   UNL     1      43.955   3.481  13.494  0.00  0.00    +0.000 OA
ATOM     36  C   UNL     1      45.284   5.381  13.010  0.00  0.00    +0.000 A 
ATOM     37  H   UNL     1      42.286   4.486  11.993  0.00  0.00    +0.000 HD
ENDBRANCH  24  27
ENDBRANCH  22  23
ENDBRANCH   4  22
TORSDOF 10
ENDMDL
MODEL 7
REMARK VINA RESULT:    -6.380      4.291      8.801
REMARK INTER + INTRA:         -11.272
REMARK INTER:                  -9.016
REMARK INTRA:                  -2.255
REMARK UNBOUND:                -1.348
REMARK  Name = 
REMARK  10 active torsions:
REMARK  status: ('A' for Active; 'I' for Inactive)
REMARK    1  A    between atoms: N_1  and  C_2
REMARK    2  A    between atoms: C_2  and  C_3
REMARK    3  A    between atoms: C_3  and  N_4
REMARK    4  A    between atoms: N_4  and  C_5
REMARK    5  A    between atoms: C_5  and  C_6
REMARK    6  A    between atoms: C_9  and  C_10
REMARK    7  A    between atoms: C_10  and  C_11
REMARK    8  A    between atoms: C_14  and  C_15
REMARK    9  A    between atoms: C_15  and  N_16
REMARK   10  A    between atoms: C_17  and  C_19
REMARK                            x       y       z     vdW  Elec       q    Type
REMARK                         _______ _______ _______ _____ _____    ______ ____
ROOT
ATOM      1  C   UNL     1      51.451   4.067  18.366  0.00  0.00    +0.000 A 
ATOM      2  C   UNL     1      51.076   2.925  17.643  0.00  0.00    +0.000 A 
ATOM      3  C   UNL     1      49.739   2.701  17.313  0.00  0.00    +0.000 A 
ATOM      4  C   UNL     1      48.749   3.610  17.708  0.00  0.00    +0.000 A 
ATOM      5  C   UNL     1      49.114   4.709  18.497  0.00  0.00    +0.000 A 
ATOM      6  C   UNL     1      50.454   4.944  18.812  0.00  0.00    +0.000 A 
ENDROOT
BRANCH   1   7
ATOM      7  C   UNL     1      52.913   4.398  18.575  0.00  0.00    +0.000 C 
BRANCH   7  11
ATOM      8  C   UNL     1      54.792   6.289  15.231  0.00  0.00    +0.000 A 
ATOM      9  C   UNL     1      55.510   5.319  15.921  0.00  0.00    +0.000 A 
ATOM     10  C   UNL     1      54.911   4.681  17.001  0.00  0.00    +0.000 A 
ATOM     11  C   UNL     1      53.605   5.009  17.379  0.00  0.00    +0.000 A 
ATOM     12  C   UNL     1      52.973   6.001  16.634  0.00  0.00    +0.000 A 
ATOM     13  N   UNL     1      53.526   6.637  15.574  0.00  0.00    +0.000 NA
BRANCH   8  14
ATOM     14  C   UNL     1      55.404   6.940  14.005  0.00  0.00    +0.000 C 
BRANCH  14  15
ATOM     15  N   UNL     1      54.461   7.132  12.884  0.00  0.00    +0.000 NA
ATOM     16  H   UNL     1      54.959   6.839  12.037  0.00  0.00    +0.000 HD
BRANCH  15  17
ATOM     17  C   UNL     1      54.125   8.554  12.677  0.00  0.00    +0.000 C 
BRANCH  17  18
ATOM     18  C   UNL     1      52.611   8.829  12.612  0.00  0.00    +0.000 C 
BRANCH  18  19
ATOM     19  N   UNL     1      51.871   7.937  13.515  0.00  0.00    +0.000 NA
ATOM     20  H   UNL     1      50.873   8.109  13.399  0.00  0.00    +0.000 HD
ATOM     21  H   UNL     1      52.092   8.191  14.477  0.00  0.00    +0.000 HD
ENDBRANCH  18  19
ENDBRANCH  17  18
ENDBRANCH  15  17
ENDBRANCH  14  15
ENDBRANCH   8  14
ENDBRANCH   7  11
ENDBRANCH   1   7
BRANCH   4  22
ATOM     22  C   UNL     1      47.313   3.407  17.307  0.00  0.00    +0.000 C 
BRANCH  22  23
ATOM     23  N   UNL     1      46.931   4.321  16.265  0.00  0.00    +0.000 N 
ATOM     24  C   UNL     1      47.093   3.994  14.943  0.00  0.00    +0.000 C 
ATOM     25  O   UNL     1      47.517   2.897  14.590  0.00  0.00    +0.000 OA
ATOM     26  H   UNL     1      46.796   5.290  16.530  0.00  0.00    +0.000 HD
BRANCH  24  27
ATOM     27  C   UNL     1      46.675   5.004  13.964  0.00  0.00    +0.000 A 
ATOM     28  C   UNL     1      45.524   4.799  13.217  0.00  0.00    +0.000 A 
ATOM     29  S   UNL     1      45.148   6.090  12.168  0.00  0.00    +0.000 S 
ATOM     30  C   UNL     1      46.539   6.947  12.638  0.00  0.00    +0.000 A 
ATOM     31  N   UNL     1      46.837   8.153  12.086  0.00  0.00    +0.000 NA
ATOM     32  C   UNL     1      47.937   8.679  12.509  0.00  0.00    +0.000 A 
ATOM     33  N   UNL     1      48.770   8.104  13.434  0.00  0.00    +0.000 N 
ATOM     34  C   UNL     1      48.499   6.900  14.039  0.00  0.00    +0.000 A 
ATOM     35  O   UNL     1      49.248   6.435  14.891  0.00  0.00    +0.000 OA
ATOM     36  C   UNL     1      47.274   6.264  13.593  0.00  0.00    +0.000 A 
ATOM     37  H   UNL     1      49.617   8.570  13.726  0.00  0.00    +0.000 HD
ENDBRANCH  24  27
ENDBRANCH  22  23
ENDBRANCH   4  22
TORSDOF 10
ENDMDL
MODEL 8
REMARK VINA RESULT:    -6.165      5.353      7.730
REMARK INTER + INTRA:         -10.936
REMARK INTER:                 -10.369
REMARK INTRA:                  -0.567
REMARK UNBOUND:                -1.348
REMARK  Name = 
REMARK  10 active torsions:
REMARK  status: ('A' for Active; 'I' for Inactive)
REMARK    1  A    between atoms: N_1  and  C_2
REMARK    2  A    between atoms: C_2  and  C_3
REMARK    3  A    between atoms: C_3  and  N_4
REMARK    4  A    between atoms: N_4  and  C_5
REMARK    5  A    between atoms: C_5  and  C_6
REMARK    6  A    between atoms: C_9  and  C_10
REMARK    7  A    between atoms: C_10  and  C_11
REMARK    8  A    between atoms: C_14  and  C_15
REMARK    9  A    between atoms: C_15  and  N_16
REMARK   10  A    between atoms: C_17  and  C_19
REMARK                            x       y       z     vdW  Elec       q    Type
REMARK                         _______ _______ _______ _____ _____    ______ ____
ROOT
ATOM      1  C   UNL     1      51.761   8.600  10.334  0.00  0.00    +0.000 A 
ATOM      2  C   UNL     1      51.258   9.784  10.895  0.00  0.00    +0.000 A 
ATOM      3  C   UNL     1      50.196   9.744  11.799  0.00  0.00    +0.000 A 
ATOM      4  C   UNL     1      49.610   8.523  12.152  0.00  0.00    +0.000 A 
ATOM      5  C   UNL     1      50.062   7.350  11.533  0.00  0.00    +0.000 A 
ATOM      6  C   UNL     1      51.137   7.386  10.642  0.00  0.00    +0.000 A 
ENDROOT
BRANCH   1   7
ATOM      7  C   UNL     1      53.018   8.625   9.490  0.00  0.00    +0.000 C 
BRANCH   7  11
ATOM      8  C   UNL     1      53.721   5.178   7.058  0.00  0.00    +0.000 A 
ATOM      9  C   UNL     1      54.381   5.262   8.277  0.00  0.00    +0.000 A 
ATOM     10  C   UNL     1      54.155   6.367   9.090  0.00  0.00    +0.000 A 
ATOM     11  C   UNL     1      53.270   7.371   8.685  0.00  0.00    +0.000 A 
ATOM     12  C   UNL     1      52.665   7.203   7.442  0.00  0.00    +0.000 A 
ATOM     13  N   UNL     1      52.861   6.137   6.630  0.00  0.00    +0.000 NA
BRANCH   8  14
ATOM     14  C   UNL     1      53.900   3.944   6.194  0.00  0.00    +0.000 C 
BRANCH  14  15
ATOM     15  N   UNL     1      53.348   2.705   6.780  0.00  0.00    +0.000 NA
ATOM     16  H   UNL     1      53.349   2.843   7.795  0.00  0.00    +0.000 HD
BRANCH  15  17
ATOM     17  C   UNL     1      54.217   1.538   6.535  0.00  0.00    +0.000 C 
BRANCH  17  18
ATOM     18  C   UNL     1      55.506   1.538   7.377  0.00  0.00    +0.000 C 
BRANCH  18  19
ATOM     19  N   UNL     1      55.304   0.845   8.656  0.00  0.00    +0.000 NA
ATOM     20  H   UNL     1      55.114   1.539   9.378  0.00  0.00    +0.000 HD
ATOM     21  H   UNL     1      56.176   0.390   8.922  0.00  0.00    +0.000 HD
ENDBRANCH  18  19
ENDBRANCH  17  18
ENDBRANCH  15  17
ENDBRANCH  14  15
ENDBRANCH   8  14
ENDBRANCH   7  11
ENDBRANCH   1   7
BRANCH   4  22
ATOM     22  C   UNL     1      48.504   8.465  13.171  0.00  0.00    +0.000 C 
BRANCH  22  23
ATOM     23  N   UNL     1      47.306   7.907  12.605  0.00  0.00    +0.000 N 
ATOM     24  C   UNL     1      46.794   6.720  13.062  0.00  0.00    +0.000 C 
ATOM     25  O   UNL     1      47.300   6.111  14.001  0.00  0.00    +0.000 OA
ATOM     26  H   UNL     1      47.012   8.268  11.704  0.00  0.00    +0.000 HD
BRANCH  24  27
ATOM     27  C   UNL     1      45.571   6.240  12.408  0.00  0.00    +0.000 A 
ATOM     28  C   UNL     1      44.716   7.150  11.803  0.00  0.00    +0.000 A 
ATOM     29  S   UNL     1      43.373   6.426  11.041  0.00  0.00    +0.000 S 
ATOM     30  C   UNL     1      43.859   4.875  11.538  0.00  0.00    +0.000 A 
ATOM     31  N   UNL     1      43.118   3.778  11.232  0.00  0.00    +0.000 NA
ATOM     32  C   UNL     1      43.583   2.668  11.697  0.00  0.00    +0.000 A 
ATOM     33  N   UNL     1      44.727   2.557  12.447  0.00  0.00    +0.000 N 
ATOM     34  C   UNL     1      45.524   3.632  12.760  0.00  0.00    +0.000 A 
ATOM     35  O   UNL     1      46.560   3.489  13.400  0.00  0.00    +0.000 OA
ATOM     36  C   UNL     1      45.039   4.906  12.264  0.00  0.00    +0.000 A 
ATOM     37  H   UNL     1      45.041   1.657  12.780  0.00  0.00    +0.000 HD
ENDBRANCH  24  27
ENDBRANCH  22  23
ENDBRANCH   4  22
TORSDOF 10
ENDMDL
MODEL 9
REMARK VINA RESULT:    -5.926      4.057     10.330
REMARK INTER + INTRA:         -10.566
REMARK INTER:                  -9.802
REMARK INTRA:                  -0.764
REMARK UNBOUND:                -1.348
REMARK  Name = 
REMARK  10 active torsions:
REMARK  status: ('A' for Active; 'I' for Inactive)
REMARK    1  A    between atoms: N_1  and  C_2
REMARK    2  A    between atoms: C_2  and  C_3
REMARK    3  A    between atoms: C_3  and  N_4
REMARK    4  A    between atoms: N_4  and  C_5
REMARK    5  A    between atoms: C_5  and  C_6
REMARK    6  A    between atoms: C_9  and  C_10
REMARK    7  A    between atoms: C_10  and  C_11
REMARK    8  A    between atoms: C_14  and  C_15
REMARK    9  A    between atoms: C_15  and  N_16
REMARK   10  A    between atoms: C_17  and  C_19
REMARK                            x       y       z     vdW  Elec       q    Type
REMARK                         _______ _______ _______ _____ _____    ______ ____
ROOT
ATOM      1  C   UNL     1      51.502   3.642  17.600  0.00  0.00    +0.000 A 
ATOM      2  C   UNL     1      50.886   2.396  17.405  0.00  0.00    +0.000 A 
ATOM      3  C   UNL     1      49.511   2.313  17.179  0.00  0.00    +0.000 A 
ATOM      4  C   UNL     1      48.725   3.471  17.152  0.00  0.00    +0.000 A 
ATOM      5  C   UNL     1      49.329   4.707  17.424  0.00  0.00    +0.000 A 
ATOM      6  C   UNL     1      50.707   4.793  17.632  0.00  0.00    +0.000 A 
ENDROOT
BRANCH   1   7
ATOM      7  C   UNL     1      53.011   3.748  17.674  0.00  0.00    +0.000 C 
BRANCH   7  11
ATOM      8  C   UNL     1      55.053   0.243  19.030  0.00  0.00    +0.000 A 
ATOM      9  C   UNL     1      55.013   1.344  19.876  0.00  0.00    +0.000 A 
ATOM     10  C   UNL     1      54.340   2.488  19.461  0.00  0.00    +0.000 A 
ATOM     11  C   UNL     1      53.711   2.522  18.213  0.00  0.00    +0.000 A 
ATOM     12  C   UNL     1      53.817   1.375  17.432  0.00  0.00    +0.000 A 
ATOM     13  N   UNL     1      54.460   0.244  17.808  0.00  0.00    +0.000 NA
BRANCH   8  14
ATOM     14  C   UNL     1      55.719  -1.036  19.499  0.00  0.00    +0.000 C 
BRANCH  14  15
ATOM     15  N   UNL     1      55.588  -2.169  18.560  0.00  0.00    +0.000 NA
ATOM     16  H   UNL     1      54.976  -1.847  17.804  0.00  0.00    +0.000 HD
BRANCH  15  17
ATOM     17  C   UNL     1      54.895  -3.320  19.170  0.00  0.00    +0.000 C 
BRANCH  17  18
ATOM     18  C   UNL     1      53.422  -3.041  19.521  0.00  0.00    +0.000 C 
BRANCH  18  19
ATOM     19  N   UNL     1      53.180  -3.204  20.960  0.00  0.00    +0.000 NA
ATOM     20  H   UNL     1      53.101  -2.281  21.385  0.00  0.00    +0.000 HD
ATOM     21  H   UNL     1      53.999  -3.641  21.382  0.00  0.00    +0.000 HD
ENDBRANCH  18  19
ENDBRANCH  17  18
ENDBRANCH  15  17
ENDBRANCH  14  15
ENDBRANCH   8  14
ENDBRANCH   7  11
ENDBRANCH   1   7
BRANCH   4  22
ATOM     22  C   UNL     1      47.253   3.396  16.850  0.00  0.00    +0.000 C 
BRANCH  22  23
ATOM     23  N   UNL     1      46.862   4.416  15.915  0.00  0.00    +0.000 N 
ATOM     24  C   UNL     1      46.941   4.204  14.563  0.00  0.00    +0.000 C 
ATOM     25  O   UNL     1      47.296   3.127  14.092  0.00  0.00    +0.000 OA
ATOM     26  H   UNL     1      46.785   5.362  16.273  0.00  0.00    +0.000 HD
BRANCH  24  27
ATOM     27  C   UNL     1      46.522   5.316  13.701  0.00  0.00    +0.000 A 
ATOM     28  C   UNL     1      47.360   6.410  13.539  0.00  0.00    +0.000 A 
ATOM     29  S   UNL     1      46.751   7.585  12.463  0.00  0.00    +0.000 S 
ATOM     30  C   UNL     1      45.322   6.697  12.217  0.00  0.00    +0.000 A 
ATOM     31  N   UNL     1      44.339   7.166  11.405  0.00  0.00    +0.000 NA
ATOM     32  C   UNL     1      43.296   6.409  11.333  0.00  0.00    +0.000 A 
ATOM     33  N   UNL     1      43.147   5.223  12.005  0.00  0.00    +0.000 N 
ATOM     34  C   UNL     1      44.123   4.694  12.816  0.00  0.00    +0.000 A 
ATOM     35  O   UNL     1      43.970   3.612  13.370  0.00  0.00    +0.000 OA
ATOM     36  C   UNL     1      45.315   5.512  12.935  0.00  0.00    +0.000 A 
ATOM     37  H   UNL     1      42.306   4.674  11.903  0.00  0.00    +0.000 HD
ENDBRANCH  24  27
ENDBRANCH  22  23
ENDBRANCH   4  22
TORSDOF 10
ENDMDL
