MODEL 1
REMARK VINA RESULT:    -7.846      0.000      0.000
REMARK INTER + INTRA:         -12.516
REMARK INTER:                 -11.286
REMARK INTRA:                  -1.231
REMARK UNBOUND:                -1.231
REMARK  Name = 
REMARK  8 active torsions:
REMARK  status: ('A' for Active; 'I' for Inactive)
REMARK    1  A    between atoms: C_2  and  C_20
REMARK    2  A    between atoms: N_3  and  C_4
REMARK    3  A    between atoms: C_4  and  C_5
REMARK    4  A    between atoms: C_8  and  C_9
REMARK    5  A    between atoms: C_9  and  N_10
REMARK    6  A    between atoms: N_10  and  C_11
REMARK    7  A    between atoms: C_11  and  C_12
REMARK    8  A    between atoms: C_15  and  O_16
REMARK                            x       y       z     vdW  Elec       q    Type
REMARK                         _______ _______ _______ _____ _____    ______ ____
ROOT
ATOM      1  C   UNL     1      46.111   6.871  12.450  0.00  0.00    +0.000 A 
ATOM      2  C   UNL     1      46.405   6.748  11.090  0.00  0.00    +0.000 A 
ATOM      3  C   UNL     1      45.721   5.816  10.315  0.00  0.00    +0.000 A 
ATOM      4  C   UNL     1      44.737   5.033  10.914  0.00  0.00    +0.000 A 
ATOM      5  N   UNL     1      44.405   5.162  12.224  0.00  0.00    +0.000 NA
ATOM      6  C   UNL     1      45.093   6.072  12.955  0.00  0.00    +0.000 A 
ENDROOT
BRANCH   1   7
ATOM      7  C   UNL     1      46.862   7.834  13.323  0.00  0.00    +0.000 C 
BRANCH   7  10
ATOM      8  O   UNL     1      49.426   6.723  13.620  0.00  0.00    +0.000 OA
ATOM      9  C   UNL     1      48.664   6.717  14.581  0.00  0.00    +0.000 C 
ATOM     10  N   UNL     1      47.380   7.195  14.505  0.00  0.00    +0.000 N 
ATOM     11  H   UNL     1      46.840   7.303  15.357  0.00  0.00    +0.000 HD
BRANCH   9  12
ATOM     12  C   UNL     1      49.072   6.156  15.876  0.00  0.00    +0.000 A 
ATOM     13  C   UNL     1      50.081   6.769  16.606  0.00  0.00    +0.000 A 
ATOM     14  S   UNL     1      50.406   6.004  18.095  0.00  0.00    +0.000 S 
ATOM     15  C   UNL     1      49.186   4.845  17.833  0.00  0.00    +0.000 A 
ATOM     16  N   UNL     1      48.903   3.904  18.768  0.00  0.00    +0.000 NA
ATOM     17  C   UNL     1      47.918   3.128  18.461  0.00  0.00    +0.000 A 
ATOM     18  N   UNL     1      47.204   3.190  17.293  0.00  0.00    +0.000 N 
ATOM     19  C   UNL     1      47.516   4.068  16.281  0.00  0.00    +0.000 A 
ATOM     20  O   UNL     1      46.973   3.996  15.183  0.00  0.00    +0.000 OA
ATOM     21  C   UNL     1      48.566   5.015  16.606  0.00  0.00    +0.000 A 
ATOM     22  H   UNL     1      46.462   2.535  17.104  0.00  0.00    +0.000 HD
ENDBRANCH   9  12
ENDBRANCH   7  10
ENDBRANCH   1   7
BRANCH   4  23
ATOM     23  C   UNL     1      43.984   4.000  10.095  0.00  0.00    +0.000 C 
BRANCH  23  24
ATOM     24  N   UNL     1      43.911   4.312   8.657  0.00  0.00    +0.000 NA
ATOM     25  H   UNL     1      44.472   5.158   8.535  0.00  0.00    +0.000 HD
BRANCH  24  26
ATOM     26  C   UNL     1      44.462   3.240   7.824  0.00  0.00    +0.000 C 
BRANCH  26  27
ATOM     27  C   UNL     1      45.929   2.953   8.201  0.00  0.00    +0.000 C 
ATOM     28  C   UNL     1      46.325   1.472   8.037  0.00  0.00    +0.000 C 
ATOM     29  C   UNL     1      47.562   1.445   7.142  0.00  0.00    +0.000 C 
ATOM     30  C   UNL     1      47.473   2.725   6.329  0.00  0.00    +0.000 C 
ATOM     31  C   UNL     1      46.930   3.735   7.331  0.00  0.00    +0.000 C 
BRANCH  30  32
ATOM     32  O   UNL     1      46.607   2.569   5.210  0.00  0.00    +0.000 OA
ATOM     33  H   UNL     1      46.900   1.803   4.687  0.00  0.00    +0.000 HD
ENDBRANCH  30  32
ENDBRANCH  26  27
ENDBRANCH  24  26
ENDBRANCH  23  24
ENDBRANCH   4  23
TORSDOF 8
ENDMDL
MODEL 2
REMARK VINA RESULT:    -7.579      2.504      3.328
REMARK INTER + INTRA:         -12.133
REMARK INTER:                 -10.674
REMARK INTRA:                  -1.459
REMARK UNBOUND:                -1.231
REMARK  Name = 
REMARK  8 active torsions:
REMARK  status: ('A' for Active; 'I' for Inactive)
REMARK    1  A    between atoms: C_2  and  C_20
REMARK    2  A    between atoms: N_3  and  C_4
REMARK    3  A    between atoms: C_4  and  C_5
REMARK    4  A    between atoms: C_8  and  C_9
REMARK    5  A    between atoms: C_9  and  N_10
REMARK    6  A    between atoms: N_10  and  C_11
REMARK    7  A    between atoms: C_11  and  C_12
REMARK    8  A    between atoms: C_15  and  O_16
REMARK                            x       y       z     vdW  Elec       q    Type
REMARK                         _______ _______ _______ _____ _____    ______ ____
ROOT
ATOM      1  C   UNL     1      46.562   4.780  14.232  0.00  0.00    +0.000 A 
ATOM      2  C   UNL     1      47.448   5.776  13.815  0.00  0.00    +0.000 A 
ATOM      3  C   UNL     1      47.352   6.294  12.528  0.00  0.00    +0.000 A 
ATOM      4  C   UNL     1      46.355   5.817  11.681  0.00  0.00    +0.000 A 
ATOM      5  N   UNL     1      45.455   4.879  12.076  0.00  0.00    +0.000 NA
ATOM      6  C   UNL     1      45.579   4.387  13.332  0.00  0.00    +0.000 A 
ENDROOT
BRANCH   1   7
ATOM      7  C   UNL     1      46.667   4.167  15.599  0.00  0.00    +0.000 C 
BRANCH   7  10
ATOM      8  O   UNL     1      47.519   4.703  18.222  0.00  0.00    +0.000 OA
ATOM      9  C   UNL     1      48.353   4.374  17.385  0.00  0.00    +0.000 C 
ATOM     10  N   UNL     1      48.027   4.144  16.072  0.00  0.00    +0.000 N 
ATOM     11  H   UNL     1      48.720   3.735  15.454  0.00  0.00    +0.000 HD
BRANCH   9  12
ATOM     12  C   UNL     1      49.775   4.245  17.733  0.00  0.00    +0.000 A 
ATOM     13  C   UNL     1      50.421   5.286  18.387  0.00  0.00    +0.000 A 
ATOM     14  S   UNL     1      52.057   4.956  18.740  0.00  0.00    +0.000 S 
ATOM     15  C   UNL     1      51.950   3.397  18.063  0.00  0.00    +0.000 A 
ATOM     16  N   UNL     1      53.010   2.551  18.084  0.00  0.00    +0.000 NA
ATOM     17  C   UNL     1      52.770   1.384  17.587  0.00  0.00    +0.000 A 
ATOM     18  N   UNL     1      51.573   0.992  17.047  0.00  0.00    +0.000 N 
ATOM     19  C   UNL     1      50.502   1.846  16.923  0.00  0.00    +0.000 A 
ATOM     20  O   UNL     1      49.501   1.526  16.291  0.00  0.00    +0.000 OA
ATOM     21  C   UNL     1      50.694   3.147  17.537  0.00  0.00    +0.000 A 
ATOM     22  H   UNL     1      51.460   0.072  16.650  0.00  0.00    +0.000 HD
ENDBRANCH   9  12
ENDBRANCH   7  10
ENDBRANCH   1   7
BRANCH   4  23
ATOM     23  C   UNL     1      46.235   6.356  10.267  0.00  0.00    +0.000 C 
BRANCH  23  24
ATOM     24  N   UNL     1      45.537   5.452   9.337  0.00  0.00    +0.000 NA
ATOM     25  H   UNL     1      44.808   6.021   8.902  0.00  0.00    +0.000 HD
BRANCH  24  26
ATOM     26  C   UNL     1      46.425   4.925   8.298  0.00  0.00    +0.000 C 
BRANCH  26  27
ATOM     27  C   UNL     1      45.799   3.692   7.616  0.00  0.00    +0.000 C 
ATOM     28  C   UNL     1      46.668   2.424   7.728  0.00  0.00    +0.000 C 
ATOM     29  C   UNL     1      45.782   1.335   8.330  0.00  0.00    +0.000 C 
ATOM     30  C   UNL     1      44.722   2.095   9.110  0.00  0.00    +0.000 C 
ATOM     31  C   UNL     1      44.440   3.303   8.226  0.00  0.00    +0.000 C 
BRANCH  30  32
ATOM     32  O   UNL     1      45.199   2.478  10.395  0.00  0.00    +0.000 OA
ATOM     33  H   UNL     1      44.988   3.415  10.545  0.00  0.00    +0.000 HD
ENDBRANCH  30  32
ENDBRANCH  26  27
ENDBRANCH  24  26
ENDBRANCH  23  24
ENDBRANCH   4  23
TORSDOF 8
ENDMDL
MODEL 3
REMARK VINA RESULT:    -6.916      2.922      8.362
REMARK INTER + INTRA:         -11.179
REMARK INTER:                  -9.424
REMARK INTRA:                  -1.755
REMARK UNBOUND:                -1.231
REMARK  Name = 
REMARK  8 active torsions:
REMARK  status: ('A' for Active; 'I' for Inactive)
REMARK    1  A    between atoms: C_2  and  C_20
REMARK    2  A    between atoms: N_3  and  C_4
REMARK    3  A    between atoms: C_4  and  C_5
REMARK    4  A    between atoms: C_8  and  C_9
REMARK    5  A    between atoms: C_9  and  N_10
REMARK    6  A    between atoms: N_10  and  C_11
REMARK    7  A    between atoms: C_11  and  C_12
REMARK    8  A    between atoms: C_15  and  O_16
REMARK                            x       y       z     vdW  Elec       q    Type
REMARK                         _______ _______ _______ _____ _____    ______ ____
ROOT
ATOM      1  C   UNL     1      48.211   7.782  13.830  0.00  0.00    +0.000 A 
ATOM      2  C   UNL     1      48.007   8.832  14.728  0.00  0.00    +0.000 A 
ATOM      3  C   UNL     1      48.556   8.769  16.005  0.00  0.00    +0.000 A 
ATOM      4  C   UNL     1      49.319   7.658  16.356  0.00  0.00    +0.000 A 
ATOM      5  N   UNL     1      49.567   6.643  15.488  0.00  0.00    +0.000 NA
ATOM      6  C   UNL     1      49.012   6.729  14.254  0.00  0.00    +0.000 A 
ENDROOT
BRANCH   1   7
ATOM      7  C   UNL     1      47.594   7.798  12.461  0.00  0.00    +0.000 C 
BRANCH   7  10
ATOM      8  O   UNL     1      44.824   7.370  12.656  0.00  0.00    +0.000 OA
ATOM      9  C   UNL     1      45.536   6.458  12.248  0.00  0.00    +0.000 C 
ATOM     10  N   UNL     1      46.902   6.570  12.170  0.00  0.00    +0.000 N 
ATOM     11  H   UNL     1      47.431   5.848  11.692  0.00  0.00    +0.000 HD
BRANCH   9  12
ATOM     12  C   UNL     1      44.967   5.163  11.851  0.00  0.00    +0.000 A 
ATOM     13  C   UNL     1      44.264   4.406  12.778  0.00  0.00    +0.000 A 
ATOM     14  S   UNL     1      43.648   2.948  12.142  0.00  0.00    +0.000 S 
ATOM     15  C   UNL     1      44.270   3.294  10.594  0.00  0.00    +0.000 A 
ATOM     16  N   UNL     1      44.050   2.457   9.549  0.00  0.00    +0.000 NA
ATOM     17  C   UNL     1      44.529   2.872   8.425  0.00  0.00    +0.000 A 
ATOM     18  N   UNL     1      45.232   4.036   8.252  0.00  0.00    +0.000 N 
ATOM     19  C   UNL     1      45.556   4.867   9.300  0.00  0.00    +0.000 A 
ATOM     20  O   UNL     1      46.322   5.813   9.151  0.00  0.00    +0.000 OA
ATOM     21  C   UNL     1      44.973   4.486  10.574  0.00  0.00    +0.000 A 
ATOM     22  H   UNL     1      45.603   4.287   7.350  0.00  0.00    +0.000 HD
ENDBRANCH   9  12
ENDBRANCH   7  10
ENDBRANCH   1   7
BRANCH   4  23
ATOM     23  C   UNL     1      49.921   7.557  17.746  0.00  0.00    +0.000 C 
BRANCH  23  24
ATOM     24  N   UNL     1      49.498   6.362  18.497  0.00  0.00    +0.000 NA
ATOM     25  H   UNL     1      49.848   6.502  19.448  0.00  0.00    +0.000 HD
BRANCH  24  26
ATOM     26  C   UNL     1      48.042   6.211  18.534  0.00  0.00    +0.000 C 
BRANCH  26  27
ATOM     27  C   UNL     1      47.641   4.727  18.413  0.00  0.00    +0.000 C 
ATOM     28  C   UNL     1      47.229   4.318  16.985  0.00  0.00    +0.000 C 
ATOM     29  C   UNL     1      48.091   3.115  16.606  0.00  0.00    +0.000 C 
ATOM     30  C   UNL     1      49.336   3.252  17.466  0.00  0.00    +0.000 C 
ATOM     31  C   UNL     1      48.788   3.770  18.790  0.00  0.00    +0.000 C 
BRANCH  30  32
ATOM     32  O   UNL     1      50.269   4.157  16.887  0.00  0.00    +0.000 OA
ATOM     33  H   UNL     1      50.208   4.098  15.918  0.00  0.00    +0.000 HD
ENDBRANCH  30  32
ENDBRANCH  26  27
ENDBRANCH  24  26
ENDBRANCH  23  24
ENDBRANCH   4  23
TORSDOF 8
ENDMDL
MODEL 4
REMARK VINA RESULT:    -6.880      3.354      5.704
REMARK INTER + INTRA:         -11.128
REMARK INTER:                  -9.785
REMARK INTRA:                  -1.342
REMARK UNBOUND:                -1.231
REMARK  Name = 
REMARK  8 active torsions:
REMARK  status: ('A' for Active; 'I' for Inactive)
REMARK    1  A    between atoms: C_2  and  C_20
REMARK    2  A    between atoms: N_3  and  C_4
REMARK    3  A    between atoms: C_4  and  C_5
REMARK    4  A    between atoms: C_8  and  C_9
REMARK    5  A    between atoms: C_9  and  N_10
REMARK    6  A    between atoms: N_10  and  C_11
REMARK    7  A    between atoms: C_11  and  C_12
REMARK    8  A    between atoms: C_15  and  O_16
REMARK                            x       y       z     vdW  Elec       q    Type
REMARK                         _______ _______ _______ _____ _____    ______ ____
ROOT
ATOM      1  C   UNL     1      47.922   4.130  16.632  0.00  0.00    +0.000 A 
ATOM      2  C   UNL     1      48.443   5.419  16.492  0.00  0.00    +0.000 A 
ATOM      3  C   UNL     1      48.268   6.111  15.298  0.00  0.00    +0.000 A 
ATOM      4  C   UNL     1      47.556   5.506  14.266  0.00  0.00    +0.000 A 
ATOM      5  N   UNL     1      47.004   4.271  14.391  0.00  0.00    +0.000 NA
ATOM      6  C   UNL     1      47.198   3.618  15.563  0.00  0.00    +0.000 A 
ENDROOT
BRANCH   1   7
ATOM      7  C   UNL     1      48.132   3.339  17.890  0.00  0.00    +0.000 C 
BRANCH   7  10
ATOM      8  O   UNL     1      49.728   1.672  16.286  0.00  0.00    +0.000 OA
ATOM      9  C   UNL     1      50.243   2.240  17.244  0.00  0.00    +0.000 C 
ATOM     10  N   UNL     1      49.523   3.031  18.104  0.00  0.00    +0.000 N 
ATOM     11  H   UNL     1      50.016   3.593  18.790  0.00  0.00    +0.000 HD
BRANCH   9  12
ATOM     12  C   UNL     1      51.669   2.075  17.554  0.00  0.00    +0.000 A 
ATOM     13  C   UNL     1      52.204   0.799  17.676  0.00  0.00    +0.000 A 
ATOM     14  S   UNL     1      53.877   0.791  18.008  0.00  0.00    +0.000 S 
ATOM     15  C   UNL     1      53.953   2.492  17.965  0.00  0.00    +0.000 A 
ATOM     16  N   UNL     1      55.132   3.144  18.127  0.00  0.00    +0.000 NA
ATOM     17  C   UNL     1      55.050   4.427  18.014  0.00  0.00    +0.000 A 
ATOM     18  N   UNL     1      53.893   5.123  17.778  0.00  0.00    +0.000 N 
ATOM     19  C   UNL     1      52.665   4.510  17.698  0.00  0.00    +0.000 A 
ATOM     20  O   UNL     1      51.628   5.163  17.653  0.00  0.00    +0.000 OA
ATOM     21  C   UNL     1      52.710   3.060  17.741  0.00  0.00    +0.000 A 
ATOM     22  H   UNL     1      53.896   6.129  17.728  0.00  0.00    +0.000 HD
ENDBRANCH   9  12
ENDBRANCH   7  10
ENDBRANCH   1   7
BRANCH   4  23
ATOM     23  C   UNL     1      47.360   6.234  12.948  0.00  0.00    +0.000 C 
BRANCH  23  24
ATOM     24  N   UNL     1      46.238   5.724  12.142  0.00  0.00    +0.000 NA
ATOM     25  H   UNL     1      46.210   4.718  12.322  0.00  0.00    +0.000 HD
BRANCH  24  26
ATOM     26  C   UNL     1      44.957   6.321  12.528  0.00  0.00    +0.000 C 
BRANCH  26  27
ATOM     27  C   UNL     1      43.779   5.490  11.982  0.00  0.00    +0.000 C 
ATOM     28  C   UNL     1      44.075   4.830  10.620  0.00  0.00    +0.000 C 
ATOM     29  C   UNL     1      43.789   3.339  10.784  0.00  0.00    +0.000 C 
ATOM     30  C   UNL     1      43.967   3.077  12.270  0.00  0.00    +0.000 C 
ATOM     31  C   UNL     1      43.387   4.329  12.915  0.00  0.00    +0.000 C 
BRANCH  30  32
ATOM     32  O   UNL     1      45.338   2.895  12.603  0.00  0.00    +0.000 OA
ATOM     33  H   UNL     1      45.847   3.658  12.279  0.00  0.00    +0.000 HD
ENDBRANCH  30  32
ENDBRANCH  26  27
ENDBRANCH  24  26
ENDBRANCH  23  24
ENDBRANCH   4  23
TORSDOF 8
ENDMDL
MODEL 5
REMARK VINA RESULT:    -6.819      4.270      9.451
REMARK INTER + INTRA:         -11.040
REMARK INTER:                  -9.912
REMARK INTRA:                  -1.128
REMARK UNBOUND:                -1.231
REMARK  Name = 
REMARK  8 active torsions:
REMARK  status: ('A' for Active; 'I' for Inactive)
REMARK    1  A    between atoms: C_2  and  C_20
REMARK    2  A    between atoms: N_3  and  C_4
REMARK    3  A    between atoms: C_4  and  C_5
REMARK    4  A    between atoms: C_8  and  C_9
REMARK    5  A    between atoms: C_9  and  N_10
REMARK    6  A    between atoms: N_10  and  C_11
REMARK    7  A    between atoms: C_11  and  C_12
REMARK    8  A    between atoms: C_15  and  O_16
REMARK                            x       y       z     vdW  Elec       q    Type
REMARK                         _______ _______ _______ _____ _____    ______ ____
ROOT
ATOM      1  C   UNL     1      48.593   3.510  17.209  0.00  0.00    +0.000 A 
ATOM      2  C   UNL     1      49.473   2.436  17.058  0.00  0.00    +0.000 A 
ATOM      3  C   UNL     1      50.816   2.588  17.388  0.00  0.00    +0.000 A 
ATOM      4  C   UNL     1      51.254   3.814  17.882  0.00  0.00    +0.000 A 
ATOM      5  N   UNL     1      50.411   4.861  18.077  0.00  0.00    +0.000 NA
ATOM      6  C   UNL     1      49.111   4.685  17.740  0.00  0.00    +0.000 A 
ENDROOT
BRANCH   1   7
ATOM      7  C   UNL     1      47.148   3.392  16.820  0.00  0.00    +0.000 C 
BRANCH   7  10
ATOM      8  O   UNL     1      47.202   3.087  14.027  0.00  0.00    +0.000 OA
ATOM      9  C   UNL     1      46.785   4.140  14.499  0.00  0.00    +0.000 C 
ATOM     10  N   UNL     1      46.771   4.387  15.849  0.00  0.00    +0.000 N 
ATOM     11  H   UNL     1      46.285   5.206  16.198  0.00  0.00    +0.000 HD
BRANCH   9  12
ATOM     12  C   UNL     1      46.305   5.227  13.635  0.00  0.00    +0.000 A 
ATOM     13  C   UNL     1      47.136   6.304  13.358  0.00  0.00    +0.000 A 
ATOM     14  S   UNL     1      46.431   7.457  12.317  0.00  0.00    +0.000 S 
ATOM     15  C   UNL     1      45.003   6.541  12.172  0.00  0.00    +0.000 A 
ATOM     16  N   UNL     1      43.989   6.948  11.369  0.00  0.00    +0.000 NA
ATOM     17  C   UNL     1      42.994   6.128  11.311  0.00  0.00    +0.000 A 
ATOM     18  N   UNL     1      42.907   4.947  12.002  0.00  0.00    +0.000 N 
ATOM     19  C   UNL     1      43.870   4.541  12.896  0.00  0.00    +0.000 A 
ATOM     20  O   UNL     1      43.697   3.570  13.623  0.00  0.00    +0.000 OA
ATOM     21  C   UNL     1      45.048   5.389  12.941  0.00  0.00    +0.000 A 
ATOM     22  H   UNL     1      42.087   4.366  11.932  0.00  0.00    +0.000 HD
ENDBRANCH   9  12
ENDBRANCH   7  10
ENDBRANCH   1   7
BRANCH   4  23
ATOM     23  C   UNL     1      52.716   4.012  18.238  0.00  0.00    +0.000 C 
BRANCH  23  24
ATOM     24  N   UNL     1      53.469   2.757  18.405  0.00  0.00    +0.000 NA
ATOM     25  H   UNL     1      52.780   2.010  18.283  0.00  0.00    +0.000 HD
BRANCH  24  26
ATOM     26  C   UNL     1      54.530   2.604  17.407  0.00  0.00    +0.000 C 
BRANCH  26  27
ATOM     27  C   UNL     1      55.369   1.342  17.688  0.00  0.00    +0.000 C 
ATOM     28  C   UNL     1      55.449   0.980  19.184  0.00  0.00    +0.000 C 
ATOM     29  C   UNL     1      54.993  -0.472  19.310  0.00  0.00    +0.000 C 
ATOM     30  C   UNL     1      54.099  -0.697  18.102  0.00  0.00    +0.000 C 
ATOM     31  C   UNL     1      54.801   0.086  17.000  0.00  0.00    +0.000 C 
BRANCH  30  32
ATOM     32  O   UNL     1      52.780  -0.217  18.336  0.00  0.00    +0.000 OA
ATOM     33  H   UNL     1      52.832   0.660  18.752  0.00  0.00    +0.000 HD
ENDBRANCH  30  32
ENDBRANCH  26  27
ENDBRANCH  24  26
ENDBRANCH  23  24
ENDBRANCH   4  23
TORSDOF 8
ENDMDL
MODEL 6
REMARK VINA RESULT:    -6.701      3.550      8.080
REMARK INTER + INTRA:         -10.870
REMARK INTER:                  -9.338
REMARK INTRA:                  -1.532
REMARK UNBOUND:                -1.231
REMARK  Name = 
REMARK  8 active torsions:
REMARK  status: ('A' for Active; 'I' for Inactive)
REMARK    1  A    between atoms: C_2  and  C_20
REMARK    2  A    between atoms: N_3  and  C_4
REMARK    3  A    between atoms: C_4  and  C_5
REMARK    4  A    between atoms: C_8  and  C_9
REMARK    5  A    between atoms: C_9  and  N_10
REMARK    6  A    between atoms: N_10  and  C_11
REMARK    7  A    between atoms: C_11  and  C_12
REMARK    8  A    between atoms: C_15  and  O_16
REMARK                            x       y       z     vdW  Elec       q    Type
REMARK                         _______ _______ _______ _____ _____    ______ ____
ROOT
ATOM      1  C   UNL     1      48.496   8.109  13.377  0.00  0.00    +0.000 A 
ATOM      2  C   UNL     1      48.275   9.263  14.133  0.00  0.00    +0.000 A 
ATOM      3  C   UNL     1      48.354   9.208  15.521  0.00  0.00    +0.000 A 
ATOM      4  C   UNL     1      48.671   7.996  16.130  0.00  0.00    +0.000 A 
ATOM      5  N   UNL     1      48.930   6.870  15.416  0.00  0.00    +0.000 NA
ATOM      6  C   UNL     1      48.838   6.953  14.066  0.00  0.00    +0.000 A 
ENDROOT
BRANCH   1   7
ATOM      7  C   UNL     1      48.374   8.125  11.880  0.00  0.00    +0.000 C 
BRANCH   7  10
ATOM      8  O   UNL     1      45.574   7.891  11.851  0.00  0.00    +0.000 OA
ATOM      9  C   UNL     1      46.249   6.985  11.372  0.00  0.00    +0.000 C 
ATOM     10  N   UNL     1      47.621   7.000  11.392  0.00  0.00    +0.000 N 
ATOM     11  H   UNL     1      48.131   6.304  10.857  0.00  0.00    +0.000 HD
BRANCH   9  12
ATOM     12  C   UNL     1      45.621   5.797  10.777  0.00  0.00    +0.000 A 
ATOM     13  C   UNL     1      45.833   5.503   9.437  0.00  0.00    +0.000 A 
ATOM     14  S   UNL     1      45.055   4.075   8.921  0.00  0.00    +0.000 S 
ATOM     15  C   UNL     1      44.435   3.781  10.480  0.00  0.00    +0.000 A 
ATOM     16  N   UNL     1      43.704   2.669  10.743  0.00  0.00    +0.000 NA
ATOM     17  C   UNL     1      43.348   2.546  11.977  0.00  0.00    +0.000 A 
ATOM     18  N   UNL     1      43.633   3.446  12.971  0.00  0.00    +0.000 N 
ATOM     19  C   UNL     1      44.292   4.629  12.730  0.00  0.00    +0.000 A 
ATOM     20  O   UNL     1      44.391   5.491  13.596  0.00  0.00    +0.000 OA
ATOM     21  C   UNL     1      44.783   4.780  11.373  0.00  0.00    +0.000 A 
ATOM     22  H   UNL     1      43.300   3.302  13.911  0.00  0.00    +0.000 HD
ENDBRANCH   9  12
ENDBRANCH   7  10
ENDBRANCH   1   7
BRANCH   4  23
ATOM     23  C   UNL     1      48.752   7.904  17.643  0.00  0.00    +0.000 C 
BRANCH  23  24
ATOM     24  N   UNL     1      47.706   7.063  18.250  0.00  0.00    +0.000 NA
ATOM     25  H   UNL     1      47.327   6.505  17.480  0.00  0.00    +0.000 HD
BRANCH  24  26
ATOM     26  C   UNL     1      48.236   6.168  19.281  0.00  0.00    +0.000 C 
BRANCH  26  27
ATOM     27  C   UNL     1      47.892   4.700  18.963  0.00  0.00    +0.000 C 
ATOM     28  C   UNL     1      47.178   4.517  17.609  0.00  0.00    +0.000 C 
ATOM     29  C   UNL     1      47.985   3.487  16.822  0.00  0.00    +0.000 C 
ATOM     30  C   UNL     1      49.389   3.581  17.397  0.00  0.00    +0.000 C 
ATOM     31  C   UNL     1      49.140   3.801  18.884  0.00  0.00    +0.000 C 
BRANCH  30  32
ATOM     32  O   UNL     1      50.115   4.658  16.816  0.00  0.00    +0.000 OA
ATOM     33  H   UNL     1      50.337   5.301  17.511  0.00  0.00    +0.000 HD
ENDBRANCH  30  32
ENDBRANCH  26  27
ENDBRANCH  24  26
ENDBRANCH  23  24
ENDBRANCH   4  23
TORSDOF 8
ENDMDL
MODEL 7
REMARK VINA RESULT:    -6.620      2.778      3.575
REMARK INTER + INTRA:         -10.754
REMARK INTER:                  -8.913
REMARK INTRA:                  -1.841
REMARK UNBOUND:                -1.231
REMARK  Name = 
REMARK  8 active torsions:
REMARK  status: ('A' for Active; 'I' for Inactive)
REMARK    1  A    between atoms: C_2  and  C_20
REMARK    2  A    between atoms: N_3  and  C_4
REMARK    3  A    between atoms: C_4  and  C_5
REMARK    4  A    between atoms: C_8  and  C_9
REMARK    5  A    between atoms: C_9  and  N_10
REMARK    6  A    between atoms: N_10  and  C_11
REMARK    7  A    between atoms: C_11  and  C_12
REMARK    8  A    between atoms: C_15  and  O_16
REMARK                            x       y       z     vdW  Elec       q    Type
REMARK                         _______ _______ _______ _____ _____    ______ ____
ROOT
ATOM      1  C   UNL     1      48.467   8.062  13.271  0.00  0.00    +0.000 A 
ATOM      2  C   UNL     1      48.284   7.305  12.111  0.00  0.00    +0.000 A 
ATOM      3  C   UNL     1      47.044   7.291  11.481  0.00  0.00    +0.000 A 
ATOM      4  C   UNL     1      46.007   8.052  12.016  0.00  0.00    +0.000 A 
ATOM      5  N   UNL     1      46.171   8.827  13.118  0.00  0.00    +0.000 NA
ATOM      6  C   UNL     1      47.387   8.815  13.715  0.00  0.00    +0.000 A 
ENDROOT
BRANCH   1   7
ATOM      7  C   UNL     1      49.779   8.062  14.000  0.00  0.00    +0.000 C 
BRANCH   7  10
ATOM      8  O   UNL     1      49.161   8.490  16.708  0.00  0.00    +0.000 OA
ATOM      9  C   UNL     1      49.451   7.357  16.339  0.00  0.00    +0.000 C 
ATOM     10  N   UNL     1      49.812   7.073  15.046  0.00  0.00    +0.000 N 
ATOM     11  H   UNL     1      49.900   6.105  14.757  0.00  0.00    +0.000 HD
BRANCH   9  12
ATOM     12  C   UNL     1      49.466   6.228  17.280  0.00  0.00    +0.000 A 
ATOM     13  C   UNL     1      50.257   6.292  18.420  0.00  0.00    +0.000 A 
ATOM     14  S   UNL     1      50.131   4.912  19.414  0.00  0.00    +0.000 S 
ATOM     15  C   UNL     1      48.989   4.194  18.374  0.00  0.00    +0.000 A 
ATOM     16  N   UNL     1      48.426   2.997  18.673  0.00  0.00    +0.000 NA
ATOM     17  C   UNL     1      47.536   2.602  17.826  0.00  0.00    +0.000 A 
ATOM     18  N   UNL     1      47.174   3.281  16.692  0.00  0.00    +0.000 N 
ATOM     19  C   UNL     1      47.784   4.451  16.304  0.00  0.00    +0.000 A 
ATOM     20  O   UNL     1      47.562   4.953  15.207  0.00  0.00    +0.000 OA
ATOM     21  C   UNL     1      48.738   4.980  17.261  0.00  0.00    +0.000 A 
ATOM     22  H   UNL     1      46.489   2.901  16.057  0.00  0.00    +0.000 HD
ENDBRANCH   9  12
ENDBRANCH   7  10
ENDBRANCH   1   7
BRANCH   4  23
ATOM     23  C   UNL     1      44.640   8.045  11.356  0.00  0.00    +0.000 C 
BRANCH  23  24
ATOM     24  N   UNL     1      44.252   6.741  10.792  0.00  0.00    +0.000 NA
ATOM     25  H   UNL     1      45.032   6.114  11.000  0.00  0.00    +0.000 HD
BRANCH  24  26
ATOM     26  C   UNL     1      43.029   6.212  11.399  0.00  0.00    +0.000 C 
BRANCH  26  27
ATOM     27  C   UNL     1      43.002   4.672  11.325  0.00  0.00    +0.000 C 
ATOM     28  C   UNL     1      43.991   4.091  10.294  0.00  0.00    +0.000 C 
ATOM     29  C   UNL     1      44.856   3.076  11.038  0.00  0.00    +0.000 C 
ATOM     30  C   UNL     1      44.816   3.529  12.488  0.00  0.00    +0.000 C 
ATOM     31  C   UNL     1      43.379   4.007  12.662  0.00  0.00    +0.000 C 
BRANCH  30  32
ATOM     32  O   UNL     1      45.754   4.571  12.731  0.00  0.00    +0.000 OA
ATOM     33  H   UNL     1      46.585   4.181  13.052  0.00  0.00    +0.000 HD
ENDBRANCH  30  32
ENDBRANCH  26  27
ENDBRANCH  24  26
ENDBRANCH  23  24
ENDBRANCH   4  23
TORSDOF 8
ENDMDL
MODEL 8
REMARK VINA RESULT:    -6.304      4.467      9.516
REMARK INTER + INTRA:         -10.299
REMARK INTER:                  -8.970
REMARK INTRA:                  -1.329
REMARK UNBOUND:                -1.231
REMARK  Name = 
REMARK  8 active torsions:
REMARK  status: ('A' for Active; 'I' for Inactive)
REMARK    1  A    between atoms: C_2  and  C_20
REMARK    2  A    between atoms: N_3  and  C_4
REMARK    3  A    between atoms: C_4  and  C_5
REMARK    4  A    between atoms: C_8  and  C_9
REMARK    5  A    between atoms: C_9  and  N_10
REMARK    6  A    between atoms: N_10  and  C_11
REMARK    7  A    between atoms: C_11  and  C_12
REMARK    8  A    between atoms: C_15  and  O_16
REMARK                            x       y       z     vdW  Elec       q    Type
REMARK                         _______ _______ _______ _____ _____    ______ ____
ROOT
ATOM      1  C   UNL     1      48.723   3.541  17.349  0.00  0.00    +0.000 A 
ATOM      2  C   UNL     1      49.506   2.419  17.067  0.00  0.00    +0.000 A 
ATOM      3  C   UNL     1      50.848   2.401  17.432  0.00  0.00    +0.000 A 
ATOM      4  C   UNL     1      51.383   3.506  18.091  0.00  0.00    +0.000 A 
ATOM      5  N   UNL     1      50.633   4.591  18.413  0.00  0.00    +0.000 NA
ATOM      6  C   UNL     1      49.330   4.583  18.038  0.00  0.00    +0.000 A 
ENDROOT
BRANCH   1   7
ATOM      7  C   UNL     1      47.283   3.611  16.929  0.00  0.00    +0.000 C 
BRANCH   7  10
ATOM      8  O   UNL     1      47.296   3.151  14.156  0.00  0.00    +0.000 OA
ATOM      9  C   UNL     1      47.049   4.280  14.568  0.00  0.00    +0.000 C 
ATOM     10  N   UNL     1      47.071   4.598  15.902  0.00  0.00    +0.000 N 
ATOM     11  H   UNL     1      46.719   5.501  16.202  0.00  0.00    +0.000 HD
BRANCH   9  12
ATOM     12  C   UNL     1      46.749   5.382  13.643  0.00  0.00    +0.000 A 
ATOM     13  C   UNL     1      45.633   5.307  12.821  0.00  0.00    +0.000 A 
ATOM     14  S   UNL     1      45.420   6.682  11.834  0.00  0.00    +0.000 S 
ATOM     15  C   UNL     1      46.793   7.441  12.495  0.00  0.00    +0.000 A 
ATOM     16  N   UNL     1      47.152   8.692  12.114  0.00  0.00    +0.000 NA
ATOM     17  C   UNL     1      48.178   9.165  12.738  0.00  0.00    +0.000 A 
ATOM     18  N   UNL     1      48.895   8.493  13.693  0.00  0.00    +0.000 N 
ATOM     19  C   UNL     1      48.622   7.192  14.044  0.00  0.00    +0.000 A 
ATOM     20  O   UNL     1      49.373   6.556  14.776  0.00  0.00    +0.000 OA
ATOM     21  C   UNL     1      47.429   6.639  13.428  0.00  0.00    +0.000 A 
ATOM     22  H   UNL     1      49.705   8.912  14.123  0.00  0.00    +0.000 HD
ENDBRANCH   9  12
ENDBRANCH   7  10
ENDBRANCH   1   7
BRANCH   4  23
ATOM     23  C   UNL     1      52.847   3.518  18.490  0.00  0.00    +0.000 C 
BRANCH  23  24
ATOM     24  N   UNL     1      53.475   2.186  18.511  0.00  0.00    +0.000 NA
ATOM     25  H   UNL     1      52.710   1.525  18.355  0.00  0.00    +0.000 HD
BRANCH  24  26
ATOM     26  C   UNL     1      54.479   2.024  17.457  0.00  0.00    +0.000 C 
BRANCH  26  27
ATOM     27  C   UNL     1      55.389   0.815  17.749  0.00  0.00    +0.000 C 
ATOM     28  C   UNL     1      55.576   0.538  19.254  0.00  0.00    +0.000 C 
ATOM     29  C   UNL     1      55.194  -0.923  19.483  0.00  0.00    +0.000 C 
ATOM     30  C   UNL     1      54.239  -1.250  18.347  0.00  0.00    +0.000 C 
ATOM     31  C   UNL     1      54.837  -0.499  17.164  0.00  0.00    +0.000 C 
BRANCH  30  32
ATOM     32  O   UNL     1      52.917  -0.814  18.638  0.00  0.00    +0.000 OA
ATOM     33  H   UNL     1      52.369  -1.587  18.859  0.00  0.00    +0.000 HD
ENDBRANCH  30  32
ENDBRANCH  26  27
ENDBRANCH  24  26
ENDBRANCH  23  24
ENDBRANCH   4  23
TORSDOF 8
ENDMDL
MODEL 9
REMARK VINA RESULT:    -6.261      3.134      4.759
REMARK INTER + INTRA:         -10.238
REMARK INTER:                  -9.025
REMARK INTRA:                  -1.213
REMARK UNBOUND:                -1.231
REMARK  Name = 
REMARK  8 active torsions:
REMARK  status: ('A' for Active; 'I' for Inactive)
REMARK    1  A    between atoms: C_2  and  C_20
REMARK    2  A    between atoms: N_3  and  C_4
REMARK    3  A    between atoms: C_4  and  C_5
REMARK    4  A    between atoms: C_8  and  C_9
REMARK    5  A    between atoms: C_9  and  N_10
REMARK    6  A    between atoms: N_10  and  C_11
REMARK    7  A    between atoms: C_11  and  C_12
REMARK    8  A    between atoms: C_15  and  O_16
REMARK                            x       y       z     vdW  Elec       q    Type
REMARK                         _______ _______ _______ _____ _____    ______ ____
ROOT
ATOM      1  C   UNL     1      49.517   7.115  15.187  0.00  0.00    +0.000 A 
ATOM      2  C   UNL     1      48.480   6.181  15.254  0.00  0.00    +0.000 A 
ATOM      3  C   UNL     1      47.661   5.974  14.149  0.00  0.00    +0.000 A 
ATOM      4  C   UNL     1      47.906   6.697  12.984  0.00  0.00    +0.000 A 
ATOM      5  N   UNL     1      48.932   7.580  12.880  0.00  0.00    +0.000 NA
ATOM      6  C   UNL     1      49.708   7.766  13.975  0.00  0.00    +0.000 A 
ENDROOT
BRANCH   1   7
ATOM      7  C   UNL     1      50.390   7.394  16.376  0.00  0.00    +0.000 C 
BRANCH   7  10
ATOM      8  O   UNL     1      51.383   6.730  18.920  0.00  0.00    +0.000 OA
ATOM      9  C   UNL     1      51.646   5.996  17.972  0.00  0.00    +0.000 C 
ATOM     10  N   UNL     1      51.241   6.275  16.691  0.00  0.00    +0.000 N 
ATOM     11  H   UNL     1      51.355   5.570  15.971  0.00  0.00    +0.000 HD
BRANCH   9  12
ATOM     12  C   UNL     1      52.452   4.781  18.148  0.00  0.00    +0.000 A 
ATOM     13  C   UNL     1      53.750   4.879  18.631  0.00  0.00    +0.000 A 
ATOM     14  S   UNL     1      54.529   3.371  18.801  0.00  0.00    +0.000 S 
ATOM     15  C   UNL     1      53.148   2.531  18.268  0.00  0.00    +0.000 A 
ATOM     16  N   UNL     1      53.127   1.175  18.223  0.00  0.00    +0.000 NA
ATOM     17  C   UNL     1      51.997   0.672  17.854  0.00  0.00    +0.000 A 
ATOM     18  N   UNL     1      50.890   1.399  17.502  0.00  0.00    +0.000 N 
ATOM     19  C   UNL     1      50.896   2.773  17.446  0.00  0.00    +0.000 A 
ATOM     20  O   UNL     1      49.952   3.397  16.972  0.00  0.00    +0.000 OA
ATOM     21  C   UNL     1      52.118   3.392  17.925  0.00  0.00    +0.000 A 
ATOM     22  H   UNL     1      50.046   0.942  17.196  0.00  0.00    +0.000 HD
ENDBRANCH   9  12
ENDBRANCH   7  10
ENDBRANCH   1   7
BRANCH   4  23
ATOM     23  C   UNL     1      47.020   6.501  11.767  0.00  0.00    +0.000 C 
BRANCH  23  24
ATOM     24  N   UNL     1      45.882   5.593  11.993  0.00  0.00    +0.000 NA
ATOM     25  H   UNL     1      45.855   5.441  13.003  0.00  0.00    +0.000 HD
BRANCH  24  26
ATOM     26  C   UNL     1      44.610   6.171  11.554  0.00  0.00    +0.000 C 
BRANCH  26  27
ATOM     27  C   UNL     1      43.806   5.156  10.719  0.00  0.00    +0.000 C 
ATOM     28  C   UNL     1      44.686   4.283   9.802  0.00  0.00    +0.000 C 
ATOM     29  C   UNL     1      44.345   2.829  10.120  0.00  0.00    +0.000 C 
ATOM     30  C   UNL     1      43.822   2.862  11.546  0.00  0.00    +0.000 C 
ATOM     31  C   UNL     1      43.022   4.158  11.592  0.00  0.00    +0.000 C 
BRANCH  30  32
ATOM     32  O   UNL     1      44.888   2.864  12.489  0.00  0.00    +0.000 OA
ATOM     33  H   UNL     1      44.724   3.558  13.151  0.00  0.00    +0.000 HD
ENDBRANCH  30  32
ENDBRANCH  26  27
ENDBRANCH  24  26
ENDBRANCH  23  24
ENDBRANCH   4  23
TORSDOF 8
ENDMDL
