MODEL 1
REMARK VINA RESULT:    -6.699      0.000      0.000
REMARK INTER + INTRA:          -8.902
REMARK INTER:                  -8.462
REMARK INTRA:                  -0.440
REMARK UNBOUND:                -0.440
REMARK  Name = 
REMARK  5 active torsions:
REMARK  status: ('A' for Active; 'I' for Inactive)
REMARK    1  A    between atoms: N_1  and  C_2
REMARK    2  A    between atoms: C_2  and  C_3
REMARK    3  A    between atoms: C_6  and  C_7
REMARK    4  A    between atoms: C_7  and  N_8
REMARK    5  A    between atoms: C_13  and  C_14
REMARK                            x       y       z     vdW  Elec       q    Type
REMARK                         _______ _______ _______ _____ _____    ______ ____
ROOT
ATOM      1  N   UNL     1      46.780   6.124  12.469  0.00  0.00    +0.000 N 
ATOM      2  C   UNL     1      47.507   7.265  12.710  0.00  0.00    +0.000 A 
ATOM      3  C   UNL     1      47.935   7.225  14.012  0.00  0.00    +0.000 A 
ATOM      4  C   UNL     1      47.709   5.909  14.482  0.00  0.00    +0.000 A 
ATOM      5  C   UNL     1      48.060   5.255  15.665  0.00  0.00    +0.000 A 
ATOM      6  C   UNL     1      47.835   3.889  15.702  0.00  0.00    +0.000 A 
ATOM      7  N   UNL     1      47.248   3.172  14.702  0.00  0.00    +0.000 NA
ATOM      8  C   UNL     1      46.830   3.825  13.584  0.00  0.00    +0.000 A 
ATOM      9  C   UNL     1      47.061   5.199  13.463  0.00  0.00    +0.000 A 
ENDROOT
BRANCH   6  10
ATOM     10  C   UNL     1      48.345   3.132  16.896  0.00  0.00    +0.000 C 
ATOM     11  N   UNL     1      47.417   2.823  17.854  0.00  0.00    +0.000 N 
ATOM     12  O   UNL     1      49.513   2.782  17.008  0.00  0.00    +0.000 OA
ATOM     13  H   UNL     1      46.446   3.077  17.716  0.00  0.00    +0.000 HD
ATOM     14  H   UNL     1      47.697   2.255  18.640  0.00  0.00    +0.000 HD
ENDBRANCH   6  10
BRANCH   1  15
ATOM     15  C   UNL     1      45.951   5.944  11.288  0.00  0.00    +0.000 C 
BRANCH  15  19
ATOM     16  C   UNL     1      42.959   4.353  11.635  0.00  0.00    +0.000 C 
ATOM     17  C   UNL     1      43.116   5.038  12.982  0.00  0.00    +0.000 C 
ATOM     18  O   UNL     1      44.125   6.056  12.853  0.00  0.00    +0.000 OA
ATOM     19  C   UNL     1      44.447   6.262  11.460  0.00  0.00    +0.000 C 
ATOM     20  C   UNL     1      43.403   5.452  10.688  0.00  0.00    +0.000 C 
BRANCH  16  21
ATOM     21  C   UNL     1      43.781   3.069  11.473  0.00  0.00    +0.000 C 
BRANCH  21  22
ATOM     22  N   UNL     1      42.977   1.873  11.701  0.00  0.00    +0.000 NA
ATOM     23  H   UNL     1      43.159   1.514  12.639  0.00  0.00    +0.000 HD
ATOM     24  H   UNL     1      43.259   1.133  11.062  0.00  0.00    +0.000 HD
ENDBRANCH  21  22
ENDBRANCH  16  21
ENDBRANCH  15  19
ENDBRANCH   1  15
TORSDOF 5
ENDMDL
MODEL 2
REMARK VINA RESULT:    -6.283      1.518      1.914
REMARK INTER + INTRA:          -8.376
REMARK INTER:                  -7.876
REMARK INTRA:                  -0.500
REMARK UNBOUND:                -0.440
REMARK  Name = 
REMARK  5 active torsions:
REMARK  status: ('A' for Active; 'I' for Inactive)
REMARK    1  A    between atoms: N_1  and  C_2
REMARK    2  A    between atoms: C_2  and  C_3
REMARK    3  A    between atoms: C_6  and  C_7
REMARK    4  A    between atoms: C_7  and  N_8
REMARK    5  A    between atoms: C_13  and  C_14
REMARK                            x       y       z     vdW  Elec       q    Type
REMARK                         _______ _______ _______ _____ _____    ______ ____
ROOT
ATOM      1  N   UNL     1      46.962   5.225  14.111  0.00  0.00    +0.000 N 
ATOM      2  C   UNL     1      47.812   6.205  13.658  0.00  0.00    +0.000 A 
ATOM      3  C   UNL     1      48.502   6.696  14.735  0.00  0.00    +0.000 A 
ATOM      4  C   UNL     1      48.277   5.806  15.813  0.00  0.00    +0.000 A 
ATOM      5  C   UNL     1      48.818   5.720  17.097  0.00  0.00    +0.000 A 
ATOM      6  C   UNL     1      48.498   4.587  17.825  0.00  0.00    +0.000 A 
ATOM      7  N   UNL     1      47.656   3.602  17.397  0.00  0.00    +0.000 NA
ATOM      8  C   UNL     1      47.064   3.728  16.179  0.00  0.00    +0.000 A 
ATOM      9  C   UNL     1      47.373   4.829  15.375  0.00  0.00    +0.000 A 
ENDROOT
BRANCH   6  10
ATOM     10  C   UNL     1      49.188   4.389  19.145  0.00  0.00    +0.000 C 
ATOM     11  N   UNL     1      48.548   3.577  20.042  0.00  0.00    +0.000 N 
ATOM     12  O   UNL     1      50.271   4.896  19.408  0.00  0.00    +0.000 OA
ATOM     13  H   UNL     1      47.679   3.126  19.784  0.00  0.00    +0.000 HD
ATOM     14  H   UNL     1      49.006   3.357  20.915  0.00  0.00    +0.000 HD
ENDBRANCH   6  10
BRANCH   1  15
ATOM     15  C   UNL     1      45.889   4.667  13.304  0.00  0.00    +0.000 C 
BRANCH  15  19
ATOM     16  C   UNL     1      43.418   4.832  10.965  0.00  0.00    +0.000 C 
ATOM     17  C   UNL     1      42.660   5.105  12.253  0.00  0.00    +0.000 C 
ATOM     18  O   UNL     1      43.614   5.455  13.271  0.00  0.00    +0.000 OA
ATOM     19  C   UNL     1      44.910   5.687  12.676  0.00  0.00    +0.000 C 
ATOM     20  C   UNL     1      44.661   5.676  11.166  0.00  0.00    +0.000 C 
BRANCH  16  21
ATOM     21  C   UNL     1      43.744   3.353  10.719  0.00  0.00    +0.000 C 
BRANCH  21  22
ATOM     22  N   UNL     1      43.088   2.481  11.687  0.00  0.00    +0.000 NA
ATOM     23  H   UNL     1      43.357   2.757  12.632  0.00  0.00    +0.000 HD
ATOM     24  H   UNL     1      43.415   1.524  11.575  0.00  0.00    +0.000 HD
ENDBRANCH  21  22
ENDBRANCH  16  21
ENDBRANCH  15  19
ENDBRANCH   1  15
TORSDOF 5
ENDMDL
MODEL 3
REMARK VINA RESULT:    -6.262      1.968      6.012
REMARK INTER + INTRA:          -8.349
REMARK INTER:                  -7.954
REMARK INTRA:                  -0.395
REMARK UNBOUND:                -0.440
REMARK  Name = 
REMARK  5 active torsions:
REMARK  status: ('A' for Active; 'I' for Inactive)
REMARK    1  A    between atoms: N_1  and  C_2
REMARK    2  A    between atoms: C_2  and  C_3
REMARK    3  A    between atoms: C_6  and  C_7
REMARK    4  A    between atoms: C_7  and  N_8
REMARK    5  A    between atoms: C_13  and  C_14
REMARK                            x       y       z     vdW  Elec       q    Type
REMARK                         _______ _______ _______ _____ _____    ______ ____
ROOT
ATOM      1  N   UNL     1      47.778   5.951  14.342  0.00  0.00    +0.000 N 
ATOM      2  C   UNL     1      47.777   7.273  13.966  0.00  0.00    +0.000 A 
ATOM      3  C   UNL     1      47.207   7.357  12.722  0.00  0.00    +0.000 A 
ATOM      4  C   UNL     1      46.593   6.108  12.463  0.00  0.00    +0.000 A 
ATOM      5  C   UNL     1      45.764   5.658  11.433  0.00  0.00    +0.000 A 
ATOM      6  C   UNL     1      45.187   4.412  11.607  0.00  0.00    +0.000 A 
ATOM      7  N   UNL     1      45.423   3.590  12.670  0.00  0.00    +0.000 NA
ATOM      8  C   UNL     1      46.296   3.995  13.632  0.00  0.00    +0.000 A 
ATOM      9  C   UNL     1      46.885   5.259  13.538  0.00  0.00    +0.000 A 
ENDROOT
BRANCH   6  10
ATOM     10  C   UNL     1      44.169   3.968  10.595  0.00  0.00    +0.000 C 
ATOM     11  N   UNL     1      43.998   4.791   9.514  0.00  0.00    +0.000 N 
ATOM     12  O   UNL     1      43.541   2.922  10.702  0.00  0.00    +0.000 OA
ATOM     13  H   UNL     1      44.565   5.625   9.420  0.00  0.00    +0.000 HD
ATOM     14  H   UNL     1      43.377   4.500   8.773  0.00  0.00    +0.000 HD
ENDBRANCH   6  10
BRANCH   1  15
ATOM     15  C   UNL     1      48.536   5.448  15.476  0.00  0.00    +0.000 C 
BRANCH  15  19
ATOM     16  C   UNL     1      48.524   3.119  17.962  0.00  0.00    +0.000 C 
ATOM     17  C   UNL     1      48.776   4.406  18.729  0.00  0.00    +0.000 C 
ATOM     18  O   UNL     1      48.421   5.512  17.880  0.00  0.00    +0.000 OA
ATOM     19  C   UNL     1      47.709   5.035  16.717  0.00  0.00    +0.000 C 
ATOM     20  C   UNL     1      47.439   3.556  16.996  0.00  0.00    +0.000 C 
BRANCH  16  21
ATOM     21  C   UNL     1      49.756   2.552  17.246  0.00  0.00    +0.000 C 
BRANCH  21  22
ATOM     22  N   UNL     1      49.393   1.788  16.057  0.00  0.00    +0.000 NA
ATOM     23  H   UNL     1      50.239   1.472  15.582  0.00  0.00    +0.000 HD
ATOM     24  H   UNL     1      48.909   2.385  15.390  0.00  0.00    +0.000 HD
ENDBRANCH  21  22
ENDBRANCH  16  21
ENDBRANCH  15  19
ENDBRANCH   1  15
TORSDOF 5
ENDMDL
MODEL 4
REMARK VINA RESULT:    -5.699      2.751      6.102
REMARK INTER + INTRA:          -7.638
REMARK INTER:                  -6.784
REMARK INTRA:                  -0.854
REMARK UNBOUND:                -0.440
REMARK  Name = 
REMARK  5 active torsions:
REMARK  status: ('A' for Active; 'I' for Inactive)
REMARK    1  A    between atoms: N_1  and  C_2
REMARK    2  A    between atoms: C_2  and  C_3
REMARK    3  A    between atoms: C_6  and  C_7
REMARK    4  A    between atoms: C_7  and  N_8
REMARK    5  A    between atoms: C_13  and  C_14
REMARK                            x       y       z     vdW  Elec       q    Type
REMARK                         _______ _______ _______ _____ _____    ______ ____
ROOT
ATOM      1  N   UNL     1      46.977   7.508  13.400  0.00  0.00    +0.000 N 
ATOM      2  C   UNL     1      46.194   8.538  12.937  0.00  0.00    +0.000 A 
ATOM      3  C   UNL     1      45.307   8.019  12.030  0.00  0.00    +0.000 A 
ATOM      4  C   UNL     1      45.359   6.610  12.158  0.00  0.00    +0.000 A 
ATOM      5  C   UNL     1      44.599   5.581  11.600  0.00  0.00    +0.000 A 
ATOM      6  C   UNL     1      44.815   4.311  12.108  0.00  0.00    +0.000 A 
ATOM      7  N   UNL     1      45.747   4.002  13.054  0.00  0.00    +0.000 NA
ATOM      8  C   UNL     1      46.546   4.993  13.536  0.00  0.00    +0.000 A 
ATOM      9  C   UNL     1      46.355   6.305  13.095  0.00  0.00    +0.000 A 
ENDROOT
BRANCH   6  10
ATOM     10  C   UNL     1      43.903   3.211  11.642  0.00  0.00    +0.000 C 
ATOM     11  N   UNL     1      43.657   2.212  12.546  0.00  0.00    +0.000 N 
ATOM     12  O   UNL     1      43.383   3.207  10.533  0.00  0.00    +0.000 OA
ATOM     13  H   UNL     1      44.055   2.262  13.475  0.00  0.00    +0.000 HD
ATOM     14  H   UNL     1      42.995   1.488  12.304  0.00  0.00    +0.000 HD
ENDBRANCH   6  10
BRANCH   1  15
ATOM     15  C   UNL     1      48.193   7.716  14.169  0.00  0.00    +0.000 C 
BRANCH  15  19
ATOM     16  C   UNL     1      50.221   8.842  11.674  0.00  0.00    +0.000 C 
ATOM     17  C   UNL     1      51.093   9.024  12.904  0.00  0.00    +0.000 C 
ATOM     18  O   UNL     1      50.535   8.239  13.973  0.00  0.00    +0.000 OA
ATOM     19  C   UNL     1      49.517   7.353  13.456  0.00  0.00    +0.000 C 
ATOM     20  C   UNL     1      49.622   7.473  11.935  0.00  0.00    +0.000 C 
BRANCH  16  21
ATOM     21  C   UNL     1      49.152   9.925  11.485  0.00  0.00    +0.000 C 
BRANCH  21  22
ATOM     22  N   UNL     1      49.111  10.854  12.608  0.00  0.00    +0.000 NA
ATOM     23  H   UNL     1      48.227  11.365  12.597  0.00  0.00    +0.000 HD
ATOM     24  H   UNL     1      49.839  11.558  12.508  0.00  0.00    +0.000 HD
ENDBRANCH  21  22
ENDBRANCH  16  21
ENDBRANCH  15  19
ENDBRANCH   1  15
TORSDOF 5
ENDMDL
MODEL 5
REMARK VINA RESULT:    -5.610      1.953      2.356
REMARK INTER + INTRA:          -7.525
REMARK INTER:                  -7.181
REMARK INTRA:                  -0.345
REMARK UNBOUND:                -0.440
REMARK  Name = 
REMARK  5 active torsions:
REMARK  status: ('A' for Active; 'I' for Inactive)
REMARK    1  A    between atoms: N_1  and  C_2
REMARK    2  A    between atoms: C_2  and  C_3
REMARK    3  A    between atoms: C_6  and  C_7
REMARK    4  A    between atoms: C_7  and  N_8
REMARK    5  A    between atoms: C_13  and  C_14
REMARK                            x       y       z     vdW  Elec       q    Type
REMARK                         _______ _______ _______ _____ _____    ______ ____
ROOT
ATOM      1  N   UNL     1      47.098   6.911  12.362  0.00  0.00    +0.000 N 
ATOM      2  C   UNL     1      48.040   7.742  11.803  0.00  0.00    +0.000 A 
ATOM      3  C   UNL     1      48.938   8.079  12.782  0.00  0.00    +0.000 A 
ATOM      4  C   UNL     1      48.703   7.212  13.877  0.00  0.00    +0.000 A 
ATOM      5  C   UNL     1      49.382   7.002  15.079  0.00  0.00    +0.000 A 
ATOM      6  C   UNL     1      48.966   5.922  15.839  0.00  0.00    +0.000 A 
ATOM      7  N   UNL     1      47.918   5.108  15.524  0.00  0.00    +0.000 NA
ATOM      8  C   UNL     1      47.204   5.366  14.394  0.00  0.00    +0.000 A 
ATOM      9  C   UNL     1      47.594   6.418  13.560  0.00  0.00    +0.000 A 
ENDROOT
BRANCH   6  10
ATOM     10  C   UNL     1      49.776   5.575  17.057  0.00  0.00    +0.000 C 
ATOM     11  N   UNL     1      49.520   6.315  18.180  0.00  0.00    +0.000 N 
ATOM     12  O   UNL     1      50.602   4.671  17.067  0.00  0.00    +0.000 OA
ATOM     13  H   UNL     1      48.796   7.023  18.164  0.00  0.00    +0.000 HD
ATOM     14  H   UNL     1      49.988   6.072  19.042  0.00  0.00    +0.000 HD
ENDBRANCH   6  10
BRANCH   1  15
ATOM     15  C   UNL     1      45.849   6.567  11.701  0.00  0.00    +0.000 C 
BRANCH  15  19
ATOM     16  C   UNL     1      43.441   4.191  11.304  0.00  0.00    +0.000 C 
ATOM     17  C   UNL     1      43.910   4.415   9.876  0.00  0.00    +0.000 C 
ATOM     18  O   UNL     1      45.179   5.091   9.920  0.00  0.00    +0.000 OA
ATOM     19  C   UNL     1      45.695   5.089  11.270  0.00  0.00    +0.000 C 
ATOM     20  C   UNL     1      44.761   4.161  12.050  0.00  0.00    +0.000 C 
BRANCH  16  21
ATOM     21  C   UNL     1      42.488   5.268  11.837  0.00  0.00    +0.000 C 
BRANCH  21  22
ATOM     22  N   UNL     1      42.633   5.461  13.276  0.00  0.00    +0.000 NA
ATOM     23  H   UNL     1      41.711   5.475  13.714  0.00  0.00    +0.000 HD
ATOM     24  H   UNL     1      43.044   6.372  13.468  0.00  0.00    +0.000 HD
ENDBRANCH  21  22
ENDBRANCH  16  21
ENDBRANCH  15  19
ENDBRANCH   1  15
TORSDOF 5
ENDMDL
MODEL 6
REMARK VINA RESULT:    -5.543      2.916      6.329
REMARK INTER + INTRA:          -7.442
REMARK INTER:                  -6.783
REMARK INTRA:                  -0.658
REMARK UNBOUND:                -0.440
REMARK  Name = 
REMARK  5 active torsions:
REMARK  status: ('A' for Active; 'I' for Inactive)
REMARK    1  A    between atoms: N_1  and  C_2
REMARK    2  A    between atoms: C_2  and  C_3
REMARK    3  A    between atoms: C_6  and  C_7
REMARK    4  A    between atoms: C_7  and  N_8
REMARK    5  A    between atoms: C_13  and  C_14
REMARK                            x       y       z     vdW  Elec       q    Type
REMARK                         _______ _______ _______ _____ _____    ______ ____
ROOT
ATOM      1  N   UNL     1      47.355   6.420  13.675  0.00  0.00    +0.000 N 
ATOM      2  C   UNL     1      47.678   5.430  14.571  0.00  0.00    +0.000 A 
ATOM      3  C   UNL     1      46.819   4.381  14.368  0.00  0.00    +0.000 A 
ATOM      4  C   UNL     1      46.154   4.621  13.142  0.00  0.00    +0.000 A 
ATOM      5  C   UNL     1      45.282   3.848  12.373  0.00  0.00    +0.000 A 
ATOM      6  C   UNL     1      44.972   4.338  11.116  0.00  0.00    +0.000 A 
ATOM      7  N   UNL     1      45.406   5.532  10.619  0.00  0.00    +0.000 NA
ATOM      8  C   UNL     1      46.188   6.324  11.404  0.00  0.00    +0.000 A 
ATOM      9  C   UNL     1      46.571   5.872  12.670  0.00  0.00    +0.000 A 
ENDROOT
BRANCH   6  10
ATOM     10  C   UNL     1      44.165   3.457  10.204  0.00  0.00    +0.000 C 
ATOM     11  N   UNL     1      44.182   3.790   8.876  0.00  0.00    +0.000 N 
ATOM     12  O   UNL     1      43.545   2.480  10.606  0.00  0.00    +0.000 OA
ATOM     13  H   UNL     1      44.744   4.570   8.559  0.00  0.00    +0.000 HD
ATOM     14  H   UNL     1      43.714   3.186   8.215  0.00  0.00    +0.000 HD
ENDBRANCH   6  10
BRANCH   1  15
ATOM     15  C   UNL     1      47.871   7.776  13.767  0.00  0.00    +0.000 C 
BRANCH  15  19
ATOM     16  C   UNL     1      49.261   9.960  11.553  0.00  0.00    +0.000 C 
ATOM     17  C   UNL     1      50.049  10.242  12.820  0.00  0.00    +0.000 C 
ATOM     18  O   UNL     1      49.853   9.142  13.727  0.00  0.00    +0.000 OA
ATOM     19  C   UNL     1      49.210   8.044  13.041  0.00  0.00    +0.000 C 
ATOM     20  C   UNL     1      49.211   8.444  11.565  0.00  0.00    +0.000 C 
BRANCH  16  21
ATOM     21  C   UNL     1      47.865  10.594  11.517  0.00  0.00    +0.000 C 
BRANCH  21  22
ATOM     22  N   UNL     1      47.533  11.256  12.774  0.00  0.00    +0.000 NA
ATOM     23  H   UNL     1      48.391  11.552  13.241  0.00  0.00    +0.000 HD
ATOM     24  H   UNL     1      47.084  10.599  13.408  0.00  0.00    +0.000 HD
ENDBRANCH  21  22
ENDBRANCH  16  21
ENDBRANCH  15  19
ENDBRANCH   1  15
TORSDOF 5
ENDMDL
MODEL 7
REMARK VINA RESULT:    -5.537      2.631      6.367
REMARK INTER + INTRA:          -7.433
REMARK INTER:                  -7.037
REMARK INTRA:                  -0.396
REMARK UNBOUND:                -0.440
REMARK  Name = 
REMARK  5 active torsions:
REMARK  status: ('A' for Active; 'I' for Inactive)
REMARK    1  A    between atoms: N_1  and  C_2
REMARK    2  A    between atoms: C_2  and  C_3
REMARK    3  A    between atoms: C_6  and  C_7
REMARK    4  A    between atoms: C_7  and  N_8
REMARK    5  A    between atoms: C_13  and  C_14
REMARK                            x       y       z     vdW  Elec       q    Type
REMARK                         _______ _______ _______ _____ _____    ______ ____
ROOT
ATOM      1  N   UNL     1      47.391   6.534  13.588  0.00  0.00    +0.000 N 
ATOM      2  C   UNL     1      46.975   7.683  12.959  0.00  0.00    +0.000 A 
ATOM      3  C   UNL     1      46.274   7.319  11.838  0.00  0.00    +0.000 A 
ATOM      4  C   UNL     1      46.015   5.932  11.943  0.00  0.00    +0.000 A 
ATOM      5  C   UNL     1      45.242   5.054  11.180  0.00  0.00    +0.000 A 
ATOM      6  C   UNL     1      45.065   3.782  11.697  0.00  0.00    +0.000 A 
ATOM      7  N   UNL     1      45.637   3.325  12.848  0.00  0.00    +0.000 NA
ATOM      8  C   UNL     1      46.458   4.156  13.547  0.00  0.00    +0.000 A 
ATOM      9  C   UNL     1      46.650   5.467  13.102  0.00  0.00    +0.000 A 
ENDROOT
BRANCH   6  10
ATOM     10  C   UNL     1      44.112   2.866  10.981  0.00  0.00    +0.000 C 
ATOM     11  N   UNL     1      44.607   2.231   9.874  0.00  0.00    +0.000 N 
ATOM     12  O   UNL     1      42.967   2.669  11.368  0.00  0.00    +0.000 OA
ATOM     13  H   UNL     1      45.573   2.368   9.602  0.00  0.00    +0.000 HD
ATOM     14  H   UNL     1      44.027   1.552   9.401  0.00  0.00    +0.000 HD
ENDBRANCH   6  10
BRANCH   1  15
ATOM     15  C   UNL     1      48.379   6.525  14.655  0.00  0.00    +0.000 C 
BRANCH  15  19
ATOM     16  C   UNL     1      49.742   8.447  17.115  0.00  0.00    +0.000 C 
ATOM     17  C   UNL     1      50.974   7.934  16.388  0.00  0.00    +0.000 C 
ATOM     18  O   UNL     1      50.562   7.434  15.103  0.00  0.00    +0.000 OA
ATOM     19  C   UNL     1      49.198   7.825  14.834  0.00  0.00    +0.000 C 
ATOM     20  C   UNL     1      48.838   8.806  15.951  0.00  0.00    +0.000 C 
BRANCH  16  21
ATOM     21  C   UNL     1      49.098   7.435  18.070  0.00  0.00    +0.000 C 
BRANCH  21  22
ATOM     22  N   UNL     1      47.658   7.639  18.192  0.00  0.00    +0.000 NA
ATOM     23  H   UNL     1      47.394   7.625  19.178  0.00  0.00    +0.000 HD
ATOM     24  H   UNL     1      47.156   6.867  17.760  0.00  0.00    +0.000 HD
ENDBRANCH  21  22
ENDBRANCH  16  21
ENDBRANCH  15  19
ENDBRANCH   1  15
TORSDOF 5
ENDMDL
MODEL 8
REMARK VINA RESULT:    -5.259      2.700      4.390
REMARK INTER + INTRA:          -7.082
REMARK INTER:                  -6.618
REMARK INTRA:                  -0.464
REMARK UNBOUND:                -0.440
REMARK  Name = 
REMARK  5 active torsions:
REMARK  status: ('A' for Active; 'I' for Inactive)
REMARK    1  A    between atoms: N_1  and  C_2
REMARK    2  A    between atoms: C_2  and  C_3
REMARK    3  A    between atoms: C_6  and  C_7
REMARK    4  A    between atoms: C_7  and  N_8
REMARK    5  A    between atoms: C_13  and  C_14
REMARK                            x       y       z     vdW  Elec       q    Type
REMARK                         _______ _______ _______ _____ _____    ______ ____
ROOT
ATOM      1  N   UNL     1      46.934   4.950  13.805  0.00  0.00    +0.000 N 
ATOM      2  C   UNL     1      47.218   4.729  15.132  0.00  0.00    +0.000 A 
ATOM      3  C   UNL     1      48.151   5.654  15.522  0.00  0.00    +0.000 A 
ATOM      4  C   UNL     1      48.222   6.630  14.499  0.00  0.00    +0.000 A 
ATOM      5  C   UNL     1      48.887   7.854  14.405  0.00  0.00    +0.000 A 
ATOM      6  C   UNL     1      48.570   8.643  13.313  0.00  0.00    +0.000 A 
ATOM      7  N   UNL     1      47.714   8.279  12.314  0.00  0.00    +0.000 NA
ATOM      8  C   UNL     1      47.132   7.051  12.365  0.00  0.00    +0.000 A 
ATOM      9  C   UNL     1      47.378   6.218  13.460  0.00  0.00    +0.000 A 
ENDROOT
BRANCH   6  10
ATOM     10  C   UNL     1      49.147  10.030  13.265  0.00  0.00    +0.000 C 
ATOM     11  N   UNL     1      48.580  10.946  14.110  0.00  0.00    +0.000 N 
ATOM     12  O   UNL     1      50.085  10.332  12.539  0.00  0.00    +0.000 OA
ATOM     13  H   UNL     1      47.840  10.662  14.740  0.00  0.00    +0.000 HD
ATOM     14  H   UNL     1      48.979  11.872  14.166  0.00  0.00    +0.000 HD
ENDBRANCH   6  10
BRANCH   1  15
ATOM     15  C   UNL     1      46.194   4.006  12.983  0.00  0.00    +0.000 C 
BRANCH  15  19
ATOM     16  C   UNL     1      43.698   4.159  10.669  0.00  0.00    +0.000 C 
ATOM     17  C   UNL     1      43.325   2.919  11.463  0.00  0.00    +0.000 C 
ATOM     18  O   UNL     1      44.052   2.943  12.705  0.00  0.00    +0.000 OA
ATOM     19  C   UNL     1      44.667   4.237  12.893  0.00  0.00    +0.000 C 
ATOM     20  C   UNL     1      44.092   5.115  11.779  0.00  0.00    +0.000 C 
BRANCH  16  21
ATOM     21  C   UNL     1      44.823   3.948   9.648  0.00  0.00    +0.000 C 
BRANCH  21  22
ATOM     22  N   UNL     1      45.329   5.212   9.124  0.00  0.00    +0.000 NA
ATOM     23  H   UNL     1      44.548   5.846   8.948  0.00  0.00    +0.000 HD
ATOM     24  H   UNL     1      45.775   5.065   8.221  0.00  0.00    +0.000 HD
ENDBRANCH  21  22
ENDBRANCH  16  21
ENDBRANCH  15  19
ENDBRANCH   1  15
TORSDOF 5
ENDMDL
MODEL 9
REMARK VINA RESULT:    -5.229      3.216      6.355
REMARK INTER + INTRA:          -7.044
REMARK INTER:                  -6.672
REMARK INTRA:                  -0.372
REMARK UNBOUND:                -0.440
REMARK  Name = 
REMARK  5 active torsions:
REMARK  status: ('A' for Active; 'I' for Inactive)
REMARK    1  A    between atoms: N_1  and  C_2
REMARK    2  A    between atoms: C_2  and  C_3
REMARK    3  A    between atoms: C_6  and  C_7
REMARK    4  A    between atoms: C_7  and  N_8
REMARK    5  A    between atoms: C_13  and  C_14
REMARK                            x       y       z     vdW  Elec       q    Type
REMARK                         _______ _______ _______ _____ _____    ______ ____
ROOT
ATOM      1  N   UNL     1      45.957   6.313  12.770  0.00  0.00    +0.000 N 
ATOM      2  C   UNL     1      46.172   5.436  13.806  0.00  0.00    +0.000 A 
ATOM      3  C   UNL     1      45.653   4.220  13.444  0.00  0.00    +0.000 A 
ATOM      4  C   UNL     1      45.377   4.283  12.057  0.00  0.00    +0.000 A 
ATOM      5  C   UNL     1      44.970   3.322  11.130  0.00  0.00    +0.000 A 
ATOM      6  C   UNL     1      44.983   3.707   9.800  0.00  0.00    +0.000 A 
ATOM      7  N   UNL     1      45.302   4.956   9.356  0.00  0.00    +0.000 NA
ATOM      8  C   UNL     1      45.617   5.916  10.268  0.00  0.00    +0.000 A 
ATOM      9  C   UNL     1      45.661   5.585  11.626  0.00  0.00    +0.000 A 
ENDROOT
BRANCH   6  10
ATOM     10  C   UNL     1      44.704   2.651   8.767  0.00  0.00    +0.000 C 
ATOM     11  N   UNL     1      44.533   3.096   7.484  0.00  0.00    +0.000 N 
ATOM     12  O   UNL     1      44.654   1.457   9.037  0.00  0.00    +0.000 OA
ATOM     13  H   UNL     1      44.631   4.082   7.274  0.00  0.00    +0.000 HD
ATOM     14  H   UNL     1      44.414   2.419   6.744  0.00  0.00    +0.000 HD
ENDBRANCH   6  10
BRANCH   1  15
ATOM     15  C   UNL     1      46.131   7.751  12.895  0.00  0.00    +0.000 C 
BRANCH  15  19
ATOM     16  C   UNL     1      49.253   8.572  13.984  0.00  0.00    +0.000 C 
ATOM     17  C   UNL     1      49.535   7.409  13.048  0.00  0.00    +0.000 C 
ATOM     18  O   UNL     1      48.377   7.209  12.217  0.00  0.00    +0.000 OA
ATOM     19  C   UNL     1      47.467   8.322  12.361  0.00  0.00    +0.000 C 
ATOM     20  C   UNL     1      48.235   9.360  13.182  0.00  0.00    +0.000 C 
BRANCH  16  21
ATOM     21  C   UNL     1      48.726   8.165  15.365  0.00  0.00    +0.000 C 
BRANCH  21  22
ATOM     22  N   UNL     1      47.759   9.126  15.886  0.00  0.00    +0.000 NA
ATOM     23  H   UNL     1      46.858   8.666  16.018  0.00  0.00    +0.000 HD
ATOM     24  H   UNL     1      47.596   9.864  15.204  0.00  0.00    +0.000 HD
ENDBRANCH  21  22
ENDBRANCH  16  21
ENDBRANCH  15  19
ENDBRANCH   1  15
TORSDOF 5
ENDMDL
