MODEL 1
REMARK VINA RESULT:    -7.760      0.000      0.000
REMARK INTER + INTRA:         -11.300
REMARK INTER:                 -10.936
REMARK INTRA:                  -0.364
REMARK UNBOUND:                -0.364
REMARK  Name = 
REMARK  8 active torsions:
REMARK  status: ('A' for Active; 'I' for Inactive)
REMARK    1  A    between atoms: C_1  and  S_2
REMARK    2  A    between atoms: S_2  and  C_3
REMARK    3  A    between atoms: C_5  and  C_6
REMARK    4  A    between atoms: C_11  and  N_12
REMARK    5  A    between atoms: N_12  and  C_13
REMARK    6  A    between atoms: C_13  and  C_14
REMARK    7  A    between atoms: C_17  and  O_18
REMARK    8  A    between atoms: O_18  and  C_19
REMARK                            x       y       z     vdW  Elec       q    Type
REMARK                         _______ _______ _______ _____ _____    ______ ____
ROOT
ATOM      1  N   UNL     1      46.021   3.804  13.174  0.00  0.00    +0.000 N 
ATOM      2  H   UNL     1      46.312   2.832  13.230  0.00  0.00    +0.000 HD
ENDROOT
BRANCH   1   8
ATOM      3  C   UNL     1      47.519   5.700  13.912  0.00  0.00    +0.000 A 
ATOM      4  C   UNL     1      48.227   6.202  15.022  0.00  0.00    +0.000 A 
ATOM      5  C   UNL     1      48.226   5.536  16.248  0.00  0.00    +0.000 A 
ATOM      6  C   UNL     1      47.493   4.373  16.319  0.00  0.00    +0.000 A 
ATOM      7  N   UNL     1      46.787   3.865  15.281  0.00  0.00    +0.000 NA
ATOM      8  C   UNL     1      46.785   4.515  14.085  0.00  0.00    +0.000 A 
BRANCH   5   9
ATOM      9  C   UNL     1      48.989   6.104  17.385  0.00  0.00    +0.000 C 
ATOM     10  N   UNL     1      48.377   6.986  18.230  0.00  0.00    +0.000 N 
ATOM     11  O   UNL     1      50.158   5.788  17.577  0.00  0.00    +0.000 OA
ATOM     12  H   UNL     1      47.423   7.307  18.174  0.00  0.00    +0.000 HD
ATOM     13  H   UNL     1      48.943   7.345  18.989  0.00  0.00    +0.000 HD
ENDBRANCH   5   9
BRANCH   3  15
ATOM     14  C   UNL     1      46.525   8.092  12.937  0.00  0.00    +0.000 C 
ATOM     15  S   UNL     1      47.599   6.723  12.452  0.00  0.00    +0.000 S 
ENDBRANCH   3  15
ENDBRANCH   1   8
BRANCH   1  16
ATOM     16  C   UNL     1      44.805   4.099  12.427  0.00  0.00    +0.000 C 
ATOM     17  C   UNL     1      44.082   5.362  12.917  0.00  0.00    +0.000 C 
ATOM     18  C   UNL     1      43.420   4.035  13.040  0.00  0.00    +0.000 C 
BRANCH  16  19
ATOM     19  C   UNL     1      44.930   3.931  10.912  0.00  0.00    +0.000 A 
ATOM     20  C   UNL     1      45.450   4.958  10.103  0.00  0.00    +0.000 A 
ATOM     21  C   UNL     1      45.631   4.820   8.732  0.00  0.00    +0.000 A 
ATOM     22  C   UNL     1      45.361   3.611   8.116  0.00  0.00    +0.000 A 
ATOM     23  C   UNL     1      44.786   2.586   8.871  0.00  0.00    +0.000 A 
ATOM     24  C   UNL     1      44.566   2.746  10.247  0.00  0.00    +0.000 A 
BRANCH  22  25
ATOM     25  O   UNL     1      45.587   3.317   6.806  0.00  0.00    +0.000 OA
BRANCH  25  26
ATOM     26  C   UNL     1      46.799   2.664   6.448  0.00  0.00    +0.000 C 
ATOM     27  F   UNL     1      46.765   1.318   6.554  0.00  0.00    +0.000 F 
ATOM     28  F   UNL     1      47.076   2.960   5.158  0.00  0.00    +0.000 F 
ATOM     29  F   UNL     1      47.807   3.135   7.213  0.00  0.00    +0.000 F 
ENDBRANCH  25  26
ENDBRANCH  22  25
ENDBRANCH  16  19
ENDBRANCH   1  16
TORSDOF 7
ENDMDL
MODEL 2
REMARK VINA RESULT:    -7.732      2.224      3.126
REMARK INTER + INTRA:         -11.261
REMARK INTER:                 -10.491
REMARK INTRA:                  -0.770
REMARK UNBOUND:                -0.364
REMARK  Name = 
REMARK  8 active torsions:
REMARK  status: ('A' for Active; 'I' for Inactive)
REMARK    1  A    between atoms: C_1  and  S_2
REMARK    2  A    between atoms: S_2  and  C_3
REMARK    3  A    between atoms: C_5  and  C_6
REMARK    4  A    between atoms: C_11  and  N_12
REMARK    5  A    between atoms: N_12  and  C_13
REMARK    6  A    between atoms: C_13  and  C_14
REMARK    7  A    between atoms: C_17  and  O_18
REMARK    8  A    between atoms: O_18  and  C_19
REMARK                            x       y       z     vdW  Elec       q    Type
REMARK                         _______ _______ _______ _____ _____    ______ ____
ROOT
ATOM      1  N   UNL     1      44.779   6.016  12.114  0.00  0.00    +0.000 N 
ATOM      2  H   UNL     1      44.233   6.869  12.044  0.00  0.00    +0.000 HD
ENDROOT
BRANCH   1   8
ATOM      3  C   UNL     1      47.030   5.687  13.213  0.00  0.00    +0.000 A 
ATOM      4  C   UNL     1      48.277   6.311  13.425  0.00  0.00    +0.000 A 
ATOM      5  C   UNL     1      48.545   7.587  12.929  0.00  0.00    +0.000 A 
ATOM      6  C   UNL     1      47.538   8.198  12.216  0.00  0.00    +0.000 A 
ATOM      7  N   UNL     1      46.334   7.627  11.977  0.00  0.00    +0.000 NA
ATOM      8  C   UNL     1      46.070   6.381  12.459  0.00  0.00    +0.000 A 
BRANCH   5   9
ATOM      9  C   UNL     1      49.870   8.201  13.181  0.00  0.00    +0.000 C 
ATOM     10  N   UNL     1      50.972   7.705  12.543  0.00  0.00    +0.000 N 
ATOM     11  O   UNL     1      49.987   9.148  13.950  0.00  0.00    +0.000 OA
ATOM     12  H   UNL     1      50.991   6.941  11.885  0.00  0.00    +0.000 HD
ATOM     13  H   UNL     1      51.852   8.160  12.752  0.00  0.00    +0.000 HD
ENDBRANCH   5   9
BRANCH   3  15
ATOM     14  C   UNL     1      47.240   4.345  15.624  0.00  0.00    +0.000 C 
ATOM     15  S   UNL     1      46.901   4.035  13.878  0.00  0.00    +0.000 S 
ENDBRANCH   3  15
ENDBRANCH   1   8
BRANCH   1  16
ATOM     16  C   UNL     1      44.178   4.791  11.605  0.00  0.00    +0.000 C 
ATOM     17  C   UNL     1      42.648   4.769  11.721  0.00  0.00    +0.000 C 
ATOM     18  C   UNL     1      43.462   3.789  12.489  0.00  0.00    +0.000 C 
BRANCH  16  19
ATOM     19  C   UNL     1      44.767   4.293  10.283  0.00  0.00    +0.000 A 
ATOM     20  C   UNL     1      44.530   2.984   9.824  0.00  0.00    +0.000 A 
ATOM     21  C   UNL     1      45.001   2.515   8.603  0.00  0.00    +0.000 A 
ATOM     22  C   UNL     1      45.676   3.368   7.749  0.00  0.00    +0.000 A 
ATOM     23  C   UNL     1      45.986   4.656   8.191  0.00  0.00    +0.000 A 
ATOM     24  C   UNL     1      45.545   5.110   9.443  0.00  0.00    +0.000 A 
BRANCH  22  25
ATOM     25  O   UNL     1      46.101   3.063   6.492  0.00  0.00    +0.000 OA
BRANCH  25  26
ATOM     26  C   UNL     1      47.255   2.244   6.338  0.00  0.00    +0.000 C 
ATOM     27  F   UNL     1      48.226   2.463   7.251  0.00  0.00    +0.000 F 
ATOM     28  F   UNL     1      46.877   0.951   6.454  0.00  0.00    +0.000 F 
ATOM     29  F   UNL     1      47.771   2.422   5.102  0.00  0.00    +0.000 F 
ENDBRANCH  25  26
ENDBRANCH  22  25
ENDBRANCH  16  19
ENDBRANCH   1  16
TORSDOF 7
ENDMDL
MODEL 3
REMARK VINA RESULT:    -7.651      2.546      3.109
REMARK INTER + INTRA:         -11.146
REMARK INTER:                 -10.447
REMARK INTRA:                  -0.699
REMARK UNBOUND:                -0.364
REMARK  Name = 
REMARK  8 active torsions:
REMARK  status: ('A' for Active; 'I' for Inactive)
REMARK    1  A    between atoms: C_1  and  S_2
REMARK    2  A    between atoms: S_2  and  C_3
REMARK    3  A    between atoms: C_5  and  C_6
REMARK    4  A    between atoms: C_11  and  N_12
REMARK    5  A    between atoms: N_12  and  C_13
REMARK    6  A    between atoms: C_13  and  C_14
REMARK    7  A    between atoms: C_17  and  O_18
REMARK    8  A    between atoms: O_18  and  C_19
REMARK                            x       y       z     vdW  Elec       q    Type
REMARK                         _______ _______ _______ _____ _____    ______ ____
ROOT
ATOM      1  N   UNL     1      45.571   5.283  13.110  0.00  0.00    +0.000 N 
ATOM      2  H   UNL     1      45.496   5.273  14.122  0.00  0.00    +0.000 HD
ENDROOT
BRANCH   1   8
ATOM      3  C   UNL     1      46.413   7.485  12.200  0.00  0.00    +0.000 A 
ATOM      4  C   UNL     1      47.591   8.220  11.956  0.00  0.00    +0.000 A 
ATOM      5  C   UNL     1      48.850   7.696  12.250  0.00  0.00    +0.000 A 
ATOM      6  C   UNL     1      48.882   6.434  12.799  0.00  0.00    +0.000 A 
ATOM      7  N   UNL     1      47.775   5.701  13.063  0.00  0.00    +0.000 NA
ATOM      8  C   UNL     1      46.544   6.212  12.779  0.00  0.00    +0.000 A 
BRANCH   5   9
ATOM      9  C   UNL     1      50.059   8.508  11.972  0.00  0.00    +0.000 C 
ATOM     10  N   UNL     1      51.289   8.017  12.307  0.00  0.00    +0.000 N 
ATOM     11  O   UNL     1      49.967   9.609  11.442  0.00  0.00    +0.000 OA
ATOM     12  H   UNL     1      51.483   7.125  12.735  0.00  0.00    +0.000 HD
ATOM     13  H   UNL     1      52.081   8.612  12.097  0.00  0.00    +0.000 HD
ENDBRANCH   5   9
BRANCH   3  15
ATOM     14  C   UNL     1      45.473  10.061  11.824  0.00  0.00    +0.000 C 
ATOM     15  S   UNL     1      44.901   8.348  11.809  0.00  0.00    +0.000 S 
ENDBRANCH   3  15
ENDBRANCH   1   8
BRANCH   1  16
ATOM     16  C   UNL     1      44.537   4.591  12.352  0.00  0.00    +0.000 C 
ATOM     17  C   UNL     1      43.139   5.197  12.536  0.00  0.00    +0.000 C 
ATOM     18  C   UNL     1      43.412   3.812  13.004  0.00  0.00    +0.000 C 
BRANCH  16  19
ATOM     19  C   UNL     1      44.934   4.221  10.921  0.00  0.00    +0.000 A 
ATOM     20  C   UNL     1      44.807   2.903  10.445  0.00  0.00    +0.000 A 
ATOM     21  C   UNL     1      45.104   2.542   9.136  0.00  0.00    +0.000 A 
ATOM     22  C   UNL     1      45.478   3.508   8.219  0.00  0.00    +0.000 A 
ATOM     23  C   UNL     1      45.676   4.817   8.665  0.00  0.00    +0.000 A 
ATOM     24  C   UNL     1      45.416   5.167   9.998  0.00  0.00    +0.000 A 
BRANCH  22  25
ATOM     25  O   UNL     1      45.701   3.302   6.892  0.00  0.00    +0.000 OA
BRANCH  25  26
ATOM     26  C   UNL     1      46.877   2.606   6.493  0.00  0.00    +0.000 C 
ATOM     27  F   UNL     1      46.787   1.260   6.574  0.00  0.00    +0.000 F 
ATOM     28  F   UNL     1      47.137   2.916   5.204  0.00  0.00    +0.000 F 
ATOM     29  F   UNL     1      47.920   3.018   7.244  0.00  0.00    +0.000 F 
ENDBRANCH  25  26
ENDBRANCH  22  25
ENDBRANCH  16  19
ENDBRANCH   1  16
TORSDOF 7
ENDMDL
MODEL 4
REMARK VINA RESULT:    -7.066      4.779      7.607
REMARK INTER + INTRA:         -10.322
REMARK INTER:                  -9.846
REMARK INTRA:                  -0.476
REMARK UNBOUND:                -0.364
REMARK  Name = 
REMARK  8 active torsions:
REMARK  status: ('A' for Active; 'I' for Inactive)
REMARK    1  A    between atoms: C_1  and  S_2
REMARK    2  A    between atoms: S_2  and  C_3
REMARK    3  A    between atoms: C_5  and  C_6
REMARK    4  A    between atoms: C_11  and  N_12
REMARK    5  A    between atoms: N_12  and  C_13
REMARK    6  A    between atoms: C_13  and  C_14
REMARK    7  A    between atoms: C_17  and  O_18
REMARK    8  A    between atoms: O_18  and  C_19
REMARK                            x       y       z     vdW  Elec       q    Type
REMARK                         _______ _______ _______ _____ _____    ______ ____
ROOT
ATOM      1  N   UNL     1      43.858   5.123   9.773  0.00  0.00    +0.000 N 
ATOM      2  H   UNL     1      43.015   5.197   9.212  0.00  0.00    +0.000 HD
ENDROOT
BRANCH   1   8
ATOM      3  C   UNL     1      44.647   2.734   9.532  0.00  0.00    +0.000 A 
ATOM      4  C   UNL     1      45.553   1.919   8.824  0.00  0.00    +0.000 A 
ATOM      5  C   UNL     1      46.423   2.453   7.874  0.00  0.00    +0.000 A 
ATOM      6  C   UNL     1      46.344   3.810   7.656  0.00  0.00    +0.000 A 
ATOM      7  N   UNL     1      45.478   4.626   8.303  0.00  0.00    +0.000 NA
ATOM      8  C   UNL     1      44.626   4.106   9.230  0.00  0.00    +0.000 A 
BRANCH   5   9
ATOM      9  C   UNL     1      47.359   1.554   7.158  0.00  0.00    +0.000 C 
ATOM     10  N   UNL     1      48.441   2.086   6.514  0.00  0.00    +0.000 N 
ATOM     11  O   UNL     1      47.177   0.342   7.142  0.00  0.00    +0.000 OA
ATOM     12  H   UNL     1      48.693   3.061   6.471  0.00  0.00    +0.000 HD
ATOM     13  H   UNL     1      49.047   1.428   6.040  0.00  0.00    +0.000 HD
ENDBRANCH   5   9
BRANCH   3  15
ATOM     14  C   UNL     1      44.197   2.464  12.250  0.00  0.00    +0.000 C 
ATOM     15  S   UNL     1      43.582   1.857  10.664  0.00  0.00    +0.000 S 
ENDBRANCH   3  15
ENDBRANCH   1   8
BRANCH   1  16
ATOM     16  C   UNL     1      43.889   5.846  11.037  0.00  0.00    +0.000 C 
ATOM     17  C   UNL     1      42.700   5.522  11.953  0.00  0.00    +0.000 C 
ATOM     18  C   UNL     1      42.866   6.899  11.415  0.00  0.00    +0.000 C 
BRANCH  16  19
ATOM     19  C   UNL     1      45.265   5.906  11.705  0.00  0.00    +0.000 A 
ATOM     20  C   UNL     1      46.294   6.713  11.186  0.00  0.00    +0.000 A 
ATOM     21  C   UNL     1      47.537   6.835  11.796  0.00  0.00    +0.000 A 
ATOM     22  C   UNL     1      47.780   6.205  13.003  0.00  0.00    +0.000 A 
ATOM     23  C   UNL     1      46.808   5.346  13.521  0.00  0.00    +0.000 A 
ATOM     24  C   UNL     1      45.571   5.192  12.878  0.00  0.00    +0.000 A 
BRANCH  22  25
ATOM     25  O   UNL     1      48.913   6.322  13.748  0.00  0.00    +0.000 OA
BRANCH  25  26
ATOM     26  C   UNL     1      48.923   7.231  14.844  0.00  0.00    +0.000 C 
ATOM     27  F   UNL     1      47.990   8.205  14.774  0.00  0.00    +0.000 F 
ATOM     28  F   UNL     1      48.692   6.531  15.978  0.00  0.00    +0.000 F 
ATOM     29  F   UNL     1      50.142   7.802  14.944  0.00  0.00    +0.000 F 
ENDBRANCH  25  26
ENDBRANCH  22  25
ENDBRANCH  16  19
ENDBRANCH   1  16
TORSDOF 7
ENDMDL
MODEL 5
REMARK VINA RESULT:    -6.827      2.223      3.206
REMARK INTER + INTRA:          -9.985
REMARK INTER:                  -9.330
REMARK INTRA:                  -0.654
REMARK UNBOUND:                -0.364
REMARK  Name = 
REMARK  8 active torsions:
REMARK  status: ('A' for Active; 'I' for Inactive)
REMARK    1  A    between atoms: C_1  and  S_2
REMARK    2  A    between atoms: S_2  and  C_3
REMARK    3  A    between atoms: C_5  and  C_6
REMARK    4  A    between atoms: C_11  and  N_12
REMARK    5  A    between atoms: N_12  and  C_13
REMARK    6  A    between atoms: C_13  and  C_14
REMARK    7  A    between atoms: C_17  and  O_18
REMARK    8  A    between atoms: O_18  and  C_19
REMARK                            x       y       z     vdW  Elec       q    Type
REMARK                         _______ _______ _______ _____ _____    ______ ____
ROOT
ATOM      1  N   UNL     1      48.104   6.200  13.730  0.00  0.00    +0.000 N 
ATOM      2  H   UNL     1      48.772   5.644  13.205  0.00  0.00    +0.000 HD
ENDROOT
BRANCH   1   8
ATOM      3  C   UNL     1      48.986   6.763  16.031  0.00  0.00    +0.000 A 
ATOM      4  C   UNL     1      49.099   6.258  17.342  0.00  0.00    +0.000 A 
ATOM      5  C   UNL     1      48.614   4.995  17.681  0.00  0.00    +0.000 A 
ATOM      6  C   UNL     1      48.011   4.274  16.674  0.00  0.00    +0.000 A 
ATOM      7  N   UNL     1      47.869   4.728  15.407  0.00  0.00    +0.000 NA
ATOM      8  C   UNL     1      48.340   5.962  15.075  0.00  0.00    +0.000 A 
BRANCH   5   9
ATOM      9  C   UNL     1      48.761   4.509  19.073  0.00  0.00    +0.000 C 
ATOM     10  N   UNL     1      48.296   3.267  19.402  0.00  0.00    +0.000 N 
ATOM     11  O   UNL     1      49.296   5.204  19.928  0.00  0.00    +0.000 OA
ATOM     12  H   UNL     1      47.850   2.609  18.782  0.00  0.00    +0.000 HD
ATOM     13  H   UNL     1      48.419   2.984  20.367  0.00  0.00    +0.000 HD
ENDBRANCH   5   9
BRANCH   3  15
ATOM     14  C   UNL     1      48.220   9.396  16.402  0.00  0.00    +0.000 C 
ATOM     15  S   UNL     1      49.617   8.418  15.811  0.00  0.00    +0.000 S 
ENDBRANCH   3  15
ENDBRANCH   1   8
BRANCH   1  16
ATOM     16  C   UNL     1      47.009   6.813  12.990  0.00  0.00    +0.000 C 
ATOM     17  C   UNL     1      47.420   8.087  12.238  0.00  0.00    +0.000 C 
ATOM     18  C   UNL     1      46.427   8.167  13.342  0.00  0.00    +0.000 C 
BRANCH  16  19
ATOM     19  C   UNL     1      46.126   5.826  12.224  0.00  0.00    +0.000 A 
ATOM     20  C   UNL     1      45.849   6.003  10.856  0.00  0.00    +0.000 A 
ATOM     21  C   UNL     1      45.098   5.098  10.115  0.00  0.00    +0.000 A 
ATOM     22  C   UNL     1      44.646   3.929  10.703  0.00  0.00    +0.000 A 
ATOM     23  C   UNL     1      44.846   3.744  12.072  0.00  0.00    +0.000 A 
ATOM     24  C   UNL     1      45.568   4.683  12.825  0.00  0.00    +0.000 A 
BRANCH  22  25
ATOM     25  O   UNL     1      43.988   2.922  10.066  0.00  0.00    +0.000 OA
BRANCH  25  26
ATOM     26  C   UNL     1      44.650   2.225   9.016  0.00  0.00    +0.000 C 
ATOM     27  F   UNL     1      45.982   2.083   9.189  0.00  0.00    +0.000 F 
ATOM     28  F   UNL     1      44.119   0.985   8.928  0.00  0.00    +0.000 F 
ATOM     29  F   UNL     1      44.428   2.861   7.845  0.00  0.00    +0.000 F 
ENDBRANCH  25  26
ENDBRANCH  22  25
ENDBRANCH  16  19
ENDBRANCH   1  16
TORSDOF 7
ENDMDL
MODEL 6
REMARK VINA RESULT:    -6.429      4.567      7.972
REMARK INTER + INTRA:          -9.424
REMARK INTER:                  -9.038
REMARK INTRA:                  -0.386
REMARK UNBOUND:                -0.364
REMARK  Name = 
REMARK  8 active torsions:
REMARK  status: ('A' for Active; 'I' for Inactive)
REMARK    1  A    between atoms: C_1  and  S_2
REMARK    2  A    between atoms: S_2  and  C_3
REMARK    3  A    between atoms: C_5  and  C_6
REMARK    4  A    between atoms: C_11  and  N_12
REMARK    5  A    between atoms: N_12  and  C_13
REMARK    6  A    between atoms: C_13  and  C_14
REMARK    7  A    between atoms: C_17  and  O_18
REMARK    8  A    between atoms: O_18  and  C_19
REMARK                            x       y       z     vdW  Elec       q    Type
REMARK                         _______ _______ _______ _____ _____    ______ ____
ROOT
ATOM      1  N   UNL     1      44.901   6.305  11.142  0.00  0.00    +0.000 N 
ATOM      2  H   UNL     1      43.898   6.361  11.289  0.00  0.00    +0.000 HD
ENDROOT
BRANCH   1   8
ATOM      3  C   UNL     1      44.661   3.931  10.309  0.00  0.00    +0.000 A 
ATOM      4  C   UNL     1      45.071   3.057   9.282  0.00  0.00    +0.000 A 
ATOM      5  C   UNL     1      45.935   3.476   8.271  0.00  0.00    +0.000 A 
ATOM      6  C   UNL     1      46.357   4.786   8.322  0.00  0.00    +0.000 A 
ATOM      7  N   UNL     1      45.976   5.661   9.281  0.00  0.00    +0.000 NA
ATOM      8  C   UNL     1      45.130   5.254  10.268  0.00  0.00    +0.000 A 
BRANCH   5   9
ATOM      9  C   UNL     1      46.339   2.517   7.215  0.00  0.00    +0.000 C 
ATOM     10  N   UNL     1      46.682   1.242   7.562  0.00  0.00    +0.000 N 
ATOM     11  O   UNL     1      46.363   2.854   6.037  0.00  0.00    +0.000 OA
ATOM     12  H   UNL     1      46.688   0.854   8.493  0.00  0.00    +0.000 HD
ATOM     13  H   UNL     1      46.951   0.628   6.803  0.00  0.00    +0.000 HD
ENDBRANCH   5   9
BRANCH   3  15
ATOM     14  C   UNL     1      42.671   4.708  12.068  0.00  0.00    +0.000 C 
ATOM     15  S   UNL     1      43.512   3.223  11.477  0.00  0.00    +0.000 S 
ENDBRANCH   3  15
ENDBRANCH   1   8
BRANCH   1  16
ATOM     16  C   UNL     1      45.755   7.087  12.026  0.00  0.00    +0.000 C 
ATOM     17  C   UNL     1      45.104   8.393  12.503  0.00  0.00    +0.000 C 
ATOM     18  C   UNL     1      46.320   8.442  11.648  0.00  0.00    +0.000 C 
BRANCH  16  19
ATOM     19  C   UNL     1      46.494   6.269  13.087  0.00  0.00    +0.000 A 
ATOM     20  C   UNL     1      47.622   6.784  13.751  0.00  0.00    +0.000 A 
ATOM     21  C   UNL     1      48.285   6.093  14.759  0.00  0.00    +0.000 A 
ATOM     22  C   UNL     1      47.799   4.874  15.198  0.00  0.00    +0.000 A 
ATOM     23  C   UNL     1      46.719   4.300  14.524  0.00  0.00    +0.000 A 
ATOM     24  C   UNL     1      46.080   4.983  13.479  0.00  0.00    +0.000 A 
BRANCH  22  25
ATOM     25  O   UNL     1      48.294   4.147  16.236  0.00  0.00    +0.000 OA
BRANCH  25  26
ATOM     26  C   UNL     1      47.556   4.095  17.452  0.00  0.00    +0.000 C 
ATOM     27  F   UNL     1      46.770   5.171  17.678  0.00  0.00    +0.000 F 
ATOM     28  F   UNL     1      46.753   3.009  17.416  0.00  0.00    +0.000 F 
ATOM     29  F   UNL     1      48.408   3.953  18.490  0.00  0.00    +0.000 F 
ENDBRANCH  25  26
ENDBRANCH  22  25
ENDBRANCH  16  19
ENDBRANCH   1  16
TORSDOF 7
ENDMDL
MODEL 7
REMARK VINA RESULT:    -6.327      3.600      5.152
REMARK INTER + INTRA:          -9.280
REMARK INTER:                  -8.059
REMARK INTRA:                  -1.222
REMARK UNBOUND:                -0.364
REMARK  Name = 
REMARK  8 active torsions:
REMARK  status: ('A' for Active; 'I' for Inactive)
REMARK    1  A    between atoms: C_1  and  S_2
REMARK    2  A    between atoms: S_2  and  C_3
REMARK    3  A    between atoms: C_5  and  C_6
REMARK    4  A    between atoms: C_11  and  N_12
REMARK    5  A    between atoms: N_12  and  C_13
REMARK    6  A    between atoms: C_13  and  C_14
REMARK    7  A    between atoms: C_17  and  O_18
REMARK    8  A    between atoms: O_18  and  C_19
REMARK                            x       y       z     vdW  Elec       q    Type
REMARK                         _______ _______ _______ _____ _____    ______ ____
ROOT
ATOM      1  N   UNL     1      49.116   7.341  14.646  0.00  0.00    +0.000 N 
ATOM      2  H   UNL     1      50.018   6.876  14.682  0.00  0.00    +0.000 HD
ENDROOT
BRANCH   1   8
ATOM      3  C   UNL     1      48.684   6.793  17.075  0.00  0.00    +0.000 A 
ATOM      4  C   UNL     1      48.259   7.361  18.293  0.00  0.00    +0.000 A 
ATOM      5  C   UNL     1      47.889   8.703  18.381  0.00  0.00    +0.000 A 
ATOM      6  C   UNL     1      47.971   9.444  17.224  0.00  0.00    +0.000 A 
ATOM      7  N   UNL     1      48.388   8.942  16.038  0.00  0.00    +0.000 NA
ATOM      8  C   UNL     1      48.751   7.632  15.950  0.00  0.00    +0.000 A 
BRANCH   5   9
ATOM      9  C   UNL     1      47.447   9.251  19.686  0.00  0.00    +0.000 C 
ATOM     10  N   UNL     1      46.866  10.487  19.732  0.00  0.00    +0.000 N 
ATOM     11  O   UNL     1      47.591   8.608  20.719  0.00  0.00    +0.000 OA
ATOM     12  H   UNL     1      46.689  11.097  18.948  0.00  0.00    +0.000 HD
ATOM     13  H   UNL     1      46.584  10.815  20.648  0.00  0.00    +0.000 HD
ENDBRANCH   5   9
BRANCH   3  15
ATOM     14  C   UNL     1      47.555   4.283  17.364  0.00  0.00    +0.000 C 
ATOM     15  S   UNL     1      49.165   5.078  17.178  0.00  0.00    +0.000 S 
ENDBRANCH   3  15
ENDBRANCH   1   8
BRANCH   1  16
ATOM     16  C   UNL     1      48.399   7.318  13.378  0.00  0.00    +0.000 C 
ATOM     17  C   UNL     1      49.326   7.262  12.155  0.00  0.00    +0.000 C 
ATOM     18  C   UNL     1      48.458   8.451  12.372  0.00  0.00    +0.000 C 
BRANCH  16  19
ATOM     19  C   UNL     1      47.180   6.394  13.351  0.00  0.00    +0.000 A 
ATOM     20  C   UNL     1      45.932   6.843  12.881  0.00  0.00    +0.000 A 
ATOM     21  C   UNL     1      44.819   6.016  12.789  0.00  0.00    +0.000 A 
ATOM     22  C   UNL     1      44.927   4.673  13.100  0.00  0.00    +0.000 A 
ATOM     23  C   UNL     1      46.130   4.200  13.628  0.00  0.00    +0.000 A 
ATOM     24  C   UNL     1      47.238   5.049  13.759  0.00  0.00    +0.000 A 
BRANCH  22  25
ATOM     25  O   UNL     1      43.943   3.742  12.960  0.00  0.00    +0.000 OA
BRANCH  25  26
ATOM     26  C   UNL     1      43.641   3.254  11.657  0.00  0.00    +0.000 C 
ATOM     27  F   UNL     1      44.715   3.090  10.855  0.00  0.00    +0.000 F 
ATOM     28  F   UNL     1      43.043   2.048  11.783  0.00  0.00    +0.000 F 
ATOM     29  F   UNL     1      42.771   4.092  11.053  0.00  0.00    +0.000 F 
ENDBRANCH  25  26
ENDBRANCH  22  25
ENDBRANCH  16  19
ENDBRANCH   1  16
TORSDOF 7
ENDMDL
MODEL 8
REMARK VINA RESULT:    -6.182      3.881      5.313
REMARK INTER + INTRA:          -9.077
REMARK INTER:                  -7.928
REMARK INTRA:                  -1.149
REMARK UNBOUND:                -0.364
REMARK  Name = 
REMARK  8 active torsions:
REMARK  status: ('A' for Active; 'I' for Inactive)
REMARK    1  A    between atoms: C_1  and  S_2
REMARK    2  A    between atoms: S_2  and  C_3
REMARK    3  A    between atoms: C_5  and  C_6
REMARK    4  A    between atoms: C_11  and  N_12
REMARK    5  A    between atoms: N_12  and  C_13
REMARK    6  A    between atoms: C_13  and  C_14
REMARK    7  A    between atoms: C_17  and  O_18
REMARK    8  A    between atoms: O_18  and  C_19
REMARK                            x       y       z     vdW  Elec       q    Type
REMARK                         _______ _______ _______ _____ _____    ______ ____
ROOT
ATOM      1  N   UNL     1      49.099   6.992  14.694  0.00  0.00    +0.000 N 
ATOM      2  H   UNL     1      49.658   6.353  14.137  0.00  0.00    +0.000 HD
ENDROOT
BRANCH   1   8
ATOM      3  C   UNL     1      49.595   7.053  17.171  0.00  0.00    +0.000 A 
ATOM      4  C   UNL     1      49.444   6.315  18.363  0.00  0.00    +0.000 A 
ATOM      5  C   UNL     1      48.829   5.063  18.371  0.00  0.00    +0.000 A 
ATOM      6  C   UNL     1      48.370   4.592  17.162  0.00  0.00    +0.000 A 
ATOM      7  N   UNL     1      48.481   5.275  15.998  0.00  0.00    +0.000 NA
ATOM      8  C   UNL     1      49.078   6.498  15.989  0.00  0.00    +0.000 A 
BRANCH   5   9
ATOM      9  C   UNL     1      48.698   4.326  19.650  0.00  0.00    +0.000 C 
ATOM     10  N   UNL     1      48.322   3.013  19.632  0.00  0.00    +0.000 N 
ATOM     11  O   UNL     1      48.927   4.878  20.720  0.00  0.00    +0.000 OA
ATOM     12  H   UNL     1      48.119   2.457  18.815  0.00  0.00    +0.000 HD
ATOM     13  H   UNL     1      48.245   2.557  20.533  0.00  0.00    +0.000 HD
ENDBRANCH   5   9
BRANCH   3  15
ATOM     14  C   UNL     1      51.897   8.416  16.464  0.00  0.00    +0.000 C 
ATOM     15  S   UNL     1      50.357   8.654  17.376  0.00  0.00    +0.000 S 
ENDBRANCH   3  15
ENDBRANCH   1   8
BRANCH   1  16
ATOM     16  C   UNL     1      48.318   7.997  13.985  0.00  0.00    +0.000 C 
ATOM     17  C   UNL     1      49.179   9.083  13.325  0.00  0.00    +0.000 C 
ATOM     18  C   UNL     1      48.241   9.447  14.420  0.00  0.00    +0.000 C 
BRANCH  16  19
ATOM     19  C   UNL     1      47.169   7.435  13.144  0.00  0.00    +0.000 A 
ATOM     20  C   UNL     1      47.206   6.122  12.640  0.00  0.00    +0.000 A 
ATOM     21  C   UNL     1      46.157   5.561  11.921  0.00  0.00    +0.000 A 
ATOM     22  C   UNL     1      44.986   6.273  11.735  0.00  0.00    +0.000 A 
ATOM     23  C   UNL     1      44.931   7.600  12.165  0.00  0.00    +0.000 A 
ATOM     24  C   UNL     1      46.009   8.176  12.853  0.00  0.00    +0.000 A 
BRANCH  22  25
ATOM     25  O   UNL     1      43.856   5.804  11.137  0.00  0.00    +0.000 OA
BRANCH  25  26
ATOM     26  C   UNL     1      42.865   5.175  11.942  0.00  0.00    +0.000 C 
ATOM     27  F   UNL     1      43.148   5.148  13.263  0.00  0.00    +0.000 F 
ATOM     28  F   UNL     1      41.704   5.850  11.791  0.00  0.00    +0.000 F 
ATOM     29  F   UNL     1      42.674   3.909  11.512  0.00  0.00    +0.000 F 
ENDBRANCH  25  26
ENDBRANCH  22  25
ENDBRANCH  16  19
ENDBRANCH   1  16
TORSDOF 7
ENDMDL
MODEL 9
REMARK VINA RESULT:    -5.960      3.293      5.027
REMARK INTER + INTRA:          -8.764
REMARK INTER:                  -8.252
REMARK INTRA:                  -0.511
REMARK UNBOUND:                -0.364
REMARK  Name = 
REMARK  8 active torsions:
REMARK  status: ('A' for Active; 'I' for Inactive)
REMARK    1  A    between atoms: C_1  and  S_2
REMARK    2  A    between atoms: S_2  and  C_3
REMARK    3  A    between atoms: C_5  and  C_6
REMARK    4  A    between atoms: C_11  and  N_12
REMARK    5  A    between atoms: N_12  and  C_13
REMARK    6  A    between atoms: C_13  and  C_14
REMARK    7  A    between atoms: C_17  and  O_18
REMARK    8  A    between atoms: O_18  and  C_19
REMARK                            x       y       z     vdW  Elec       q    Type
REMARK                         _______ _______ _______ _____ _____    ______ ____
ROOT
ATOM      1  N   UNL     1      48.463   7.155  15.537  0.00  0.00    +0.000 N 
ATOM      2  H   UNL     1      48.234   7.940  16.140  0.00  0.00    +0.000 HD
ENDROOT
BRANCH   1   8
ATOM      3  C   UNL     1      48.894   5.272  17.167  0.00  0.00    +0.000 A 
ATOM      4  C   UNL     1      49.927   4.548  17.796  0.00  0.00    +0.000 A 
ATOM      5  C   UNL     1      51.270   4.847  17.565  0.00  0.00    +0.000 A 
ATOM      6  C   UNL     1      51.533   5.874  16.686  0.00  0.00    +0.000 A 
ATOM      7  N   UNL     1      50.571   6.583  16.050  0.00  0.00    +0.000 NA
ATOM      8  C   UNL     1      49.260   6.291  16.272  0.00  0.00    +0.000 A 
BRANCH   5   9
ATOM      9  C   UNL     1      52.320   4.059  18.254  0.00  0.00    +0.000 C 
ATOM     10  N   UNL     1      52.112   2.730  18.492  0.00  0.00    +0.000 N 
ATOM     11  O   UNL     1      53.370   4.584  18.606  0.00  0.00    +0.000 OA
ATOM     12  H   UNL     1      51.296   2.195  18.239  0.00  0.00    +0.000 HD
ATOM     13  H   UNL     1      52.860   2.238  18.967  0.00  0.00    +0.000 HD
ENDBRANCH   5   9
BRANCH   3  15
ATOM     14  C   UNL     1      47.466   2.916  17.427  0.00  0.00    +0.000 C 
ATOM     15  S   UNL     1      47.246   4.704  17.549  0.00  0.00    +0.000 S 
ENDBRANCH   3  15
ENDBRANCH   1   8
BRANCH   1  16
ATOM     16  C   UNL     1      48.154   7.283  14.119  0.00  0.00    +0.000 C 
ATOM     17  C   UNL     1      49.399   7.466  13.239  0.00  0.00    +0.000 C 
ATOM     18  C   UNL     1      48.391   8.556  13.331  0.00  0.00    +0.000 C 
BRANCH  16  19
ATOM     19  C   UNL     1      47.096   6.304  13.606  0.00  0.00    +0.000 A 
ATOM     20  C   UNL     1      47.214   4.919  13.825  0.00  0.00    +0.000 A 
ATOM     21  C   UNL     1      46.246   4.007  13.422  0.00  0.00    +0.000 A 
ATOM     22  C   UNL     1      45.073   4.454  12.840  0.00  0.00    +0.000 A 
ATOM     23  C   UNL     1      44.943   5.814  12.549  0.00  0.00    +0.000 A 
ATOM     24  C   UNL     1      45.943   6.725  12.919  0.00  0.00    +0.000 A 
BRANCH  22  25
ATOM     25  O   UNL     1      44.011   3.677  12.492  0.00  0.00    +0.000 OA
BRANCH  25  26
ATOM     26  C   UNL     1      43.906   3.219  11.148  0.00  0.00    +0.000 C 
ATOM     27  F   UNL     1      43.301   4.084  10.306  0.00  0.00    +0.000 F 
ATOM     28  F   UNL     1      45.154   3.002  10.675  0.00  0.00    +0.000 F 
ATOM     29  F   UNL     1      43.238   2.046  11.124  0.00  0.00    +0.000 F 
ENDBRANCH  25  26
ENDBRANCH  22  25
ENDBRANCH  16  19
ENDBRANCH   1  16
TORSDOF 7
ENDMDL
