MODEL 1
REMARK VINA RESULT:    -8.238      0.000      0.000
REMARK INTER + INTRA:         -12.461
REMARK INTER:                 -11.850
REMARK INTRA:                  -0.611
REMARK UNBOUND:                -0.611
REMARK  Name = 
REMARK  8 active torsions:
REMARK  status: ('A' for Active; 'I' for Inactive)
REMARK    1  A    between atoms: N_1  and  C_2
REMARK    2  A    between atoms: C_2  and  C_3
REMARK    3  A    between atoms: C_3  and  N_4
REMARK    4  A    between atoms: C_3  and  C_17
REMARK    5  A    between atoms: C_5  and  C_7
REMARK    6  A    between atoms: C_20  and  O_21
REMARK    7  A    between atoms: O_21  and  C_22
REMARK    8  A    between atoms: C_22  and  C_23
REMARK                            x       y       z     vdW  Elec       q    Type
REMARK                         _______ _______ _______ _____ _____    ______ ____
ROOT
ATOM      1  C   UNL     1      46.532   8.131  13.179  0.00  0.00    +0.000 C 
ENDROOT
BRANCH   1   2
ATOM      2  C   UNL     1      45.899   7.008  12.372  0.00  0.00    +0.000 A 
ATOM      3  C   UNL     1      46.373   6.724  11.082  0.00  0.00    +0.000 A 
ATOM      4  C   UNL     1      45.834   5.667  10.342  0.00  0.00    +0.000 A 
ATOM      5  C   UNL     1      44.814   4.882  10.878  0.00  0.00    +0.000 A 
ATOM      6  C   UNL     1      44.280   5.211  12.121  0.00  0.00    +0.000 A 
ATOM      7  C   UNL     1      44.819   6.264  12.862  0.00  0.00    +0.000 A 
BRANCH   5   8
ATOM      8  O   UNL     1      44.417   3.818  10.114  0.00  0.00    +0.000 OA
BRANCH   8   9
ATOM      9  C   UNL     1      44.509   4.033   8.700  0.00  0.00    +0.000 C 
BRANCH   9  10
ATOM     10  C   UNL     1      45.518   3.094   8.085  0.00  0.00    +0.000 A 
ATOM     11  C   UNL     1      46.481   3.584   7.206  0.00  0.00    +0.000 A 
ATOM     12  C   UNL     1      47.445   2.714   6.709  0.00  0.00    +0.000 A 
ATOM     13  C   UNL     1      47.422   1.380   7.101  0.00  0.00    +0.000 A 
ATOM     14  C   UNL     1      46.433   0.974   7.981  0.00  0.00    +0.000 A 
ATOM     15  N   UNL     1      45.489   1.796   8.485  0.00  0.00    +0.000 NA
ENDBRANCH   9  10
ENDBRANCH   8   9
ENDBRANCH   5   8
ENDBRANCH   1   2
BRANCH   1  16
ATOM     16  N   UNL     1      47.177   7.557  14.345  0.00  0.00    +0.000 N 
ATOM     17  C   UNL     1      48.339   6.836  14.258  0.00  0.00    +0.000 C 
ATOM     18  O   UNL     1      48.954   6.707  13.203  0.00  0.00    +0.000 OA
ATOM     19  H   UNL     1      46.613   7.497  15.185  0.00  0.00    +0.000 HD
BRANCH  17  20
ATOM     20  C   UNL     1      48.837   6.265  15.510  0.00  0.00    +0.000 A 
ATOM     21  C   UNL     1      49.948   6.817  16.134  0.00  0.00    +0.000 A 
ATOM     22  S   UNL     1      50.376   6.031  17.585  0.00  0.00    +0.000 S 
ATOM     23  C   UNL     1      49.125   4.891  17.406  0.00  0.00    +0.000 A 
ATOM     24  N   UNL     1      48.953   3.891  18.305  0.00  0.00    +0.000 NA
ATOM     25  C   UNL     1      47.985   3.078  18.024  0.00  0.00    +0.000 A 
ATOM     26  N   UNL     1      47.169   3.190  16.929  0.00  0.00    +0.000 N 
ATOM     27  C   UNL     1      47.277   4.210  16.017  0.00  0.00    +0.000 A 
ATOM     28  O   UNL     1      46.484   4.318  15.084  0.00  0.00    +0.000 OA
ATOM     29  C   UNL     1      48.368   5.130  16.270  0.00  0.00    +0.000 A 
ATOM     30  H   UNL     1      46.416   2.531  16.779  0.00  0.00    +0.000 HD
ENDBRANCH  17  20
ENDBRANCH   1  16
BRANCH   1  31
ATOM     31  C   UNL     1      47.525   9.027  12.377  0.00  0.00    +0.000 C 
BRANCH  31  32
ATOM     32  N   UNL     1      47.279  10.469  12.515  0.00  0.00    +0.000 NA
ATOM     33  H   UNL     1      47.739  10.808  13.358  0.00  0.00    +0.000 HD
ATOM     34  H   UNL     1      46.281  10.628  12.650  0.00  0.00    +0.000 HD
ENDBRANCH  31  32
ENDBRANCH   1  31
TORSDOF 8
ENDMDL
MODEL 2
REMARK VINA RESULT:    -8.063      2.710      3.742
REMARK INTER + INTRA:         -12.209
REMARK INTER:                 -10.746
REMARK INTRA:                  -1.463
REMARK UNBOUND:                -0.611
REMARK  Name = 
REMARK  8 active torsions:
REMARK  status: ('A' for Active; 'I' for Inactive)
REMARK    1  A    between atoms: N_1  and  C_2
REMARK    2  A    between atoms: C_2  and  C_3
REMARK    3  A    between atoms: C_3  and  N_4
REMARK    4  A    between atoms: C_3  and  C_17
REMARK    5  A    between atoms: C_5  and  C_7
REMARK    6  A    between atoms: C_20  and  O_21
REMARK    7  A    between atoms: O_21  and  C_22
REMARK    8  A    between atoms: C_22  and  C_23
REMARK                            x       y       z     vdW  Elec       q    Type
REMARK                         _______ _______ _______ _____ _____    ______ ____
ROOT
ATOM      1  C   UNL     1      47.847   4.586  15.126  0.00  0.00    +0.000 C 
ENDROOT
BRANCH   1   2
ATOM      2  C   UNL     1      46.939   4.732  13.915  0.00  0.00    +0.000 A 
ATOM      3  C   UNL     1      46.838   5.971  13.263  0.00  0.00    +0.000 A 
ATOM      4  C   UNL     1      46.044   6.113  12.121  0.00  0.00    +0.000 A 
ATOM      5  C   UNL     1      45.337   5.023  11.617  0.00  0.00    +0.000 A 
ATOM      6  C   UNL     1      45.363   3.813  12.307  0.00  0.00    +0.000 A 
ATOM      7  C   UNL     1      46.158   3.669  13.445  0.00  0.00    +0.000 A 
BRANCH   5   8
ATOM      8  O   UNL     1      44.662   5.240  10.446  0.00  0.00    +0.000 OA
BRANCH   8   9
ATOM      9  C   UNL     1      44.147   4.054   9.827  0.00  0.00    +0.000 C 
BRANCH   9  10
ATOM     10  C   UNL     1      45.172   3.455   8.895  0.00  0.00    +0.000 A 
ATOM     11  C   UNL     1      45.428   2.086   8.929  0.00  0.00    +0.000 A 
ATOM     12  C   UNL     1      46.323   1.546   8.011  0.00  0.00    +0.000 A 
ATOM     13  C   UNL     1      46.937   2.384   7.088  0.00  0.00    +0.000 A 
ATOM     14  C   UNL     1      46.625   3.733   7.118  0.00  0.00    +0.000 A 
ATOM     15  N   UNL     1      45.756   4.284   7.992  0.00  0.00    +0.000 NA
ENDBRANCH   9  10
ENDBRANCH   8   9
ENDBRANCH   5   8
ENDBRANCH   1   2
BRANCH   1  16
ATOM     16  N   UNL     1      47.740   5.787  15.933  0.00  0.00    +0.000 N 
ATOM     17  C   UNL     1      48.834   6.536  16.279  0.00  0.00    +0.000 C 
ATOM     18  O   UNL     1      49.959   6.289  15.855  0.00  0.00    +0.000 OA
ATOM     19  H   UNL     1      46.868   5.915  16.433  0.00  0.00    +0.000 HD
BRANCH  17  20
ATOM     20  C   UNL     1      48.578   7.685  17.150  0.00  0.00    +0.000 A 
ATOM     21  C   UNL     1      48.796   8.974  16.683  0.00  0.00    +0.000 A 
ATOM     22  S   UNL     1      48.433  10.184  17.828  0.00  0.00    +0.000 S 
ATOM     23  C   UNL     1      48.022   9.028  19.007  0.00  0.00    +0.000 A 
ATOM     24  N   UNL     1      47.650   9.401  20.256  0.00  0.00    +0.000 NA
ATOM     25  C   UNL     1      47.400   8.416  21.059  0.00  0.00    +0.000 A 
ATOM     26  N   UNL     1      47.478   7.093  20.712  0.00  0.00    +0.000 N 
ATOM     27  C   UNL     1      47.806   6.668  19.449  0.00  0.00    +0.000 A 
ATOM     28  O   UNL     1      47.799   5.475  19.154  0.00  0.00    +0.000 OA
ATOM     29  C   UNL     1      48.127   7.734  18.520  0.00  0.00    +0.000 A 
ATOM     30  H   UNL     1      47.248   6.371  21.383  0.00  0.00    +0.000 HD
ENDBRANCH  17  20
ENDBRANCH   1  16
BRANCH   1  31
ATOM     31  C   UNL     1      47.582   3.311  15.986  0.00  0.00    +0.000 C 
BRANCH  31  32
ATOM     32  N   UNL     1      46.718   3.542  17.151  0.00  0.00    +0.000 NA
ATOM     33  H   UNL     1      46.028   2.796  17.210  0.00  0.00    +0.000 HD
ATOM     34  H   UNL     1      46.194   4.406  17.015  0.00  0.00    +0.000 HD
ENDBRANCH  31  32
ENDBRANCH   1  31
TORSDOF 8
ENDMDL
MODEL 3
REMARK VINA RESULT:    -8.056      1.920      2.608
REMARK INTER + INTRA:         -12.198
REMARK INTER:                 -11.330
REMARK INTRA:                  -0.869
REMARK UNBOUND:                -0.611
REMARK  Name = 
REMARK  8 active torsions:
REMARK  status: ('A' for Active; 'I' for Inactive)
REMARK    1  A    between atoms: N_1  and  C_2
REMARK    2  A    between atoms: C_2  and  C_3
REMARK    3  A    between atoms: C_3  and  N_4
REMARK    4  A    between atoms: C_3  and  C_17
REMARK    5  A    between atoms: C_5  and  C_7
REMARK    6  A    between atoms: C_20  and  O_21
REMARK    7  A    between atoms: O_21  and  C_22
REMARK    8  A    between atoms: C_22  and  C_23
REMARK                            x       y       z     vdW  Elec       q    Type
REMARK                         _______ _______ _______ _____ _____    ______ ____
ROOT
ATOM      1  C   UNL     1      47.443   6.959  13.507  0.00  0.00    +0.000 C 
ENDROOT
BRANCH   1   2
ATOM      2  C   UNL     1      46.545   6.137  12.596  0.00  0.00    +0.000 A 
ATOM      3  C   UNL     1      46.359   6.528  11.261  0.00  0.00    +0.000 A 
ATOM      4  C   UNL     1      45.575   5.760  10.396  0.00  0.00    +0.000 A 
ATOM      5  C   UNL     1      44.962   4.594  10.851  0.00  0.00    +0.000 A 
ATOM      6  C   UNL     1      45.070   4.245  12.196  0.00  0.00    +0.000 A 
ATOM      7  C   UNL     1      45.856   5.009  13.060  0.00  0.00    +0.000 A 
BRANCH   5   8
ATOM      8  O   UNL     1      44.290   3.865   9.907  0.00  0.00    +0.000 OA
BRANCH   8   9
ATOM      9  C   UNL     1      44.734   2.509   9.774  0.00  0.00    +0.000 C 
BRANCH   9  10
ATOM     10  C   UNL     1      45.562   2.342   8.523  0.00  0.00    +0.000 A 
ATOM     11  C   UNL     1      45.677   3.395   7.618  0.00  0.00    +0.000 A 
ATOM     12  C   UNL     1      46.504   3.244   6.511  0.00  0.00    +0.000 A 
ATOM     13  C   UNL     1      47.192   2.048   6.335  0.00  0.00    +0.000 A 
ATOM     14  C   UNL     1      47.026   1.052   7.283  0.00  0.00    +0.000 A 
ATOM     15  N   UNL     1      46.236   1.173   8.371  0.00  0.00    +0.000 NA
ENDBRANCH   9  10
ENDBRANCH   8   9
ENDBRANCH   5   8
ENDBRANCH   1   2
BRANCH   1  16
ATOM     16  N   UNL     1      47.939   6.100  14.567  0.00  0.00    +0.000 N 
ATOM     17  C   UNL     1      48.476   6.601  15.723  0.00  0.00    +0.000 C 
ATOM     18  O   UNL     1      48.490   7.802  15.974  0.00  0.00    +0.000 OA
ATOM     19  H   UNL     1      48.100   5.131  14.319  0.00  0.00    +0.000 HD
BRANCH  17  20
ATOM     20  C   UNL     1      48.993   5.613  16.673  0.00  0.00    +0.000 A 
ATOM     21  C   UNL     1      48.120   4.755  17.327  0.00  0.00    +0.000 A 
ATOM     22  S   UNL     1      48.900   3.667  18.384  0.00  0.00    +0.000 S 
ATOM     23  C   UNL     1      50.427   4.338  18.044  0.00  0.00    +0.000 A 
ATOM     24  N   UNL     1      51.546   3.883  18.658  0.00  0.00    +0.000 NA
ATOM     25  C   UNL     1      52.631   4.508  18.330  0.00  0.00    +0.000 A 
ATOM     26  N   UNL     1      52.691   5.541  17.431  0.00  0.00    +0.000 N 
ATOM     27  C   UNL     1      51.592   6.006  16.752  0.00  0.00    +0.000 A 
ATOM     28  O   UNL     1      51.693   6.887  15.901  0.00  0.00    +0.000 OA
ATOM     29  C   UNL     1      50.345   5.357  17.108  0.00  0.00    +0.000 A 
ATOM     30  H   UNL     1      53.576   5.973  17.203  0.00  0.00    +0.000 HD
ENDBRANCH  17  20
ENDBRANCH   1  16
BRANCH   1  31
ATOM     31  C   UNL     1      48.618   7.683  12.780  0.00  0.00    +0.000 C 
BRANCH  31  32
ATOM     32  N   UNL     1      49.799   6.838  12.558  0.00  0.00    +0.000 NA
ATOM     33  H   UNL     1      50.623   7.313  12.919  0.00  0.00    +0.000 HD
ATOM     34  H   UNL     1      49.949   6.727  11.555  0.00  0.00    +0.000 HD
ENDBRANCH  31  32
ENDBRANCH   1  31
TORSDOF 8
ENDMDL
MODEL 4
REMARK VINA RESULT:    -7.948      4.563      8.528
REMARK INTER + INTRA:         -12.044
REMARK INTER:                 -11.039
REMARK INTRA:                  -1.005
REMARK UNBOUND:                -0.611
REMARK  Name = 
REMARK  8 active torsions:
REMARK  status: ('A' for Active; 'I' for Inactive)
REMARK    1  A    between atoms: N_1  and  C_2
REMARK    2  A    between atoms: C_2  and  C_3
REMARK    3  A    between atoms: C_3  and  N_4
REMARK    4  A    between atoms: C_3  and  C_17
REMARK    5  A    between atoms: C_5  and  C_7
REMARK    6  A    between atoms: C_20  and  O_21
REMARK    7  A    between atoms: O_21  and  C_22
REMARK    8  A    between atoms: C_22  and  C_23
REMARK                            x       y       z     vdW  Elec       q    Type
REMARK                         _______ _______ _______ _____ _____    ______ ____
ROOT
ATOM      1  C   UNL     1      48.679   5.839  17.366  0.00  0.00    +0.000 C 
ENDROOT
BRANCH   1   2
ATOM      2  C   UNL     1      49.562   4.601  17.408  0.00  0.00    +0.000 A 
ATOM      3  C   UNL     1      48.996   3.333  17.207  0.00  0.00    +0.000 A 
ATOM      4  C   UNL     1      49.798   2.188  17.197  0.00  0.00    +0.000 A 
ATOM      5  C   UNL     1      51.175   2.292  17.391  0.00  0.00    +0.000 A 
ATOM      6  C   UNL     1      51.732   3.536  17.678  0.00  0.00    +0.000 A 
ATOM      7  C   UNL     1      50.933   4.681  17.685  0.00  0.00    +0.000 A 
BRANCH   5   8
ATOM      8  O   UNL     1      51.883   1.127  17.274  0.00  0.00    +0.000 OA
BRANCH   8   9
ATOM      9  C   UNL     1      53.158   1.137  17.929  0.00  0.00    +0.000 C 
BRANCH   9  10
ATOM     10  C   UNL     1      53.872  -0.176  17.721  0.00  0.00    +0.000 A 
ATOM     11  C   UNL     1      54.483  -0.452  16.500  0.00  0.00    +0.000 A 
ATOM     12  C   UNL     1      55.197  -1.636  16.356  0.00  0.00    +0.000 A 
ATOM     13  C   UNL     1      55.281  -2.513  17.432  0.00  0.00    +0.000 A 
ATOM     14  C   UNL     1      54.649  -2.163  18.613  0.00  0.00    +0.000 A 
ATOM     15  N   UNL     1      53.955  -1.017  18.784  0.00  0.00    +0.000 NA
ENDBRANCH   9  10
ENDBRANCH   8   9
ENDBRANCH   5   8
ENDBRANCH   1   2
BRANCH   1  16
ATOM     16  N   UNL     1      47.874   5.793  16.160  0.00  0.00    +0.000 N 
ATOM     17  C   UNL     1      48.332   6.260  14.956  0.00  0.00    +0.000 C 
ATOM     18  O   UNL     1      49.481   6.664  14.803  0.00  0.00    +0.000 OA
ATOM     19  H   UNL     1      46.882   5.633  16.290  0.00  0.00    +0.000 HD
BRANCH  17  20
ATOM     20  C   UNL     1      47.383   6.207  13.842  0.00  0.00    +0.000 A 
ATOM     21  C   UNL     1      47.015   7.373  13.186  0.00  0.00    +0.000 A 
ATOM     22  S   UNL     1      45.913   7.118  11.910  0.00  0.00    +0.000 S 
ATOM     23  C   UNL     1      45.849   5.446  12.221  0.00  0.00    +0.000 A 
ATOM     24  N   UNL     1      45.046   4.627  11.497  0.00  0.00    +0.000 NA
ATOM     25  C   UNL     1      45.072   3.386  11.867  0.00  0.00    +0.000 A 
ATOM     26  N   UNL     1      45.841   2.896  12.889  0.00  0.00    +0.000 N 
ATOM     27  C   UNL     1      46.701   3.677  13.620  0.00  0.00    +0.000 A 
ATOM     28  O   UNL     1      47.427   3.191  14.484  0.00  0.00    +0.000 OA
ATOM     29  C   UNL     1      46.685   5.083  13.265  0.00  0.00    +0.000 A 
ATOM     30  H   UNL     1      45.829   1.910  13.114  0.00  0.00    +0.000 HD
ENDBRANCH  17  20
ENDBRANCH   1  16
BRANCH   1  31
ATOM     31  C   UNL     1      47.784   6.040  18.628  0.00  0.00    +0.000 C 
BRANCH  31  32
ATOM     32  N   UNL     1      46.473   5.383  18.545  0.00  0.00    +0.000 NA
ATOM     33  H   UNL     1      46.599   4.375  18.610  0.00  0.00    +0.000 HD
ATOM     34  H   UNL     1      46.065   5.561  17.627  0.00  0.00    +0.000 HD
ENDBRANCH  31  32
ENDBRANCH   1  31
TORSDOF 8
ENDMDL
MODEL 5
REMARK VINA RESULT:    -7.754      2.891      4.508
REMARK INTER + INTRA:         -11.764
REMARK INTER:                 -10.688
REMARK INTRA:                  -1.076
REMARK UNBOUND:                -0.611
REMARK  Name = 
REMARK  8 active torsions:
REMARK  status: ('A' for Active; 'I' for Inactive)
REMARK    1  A    between atoms: N_1  and  C_2
REMARK    2  A    between atoms: C_2  and  C_3
REMARK    3  A    between atoms: C_3  and  N_4
REMARK    4  A    between atoms: C_3  and  C_17
REMARK    5  A    between atoms: C_5  and  C_7
REMARK    6  A    between atoms: C_20  and  O_21
REMARK    7  A    between atoms: O_21  and  C_22
REMARK    8  A    between atoms: C_22  and  C_23
REMARK                            x       y       z     vdW  Elec       q    Type
REMARK                         _______ _______ _______ _____ _____    ______ ____
ROOT
ATOM      1  C   UNL     1      48.023   4.635  15.802  0.00  0.00    +0.000 C 
ENDROOT
BRANCH   1   2
ATOM      2  C   UNL     1      47.300   4.939  14.499  0.00  0.00    +0.000 A 
ATOM      3  C   UNL     1      46.444   3.982  13.936  0.00  0.00    +0.000 A 
ATOM      4  C   UNL     1      45.736   4.261  12.763  0.00  0.00    +0.000 A 
ATOM      5  C   UNL     1      45.876   5.498  12.135  0.00  0.00    +0.000 A 
ATOM      6  C   UNL     1      46.790   6.421  12.639  0.00  0.00    +0.000 A 
ATOM      7  C   UNL     1      47.495   6.144  13.811  0.00  0.00    +0.000 A 
BRANCH   5   8
ATOM      8  O   UNL     1      45.075   5.707  11.045  0.00  0.00    +0.000 OA
BRANCH   8   9
ATOM      9  C   UNL     1      44.350   4.551  10.607  0.00  0.00    +0.000 C 
BRANCH   9  10
ATOM     10  C   UNL     1      45.103   3.836   9.512  0.00  0.00    +0.000 A 
ATOM     11  C   UNL     1      45.147   2.444   9.489  0.00  0.00    +0.000 A 
ATOM     12  C   UNL     1      45.784   1.807   8.430  0.00  0.00    +0.000 A 
ATOM     13  C   UNL     1      46.361   2.574   7.424  0.00  0.00    +0.000 A 
ATOM     14  C   UNL     1      46.269   3.952   7.519  0.00  0.00    +0.000 A 
ATOM     15  N   UNL     1      45.652   4.598   8.531  0.00  0.00    +0.000 NA
ENDBRANCH   9  10
ENDBRANCH   8   9
ENDBRANCH   5   8
ENDBRANCH   1   2
BRANCH   1  16
ATOM     16  N   UNL     1      47.783   5.723  16.731  0.00  0.00    +0.000 N 
ATOM     17  C   UNL     1      48.714   6.115  17.656  0.00  0.00    +0.000 C 
ATOM     18  O   UNL     1      49.842   5.631  17.698  0.00  0.00    +0.000 OA
ATOM     19  H   UNL     1      46.819   6.017  16.837  0.00  0.00    +0.000 HD
BRANCH  17  20
ATOM     20  C   UNL     1      48.305   7.185  18.568  0.00  0.00    +0.000 A 
ATOM     21  C   UNL     1      48.073   6.906  19.908  0.00  0.00    +0.000 A 
ATOM     22  S   UNL     1      47.618   8.273  20.819  0.00  0.00    +0.000 S 
ATOM     23  C   UNL     1      47.664   9.278  19.446  0.00  0.00    +0.000 A 
ATOM     24  N   UNL     1      47.337  10.591  19.525  0.00  0.00    +0.000 NA
ATOM     25  C   UNL     1      47.383  11.225  18.397  0.00  0.00    +0.000 A 
ATOM     26  N   UNL     1      47.740  10.659  17.202  0.00  0.00    +0.000 N 
ATOM     27  C   UNL     1      48.122   9.346  17.080  0.00  0.00    +0.000 A 
ATOM     28  O   UNL     1      48.503   8.889  16.005  0.00  0.00    +0.000 OA
ATOM     29  C   UNL     1      48.057   8.584  18.312  0.00  0.00    +0.000 A 
ATOM     30  H   UNL     1      47.775  11.216  16.359  0.00  0.00    +0.000 HD
ENDBRANCH  17  20
ENDBRANCH   1  16
BRANCH   1  31
ATOM     31  C   UNL     1      47.652   3.261  16.444  0.00  0.00    +0.000 C 
BRANCH  31  32
ATOM     32  N   UNL     1      46.637   3.348  17.502  0.00  0.00    +0.000 NA
ATOM     33  H   UNL     1      47.089   3.250  18.408  0.00  0.00    +0.000 HD
ATOM     34  H   UNL     1      45.995   2.559  17.416  0.00  0.00    +0.000 HD
ENDBRANCH  31  32
ENDBRANCH   1  31
TORSDOF 8
ENDMDL
MODEL 6
REMARK VINA RESULT:    -7.721      2.168      2.470
REMARK INTER + INTRA:         -11.717
REMARK INTER:                 -10.997
REMARK INTRA:                  -0.720
REMARK UNBOUND:                -0.611
REMARK  Name = 
REMARK  8 active torsions:
REMARK  status: ('A' for Active; 'I' for Inactive)
REMARK    1  A    between atoms: N_1  and  C_2
REMARK    2  A    between atoms: C_2  and  C_3
REMARK    3  A    between atoms: C_3  and  N_4
REMARK    4  A    between atoms: C_3  and  C_17
REMARK    5  A    between atoms: C_5  and  C_7
REMARK    6  A    between atoms: C_20  and  O_21
REMARK    7  A    between atoms: O_21  and  C_22
REMARK    8  A    between atoms: C_22  and  C_23
REMARK                            x       y       z     vdW  Elec       q    Type
REMARK                         _______ _______ _______ _____ _____    ______ ____
ROOT
ATOM      1  C   UNL     1      47.741   6.820  13.516  0.00  0.00    +0.000 C 
ENDROOT
BRANCH   1   2
ATOM      2  C   UNL     1      46.776   5.995  12.677  0.00  0.00    +0.000 A 
ATOM      3  C   UNL     1      46.433   6.424  11.386  0.00  0.00    +0.000 A 
ATOM      4  C   UNL     1      45.584   5.657  10.583  0.00  0.00    +0.000 A 
ATOM      5  C   UNL     1      45.063   4.454  11.059  0.00  0.00    +0.000 A 
ATOM      6  C   UNL     1      45.329   4.065  12.370  0.00  0.00    +0.000 A 
ATOM      7  C   UNL     1      46.180   4.829  13.171  0.00  0.00    +0.000 A 
BRANCH   5   8
ATOM      8  O   UNL     1      44.316   3.733  10.167  0.00  0.00    +0.000 OA
BRANCH   8   9
ATOM      9  C   UNL     1      44.527   4.083   8.793  0.00  0.00    +0.000 C 
BRANCH   9  10
ATOM     10  C   UNL     1      45.485   3.117   8.141  0.00  0.00    +0.000 A 
ATOM     11  C   UNL     1      46.372   3.565   7.164  0.00  0.00    +0.000 A 
ATOM     12  C   UNL     1      47.294   2.672   6.630  0.00  0.00    +0.000 A 
ATOM     13  C   UNL     1      47.307   1.358   7.083  0.00  0.00    +0.000 A 
ATOM     14  C   UNL     1      46.395   0.993   8.059  0.00  0.00    +0.000 A 
ATOM     15  N   UNL     1      45.494   1.839   8.601  0.00  0.00    +0.000 NA
ENDBRANCH   9  10
ENDBRANCH   8   9
ENDBRANCH   5   8
ENDBRANCH   1   2
BRANCH   1  16
ATOM     16  N   UNL     1      47.821   6.233  14.841  0.00  0.00    +0.000 N 
ATOM     17  C   UNL     1      48.603   6.767  15.832  0.00  0.00    +0.000 C 
ATOM     18  O   UNL     1      49.213   7.823  15.689  0.00  0.00    +0.000 OA
ATOM     19  H   UNL     1      47.476   5.285  14.933  0.00  0.00    +0.000 HD
BRANCH  17  20
ATOM     20  C   UNL     1      48.632   6.029  17.096  0.00  0.00    +0.000 A 
ATOM     21  C   UNL     1      49.030   4.699  17.116  0.00  0.00    +0.000 A 
ATOM     22  S   UNL     1      49.013   4.007  18.674  0.00  0.00    +0.000 S 
ATOM     23  C   UNL     1      48.424   5.444  19.371  0.00  0.00    +0.000 A 
ATOM     24  N   UNL     1      48.149   5.520  20.697  0.00  0.00    +0.000 NA
ATOM     25  C   UNL     1      47.675   6.662  21.082  0.00  0.00    +0.000 A 
ATOM     26  N   UNL     1      47.465   7.734  20.256  0.00  0.00    +0.000 N 
ATOM     27  C   UNL     1      47.769   7.719  18.917  0.00  0.00    +0.000 A 
ATOM     28  O   UNL     1      47.634   8.721  18.220  0.00  0.00    +0.000 OA
ATOM     29  C   UNL     1      48.275   6.450  18.430  0.00  0.00    +0.000 A 
ATOM     30  H   UNL     1      47.110   8.606  20.625  0.00  0.00    +0.000 HD
ENDBRANCH  17  20
ENDBRANCH   1  16
BRANCH   1  31
ATOM     31  C   UNL     1      49.162   6.987  12.894  0.00  0.00    +0.000 C 
BRANCH  31  32
ATOM     32  N   UNL     1      49.520   8.377  12.581  0.00  0.00    +0.000 NA
ATOM     33  H   UNL     1      48.828   9.002  12.990  0.00  0.00    +0.000 HD
ATOM     34  H   UNL     1      49.471   8.518  11.572  0.00  0.00    +0.000 HD
ENDBRANCH  31  32
ENDBRANCH   1  31
TORSDOF 8
ENDMDL
MODEL 7
REMARK VINA RESULT:    -7.609      1.995      2.281
REMARK INTER + INTRA:         -11.556
REMARK INTER:                 -10.337
REMARK INTRA:                  -1.219
REMARK UNBOUND:                -0.611
REMARK  Name = 
REMARK  8 active torsions:
REMARK  status: ('A' for Active; 'I' for Inactive)
REMARK    1  A    between atoms: N_1  and  C_2
REMARK    2  A    between atoms: C_2  and  C_3
REMARK    3  A    between atoms: C_3  and  N_4
REMARK    4  A    between atoms: C_3  and  C_17
REMARK    5  A    between atoms: C_5  and  C_7
REMARK    6  A    between atoms: C_20  and  O_21
REMARK    7  A    between atoms: O_21  and  C_22
REMARK    8  A    between atoms: C_22  and  C_23
REMARK                            x       y       z     vdW  Elec       q    Type
REMARK                         _______ _______ _______ _____ _____    ______ ____
ROOT
ATOM      1  C   UNL     1      47.705   7.941  13.528  0.00  0.00    +0.000 C 
ENDROOT
BRANCH   1   2
ATOM      2  C   UNL     1      46.824   6.864  12.912  0.00  0.00    +0.000 A 
ATOM      3  C   UNL     1      46.229   7.082  11.661  0.00  0.00    +0.000 A 
ATOM      4  C   UNL     1      45.453   6.086  11.058  0.00  0.00    +0.000 A 
ATOM      5  C   UNL     1      45.260   4.863  11.698  0.00  0.00    +0.000 A 
ATOM      6  C   UNL     1      45.775   4.672  12.978  0.00  0.00    +0.000 A 
ATOM      7  C   UNL     1      46.552   5.663  13.579  0.00  0.00    +0.000 A 
BRANCH   5   8
ATOM      8  O   UNL     1      44.562   3.923  10.988  0.00  0.00    +0.000 OA
BRANCH   8   9
ATOM      9  C   UNL     1      44.348   4.254   9.610  0.00  0.00    +0.000 C 
BRANCH   9  10
ATOM     10  C   UNL     1      45.230   3.414   8.720  0.00  0.00    +0.000 A 
ATOM     11  C   UNL     1      45.985   4.018   7.716  0.00  0.00    +0.000 A 
ATOM     12  C   UNL     1      46.846   3.234   6.957  0.00  0.00    +0.000 A 
ATOM     13  C   UNL     1      46.930   1.871   7.217  0.00  0.00    +0.000 A 
ATOM     14  C   UNL     1      46.149   1.349   8.235  0.00  0.00    +0.000 A 
ATOM     15  N   UNL     1      45.311   2.086   8.993  0.00  0.00    +0.000 NA
ENDBRANCH   9  10
ENDBRANCH   8   9
ENDBRANCH   5   8
ENDBRANCH   1   2
BRANCH   1  16
ATOM     16  N   UNL     1      47.815   7.691  14.953  0.00  0.00    +0.000 N 
ATOM     17  C   UNL     1      48.286   8.635  15.827  0.00  0.00    +0.000 C 
ATOM     18  O   UNL     1      48.560   9.778  15.474  0.00  0.00    +0.000 OA
ATOM     19  H   UNL     1      47.764   6.722  15.243  0.00  0.00    +0.000 HD
BRANCH  17  20
ATOM     20  C   UNL     1      48.400   8.217  17.226  0.00  0.00    +0.000 A 
ATOM     21  C   UNL     1      48.051   9.093  18.244  0.00  0.00    +0.000 A 
ATOM     22  S   UNL     1      48.236   8.432  19.805  0.00  0.00    +0.000 S 
ATOM     23  C   UNL     1      48.838   6.968  19.178  0.00  0.00    +0.000 A 
ATOM     24  N   UNL     1      49.233   5.963  19.998  0.00  0.00    +0.000 NA
ATOM     25  C   UNL     1      49.703   4.924  19.385  0.00  0.00    +0.000 A 
ATOM     26  N   UNL     1      49.798   4.802  18.023  0.00  0.00    +0.000 N 
ATOM     27  C   UNL     1      49.371   5.774  17.153  0.00  0.00    +0.000 A 
ATOM     28  O   UNL     1      49.407   5.603  15.937  0.00  0.00    +0.000 OA
ATOM     29  C   UNL     1      48.865   6.973  17.792  0.00  0.00    +0.000 A 
ATOM     30  H   UNL     1      50.156   3.953  17.607  0.00  0.00    +0.000 HD
ENDBRANCH  17  20
ENDBRANCH   1  16
BRANCH   1  31
ATOM     31  C   UNL     1      49.115   8.078  12.875  0.00  0.00    +0.000 C 
BRANCH  31  32
ATOM     32  N   UNL     1      50.073   7.045  13.292  0.00  0.00    +0.000 NA
ATOM     33  H   UNL     1      49.613   6.136  13.275  0.00  0.00    +0.000 HD
ATOM     34  H   UNL     1      50.344   7.210  14.261  0.00  0.00    +0.000 HD
ENDBRANCH  31  32
ENDBRANCH   1  31
TORSDOF 8
ENDMDL
MODEL 8
REMARK VINA RESULT:    -7.157      4.070      8.220
REMARK INTER + INTRA:         -10.906
REMARK INTER:                  -9.797
REMARK INTRA:                  -1.109
REMARK UNBOUND:                -0.611
REMARK  Name = 
REMARK  8 active torsions:
REMARK  status: ('A' for Active; 'I' for Inactive)
REMARK    1  A    between atoms: N_1  and  C_2
REMARK    2  A    between atoms: C_2  and  C_3
REMARK    3  A    between atoms: C_3  and  N_4
REMARK    4  A    between atoms: C_3  and  C_17
REMARK    5  A    between atoms: C_5  and  C_7
REMARK    6  A    between atoms: C_20  and  O_21
REMARK    7  A    between atoms: O_21  and  C_22
REMARK    8  A    between atoms: C_22  and  C_23
REMARK                            x       y       z     vdW  Elec       q    Type
REMARK                         _______ _______ _______ _____ _____    ______ ____
ROOT
ATOM      1  C   UNL     1      49.040   7.241  16.135  0.00  0.00    +0.000 C 
ENDROOT
BRANCH   1   2
ATOM      2  C   UNL     1      49.651   5.951  16.662  0.00  0.00    +0.000 A 
ATOM      3  C   UNL     1      51.037   5.866  16.863  0.00  0.00    +0.000 A 
ATOM      4  C   UNL     1      51.611   4.705  17.389  0.00  0.00    +0.000 A 
ATOM      5  C   UNL     1      50.810   3.612  17.719  0.00  0.00    +0.000 A 
ATOM      6  C   UNL     1      49.445   3.657  17.442  0.00  0.00    +0.000 A 
ATOM      7  C   UNL     1      48.871   4.817  16.920  0.00  0.00    +0.000 A 
BRANCH   5   8
ATOM      8  O   UNL     1      51.453   2.558  18.310  0.00  0.00    +0.000 OA
BRANCH   8   9
ATOM      9  C   UNL     1      51.745   1.468  17.427  0.00  0.00    +0.000 C 
BRANCH   9  10
ATOM     10  C   UNL     1      53.108   0.893  17.727  0.00  0.00    +0.000 A 
ATOM     11  C   UNL     1      54.254   1.536  17.263  0.00  0.00    +0.000 A 
ATOM     12  C   UNL     1      55.499   1.029  17.614  0.00  0.00    +0.000 A 
ATOM     13  C   UNL     1      55.570  -0.105  18.416  0.00  0.00    +0.000 A 
ATOM     14  C   UNL     1      54.384  -0.682  18.839  0.00  0.00    +0.000 A 
ATOM     15  N   UNL     1      53.161  -0.208  18.521  0.00  0.00    +0.000 NA
ENDBRANCH   9  10
ENDBRANCH   8   9
ENDBRANCH   5   8
ENDBRANCH   1   2
BRANCH   1  16
ATOM     16  N   UNL     1      47.949   6.905  15.240  0.00  0.00    +0.000 N 
ATOM     17  C   UNL     1      48.142   6.679  13.903  0.00  0.00    +0.000 C 
ATOM     18  O   UNL     1      49.260   6.657  13.396  0.00  0.00    +0.000 OA
ATOM     19  H   UNL     1      47.014   7.085  15.587  0.00  0.00    +0.000 HD
BRANCH  17  20
ATOM     20  C   UNL     1      46.938   6.414  13.114  0.00  0.00    +0.000 A 
ATOM     21  C   UNL     1      46.250   7.464  12.521  0.00  0.00    +0.000 A 
ATOM     22  S   UNL     1      44.882   6.966  11.633  0.00  0.00    +0.000 S 
ATOM     23  C   UNL     1      45.129   5.335  12.052  0.00  0.00    +0.000 A 
ATOM     24  N   UNL     1      44.273   4.367  11.642  0.00  0.00    +0.000 NA
ATOM     25  C   UNL     1      44.566   3.178  12.064  0.00  0.00    +0.000 A 
ATOM     26  N   UNL     1      45.646   2.876  12.850  0.00  0.00    +0.000 N 
ATOM     27  C   UNL     1      46.563   3.815  13.253  0.00  0.00    +0.000 A 
ATOM     28  O   UNL     1      47.559   3.498  13.900  0.00  0.00    +0.000 OA
ATOM     29  C   UNL     1      46.263   5.169  12.832  0.00  0.00    +0.000 A 
ATOM     30  H   UNL     1      45.829   1.921  13.128  0.00  0.00    +0.000 HD
ENDBRANCH  17  20
ENDBRANCH   1  16
BRANCH   1  31
ATOM     31  C   UNL     1      48.569   8.235  17.242  0.00  0.00    +0.000 C 
BRANCH  31  32
ATOM     32  N   UNL     1      47.662   9.285  16.759  0.00  0.00    +0.000 NA
ATOM     33  H   UNL     1      46.869   9.360  17.393  0.00  0.00    +0.000 HD
ATOM     34  H   UNL     1      47.280   9.009  15.854  0.00  0.00    +0.000 HD
ENDBRANCH  31  32
ENDBRANCH   1  31
TORSDOF 8
ENDMDL
MODEL 9
REMARK VINA RESULT:    -7.071      2.783      3.793
REMARK INTER + INTRA:         -10.783
REMARK INTER:                  -9.660
REMARK INTRA:                  -1.123
REMARK UNBOUND:                -0.611
REMARK  Name = 
REMARK  8 active torsions:
REMARK  status: ('A' for Active; 'I' for Inactive)
REMARK    1  A    between atoms: N_1  and  C_2
REMARK    2  A    between atoms: C_2  and  C_3
REMARK    3  A    between atoms: C_3  and  N_4
REMARK    4  A    between atoms: C_3  and  C_17
REMARK    5  A    between atoms: C_5  and  C_7
REMARK    6  A    between atoms: C_20  and  O_21
REMARK    7  A    between atoms: O_21  and  C_22
REMARK    8  A    between atoms: C_22  and  C_23
REMARK                            x       y       z     vdW  Elec       q    Type
REMARK                         _______ _______ _______ _____ _____    ______ ____
ROOT
ATOM      1  C   UNL     1      49.434   7.234  15.671  0.00  0.00    +0.000 C 
ENDROOT
BRANCH   1   2
ATOM      2  C   UNL     1      48.418   6.551  14.768  0.00  0.00    +0.000 A 
ATOM      3  C   UNL     1      47.740   5.408  15.219  0.00  0.00    +0.000 A 
ATOM      4  C   UNL     1      46.770   4.793  14.422  0.00  0.00    +0.000 A 
ATOM      5  C   UNL     1      46.467   5.308  13.162  0.00  0.00    +0.000 A 
ATOM      6  C   UNL     1      47.197   6.389  12.671  0.00  0.00    +0.000 A 
ATOM      7  C   UNL     1      48.162   7.006  13.468  0.00  0.00    +0.000 A 
BRANCH   5   8
ATOM      8  O   UNL     1      45.443   4.691  12.496  0.00  0.00    +0.000 OA
BRANCH   8   9
ATOM      9  C   UNL     1      45.076   5.313  11.258  0.00  0.00    +0.000 C 
BRANCH   9  10
ATOM     10  C   UNL     1      45.203   4.337  10.115  0.00  0.00    +0.000 A 
ATOM     11  C   UNL     1      44.794   3.015  10.278  0.00  0.00    +0.000 A 
ATOM     12  C   UNL     1      44.853   2.153   9.189  0.00  0.00    +0.000 A 
ATOM     13  C   UNL     1      45.319   2.630   7.969  0.00  0.00    +0.000 A 
ATOM     14  C   UNL     1      45.702   3.958   7.890  0.00  0.00    +0.000 A 
ATOM     15  N   UNL     1      45.650   4.820   8.927  0.00  0.00    +0.000 NA
ENDBRANCH   9  10
ENDBRANCH   8   9
ENDBRANCH   5   8
ENDBRANCH   1   2
BRANCH   1  16
ATOM     16  N   UNL     1      50.329   6.226  16.207  0.00  0.00    +0.000 N 
ATOM     17  C   UNL     1      50.421   5.967  17.549  0.00  0.00    +0.000 C 
ATOM     18  O   UNL     1      49.688   6.507  18.373  0.00  0.00    +0.000 OA
ATOM     19  H   UNL     1      51.057   5.896  15.584  0.00  0.00    +0.000 HD
BRANCH  17  20
ATOM     20  C   UNL     1      51.414   4.968  17.946  0.00  0.00    +0.000 A 
ATOM     21  C   UNL     1      52.587   5.364  18.574  0.00  0.00    +0.000 A 
ATOM     22  S   UNL     1      53.619   4.066  18.973  0.00  0.00    +0.000 S 
ATOM     23  C   UNL     1      52.558   2.932  18.275  0.00  0.00    +0.000 A 
ATOM     24  N   UNL     1      52.865   1.612  18.243  0.00  0.00    +0.000 NA
ATOM     25  C   UNL     1      51.984   0.870  17.651  0.00  0.00    +0.000 A 
ATOM     26  N   UNL     1      50.819   1.337  17.101  0.00  0.00    +0.000 N 
ATOM     27  C   UNL     1      50.446   2.657  17.148  0.00  0.00    +0.000 A 
ATOM     28  O   UNL     1      49.361   3.030  16.707  0.00  0.00    +0.000 OA
ATOM     29  C   UNL     1      51.415   3.534  17.775  0.00  0.00    +0.000 A 
ATOM     30  H   UNL     1      50.163   0.700  16.670  0.00  0.00    +0.000 HD
ENDBRANCH  17  20
ENDBRANCH   1  16
BRANCH   1  31
ATOM     31  C   UNL     1      50.235   8.387  14.991  0.00  0.00    +0.000 C 
BRANCH  31  32
ATOM     32  N   UNL     1      51.506   7.962  14.391  0.00  0.00    +0.000 NA
ATOM     33  H   UNL     1      52.228   7.950  15.109  0.00  0.00    +0.000 HD
ATOM     34  H   UNL     1      51.801   8.654  13.702  0.00  0.00    +0.000 HD
ENDBRANCH  31  32
ENDBRANCH   1  31
TORSDOF 8
ENDMDL
