MODEL 1
REMARK VINA RESULT:    -7.510      0.000      0.000
REMARK INTER + INTRA:         -10.023
REMARK INTER:                  -9.486
REMARK INTRA:                  -0.537
REMARK UNBOUND:                -0.537
REMARK  Name = 
REMARK  5 active torsions:
REMARK  status: ('A' for Active; 'I' for Inactive)
REMARK    1  A    between atoms: N_1  and  C_2
REMARK    2  A    between atoms: C_2  and  C_3
REMARK    3  A    between atoms: C_6  and  C_7
REMARK    4  A    between atoms: C_7  and  N_8
REMARK    5  A    between atoms: C_12  and  C_13
REMARK                            x       y       z     vdW  Elec       q    Type
REMARK                         _______ _______ _______ _____ _____    ______ ____
ROOT
ATOM      1  C   UNL     1      43.778   4.231  10.227  0.00  0.00    +0.000 C 
ENDROOT
BRANCH   1   2
ATOM      2  N   UNL     1      44.113   3.965  11.610  0.00  0.00    +0.000 N 
ATOM      3  C   UNL     1      45.178   4.618  12.201  0.00  0.00    +0.000 A 
ATOM      4  C   UNL     1      45.564   5.909  11.857  0.00  0.00    +0.000 A 
ATOM      5  C   UNL     1      46.604   6.527  12.550  0.00  0.00    +0.000 A 
ATOM      6  C   UNL     1      47.224   5.860  13.597  0.00  0.00    +0.000 A 
ATOM      7  C   UNL     1      46.777   4.577  13.879  0.00  0.00    +0.000 A 
ATOM      8  N   UNL     1      45.786   3.949  13.198  0.00  0.00    +0.000 NA
ATOM      9  H   UNL     1      44.143   2.985  11.880  0.00  0.00    +0.000 HD
BRANCH   6  10
ATOM     10  C   UNL     1      48.310   6.492  14.410  0.00  0.00    +0.000 C 
ATOM     11  F   UNL     1      49.388   6.875  13.664  0.00  0.00    +0.000 F 
ENDBRANCH   6  10
ENDBRANCH   1   2
BRANCH   1  15
ATOM     12  C   UNL     1      46.596   2.305   7.555  0.00  0.00    +0.000 A 
ATOM     13  C   UNL     1      45.823   1.543   8.443  0.00  0.00    +0.000 A 
ATOM     14  C   UNL     1      44.915   2.162   9.308  0.00  0.00    +0.000 A 
ATOM     15  C   UNL     1      44.766   3.556   9.305  0.00  0.00    +0.000 A 
ATOM     16  C   UNL     1      45.524   4.314   8.403  0.00  0.00    +0.000 A 
ATOM     17  C   UNL     1      46.429   3.695   7.537  0.00  0.00    +0.000 A 
BRANCH  12  18
ATOM     18  C   UNL     1      47.619   1.644   6.666  0.00  0.00    +0.000 C 
BRANCH  18  19
ATOM     19  N   UNL     1      48.700   2.555   6.306  0.00  0.00    +0.000 NA
ATOM     20  H   UNL     1      49.591   2.119   6.535  0.00  0.00    +0.000 HD
ATOM     21  H   UNL     1      48.628   3.391   6.882  0.00  0.00    +0.000 HD
ENDBRANCH  18  19
ENDBRANCH  12  18
ENDBRANCH   1  15
TORSDOF 5
ENDMDL
MODEL 2
REMARK VINA RESULT:    -7.344      2.712      6.130
REMARK INTER + INTRA:          -9.814
REMARK INTER:                  -9.338
REMARK INTRA:                  -0.476
REMARK UNBOUND:                -0.537
REMARK  Name = 
REMARK  5 active torsions:
REMARK  status: ('A' for Active; 'I' for Inactive)
REMARK    1  A    between atoms: N_1  and  C_2
REMARK    2  A    between atoms: C_2  and  C_3
REMARK    3  A    between atoms: C_6  and  C_7
REMARK    4  A    between atoms: C_7  and  N_8
REMARK    5  A    between atoms: C_12  and  C_13
REMARK                            x       y       z     vdW  Elec       q    Type
REMARK                         _______ _______ _______ _____ _____    ______ ____
ROOT
ATOM      1  C   UNL     1      43.528   4.744  10.989  0.00  0.00    +0.000 C 
ENDROOT
BRANCH   1   2
ATOM      2  N   UNL     1      43.864   4.842   9.584  0.00  0.00    +0.000 N 
ATOM      3  C   UNL     1      44.723   3.921   9.015  0.00  0.00    +0.000 A 
ATOM      4  C   UNL     1      44.807   2.598   9.434  0.00  0.00    +0.000 A 
ATOM      5  C   UNL     1      45.645   1.711   8.761  0.00  0.00    +0.000 A 
ATOM      6  C   UNL     1      46.367   2.150   7.658  0.00  0.00    +0.000 A 
ATOM      7  C   UNL     1      46.224   3.483   7.303  0.00  0.00    +0.000 A 
ATOM      8  N   UNL     1      45.434   4.367   7.962  0.00  0.00    +0.000 NA
ATOM      9  H   UNL     1      44.114   5.769   9.249  0.00  0.00    +0.000 HD
BRANCH   6  10
ATOM     10  C   UNL     1      47.243   1.231   6.865  0.00  0.00    +0.000 C 
ATOM     11  F   UNL     1      47.897   1.859   5.845  0.00  0.00    +0.000 F 
ENDBRANCH   6  10
ENDBRANCH   1   2
BRANCH   1  15
ATOM     12  C   UNL     1      46.928   5.896  13.417  0.00  0.00    +0.000 A 
ATOM     13  C   UNL     1      46.253   4.693  13.664  0.00  0.00    +0.000 A 
ATOM     14  C   UNL     1      45.154   4.319  12.884  0.00  0.00    +0.000 A 
ATOM     15  C   UNL     1      44.706   5.146  11.844  0.00  0.00    +0.000 A 
ATOM     16  C   UNL     1      45.394   6.338  11.585  0.00  0.00    +0.000 A 
ATOM     17  C   UNL     1      46.494   6.709  12.363  0.00  0.00    +0.000 A 
BRANCH  12  18
ATOM     18  C   UNL     1      48.074   6.329  14.297  0.00  0.00    +0.000 C 
BRANCH  18  19
ATOM     19  N   UNL     1      49.271   6.637  13.523  0.00  0.00    +0.000 NA
ATOM     20  H   UNL     1      50.092   6.391  14.071  0.00  0.00    +0.000 HD
ATOM     21  H   UNL     1      49.313   7.644  13.372  0.00  0.00    +0.000 HD
ENDBRANCH  18  19
ENDBRANCH  12  18
ENDBRANCH   1  15
TORSDOF 5
ENDMDL
MODEL 3
REMARK VINA RESULT:    -7.021      1.447      2.109
REMARK INTER + INTRA:          -9.405
REMARK INTER:                  -9.144
REMARK INTRA:                  -0.261
REMARK UNBOUND:                -0.537
REMARK  Name = 
REMARK  5 active torsions:
REMARK  status: ('A' for Active; 'I' for Inactive)
REMARK    1  A    between atoms: N_1  and  C_2
REMARK    2  A    between atoms: C_2  and  C_3
REMARK    3  A    between atoms: C_6  and  C_7
REMARK    4  A    between atoms: C_7  and  N_8
REMARK    5  A    between atoms: C_12  and  C_13
REMARK                            x       y       z     vdW  Elec       q    Type
REMARK                         _______ _______ _______ _____ _____    ______ ____
ROOT
ATOM      1  C   UNL     1      43.834   4.135  10.274  0.00  0.00    +0.000 C 
ENDROOT
BRANCH   1   2
ATOM      2  N   UNL     1      43.973   5.575  10.269  0.00  0.00    +0.000 N 
ATOM      3  C   UNL     1      44.805   6.192  11.185  0.00  0.00    +0.000 A 
ATOM      4  C   UNL     1      45.965   5.602  11.677  0.00  0.00    +0.000 A 
ATOM      5  C   UNL     1      46.790   6.317  12.543  0.00  0.00    +0.000 A 
ATOM      6  C   UNL     1      46.463   7.623  12.884  0.00  0.00    +0.000 A 
ATOM      7  C   UNL     1      45.291   8.138  12.348  0.00  0.00    +0.000 A 
ATOM      8  N   UNL     1      44.462   7.448  11.525  0.00  0.00    +0.000 NA
ATOM      9  H   UNL     1      43.108   6.107  10.208  0.00  0.00    +0.000 HD
BRANCH   6  10
ATOM     10  C   UNL     1      47.336   8.456  13.768  0.00  0.00    +0.000 C 
ATOM     11  F   UNL     1      48.505   8.831  13.170  0.00  0.00    +0.000 F 
ENDBRANCH   6  10
ENDBRANCH   1   2
BRANCH   1  15
ATOM     12  C   UNL     1      46.600   2.323   7.472  0.00  0.00    +0.000 A 
ATOM     13  C   UNL     1      46.372   3.706   7.453  0.00  0.00    +0.000 A 
ATOM     14  C   UNL     1      45.479   4.293   8.354  0.00  0.00    +0.000 A 
ATOM     15  C   UNL     1      44.791   3.507   9.289  0.00  0.00    +0.000 A 
ATOM     16  C   UNL     1      45.034   2.128   9.320  0.00  0.00    +0.000 A 
ATOM     17  C   UNL     1      45.930   1.542   8.421  0.00  0.00    +0.000 A 
BRANCH  12  18
ATOM     18  C   UNL     1      47.516   1.681   6.460  0.00  0.00    +0.000 C 
BRANCH  18  19
ATOM     19  N   UNL     1      48.678   2.512   6.171  0.00  0.00    +0.000 NA
ATOM     20  H   UNL     1      49.131   2.167   5.327  0.00  0.00    +0.000 HD
ATOM     21  H   UNL     1      49.353   2.405   6.927  0.00  0.00    +0.000 HD
ENDBRANCH  18  19
ENDBRANCH  12  18
ENDBRANCH   1  15
TORSDOF 5
ENDMDL
MODEL 4
REMARK VINA RESULT:    -6.812      3.059      6.406
REMARK INTER + INTRA:          -9.142
REMARK INTER:                  -8.858
REMARK INTRA:                  -0.283
REMARK UNBOUND:                -0.537
REMARK  Name = 
REMARK  5 active torsions:
REMARK  status: ('A' for Active; 'I' for Inactive)
REMARK    1  A    between atoms: N_1  and  C_2
REMARK    2  A    between atoms: C_2  and  C_3
REMARK    3  A    between atoms: C_6  and  C_7
REMARK    4  A    between atoms: C_7  and  N_8
REMARK    5  A    between atoms: C_12  and  C_13
REMARK                            x       y       z     vdW  Elec       q    Type
REMARK                         _______ _______ _______ _____ _____    ______ ____
ROOT
ATOM      1  C   UNL     1      43.708   3.399  10.999  0.00  0.00    +0.000 C 
ENDROOT
BRANCH   1   2
ATOM      2  N   UNL     1      44.787   2.529  10.584  0.00  0.00    +0.000 N 
ATOM      3  C   UNL     1      45.312   2.639   9.310  0.00  0.00    +0.000 A 
ATOM      4  C   UNL     1      45.376   3.842   8.615  0.00  0.00    +0.000 A 
ATOM      5  C   UNL     1      45.986   3.886   7.363  0.00  0.00    +0.000 A 
ATOM      6  C   UNL     1      46.552   2.734   6.833  0.00  0.00    +0.000 A 
ATOM      7  C   UNL     1      46.449   1.577   7.591  0.00  0.00    +0.000 A 
ATOM      8  N   UNL     1      45.835   1.509   8.798  0.00  0.00    +0.000 NA
ATOM      9  H   UNL     1      44.674   1.541  10.803  0.00  0.00    +0.000 HD
BRANCH   6  10
ATOM     10  C   UNL     1      47.265   2.732   5.517  0.00  0.00    +0.000 C 
ATOM     11  F   UNL     1      48.258   1.798   5.445  0.00  0.00    +0.000 F 
ENDBRANCH   6  10
ENDBRANCH   1   2
BRANCH   1  15
ATOM     12  C   UNL     1      45.281   7.178  12.425  0.00  0.00    +0.000 A 
ATOM     13  C   UNL     1      45.858   5.968  12.834  0.00  0.00    +0.000 A 
ATOM     14  C   UNL     1      45.352   4.747  12.378  0.00  0.00    +0.000 A 
ATOM     15  C   UNL     1      44.254   4.713  11.506  0.00  0.00    +0.000 A 
ATOM     16  C   UNL     1      43.691   5.923  11.083  0.00  0.00    +0.000 A 
ATOM     17  C   UNL     1      44.199   7.143  11.536  0.00  0.00    +0.000 A 
BRANCH  12  18
ATOM     18  C   UNL     1      45.787   8.492  12.965  0.00  0.00    +0.000 C 
BRANCH  18  19
ATOM     19  N   UNL     1      44.793   9.552  12.845  0.00  0.00    +0.000 NA
ATOM     20  H   UNL     1      44.800   9.906  11.891  0.00  0.00    +0.000 HD
ATOM     21  H   UNL     1      45.067  10.327  13.445  0.00  0.00    +0.000 HD
ENDBRANCH  18  19
ENDBRANCH  12  18
ENDBRANCH   1  15
TORSDOF 5
ENDMDL
MODEL 5
REMARK VINA RESULT:    -6.050      1.929      2.400
REMARK INTER + INTRA:          -8.179
REMARK INTER:                  -7.882
REMARK INTRA:                  -0.297
REMARK UNBOUND:                -0.537
REMARK  Name = 
REMARK  5 active torsions:
REMARK  status: ('A' for Active; 'I' for Inactive)
REMARK    1  A    between atoms: N_1  and  C_2
REMARK    2  A    between atoms: C_2  and  C_3
REMARK    3  A    between atoms: C_6  and  C_7
REMARK    4  A    between atoms: C_7  and  N_8
REMARK    5  A    between atoms: C_12  and  C_13
REMARK                            x       y       z     vdW  Elec       q    Type
REMARK                         _______ _______ _______ _____ _____    ______ ____
ROOT
ATOM      1  C   UNL     1      44.748   5.284   9.977  0.00  0.00    +0.000 C 
ENDROOT
BRANCH   1   2
ATOM      2  N   UNL     1      45.810   5.994  10.658  0.00  0.00    +0.000 N 
ATOM      3  C   UNL     1      46.164   5.638  11.945  0.00  0.00    +0.000 A 
ATOM      4  C   UNL     1      46.078   4.335  12.426  0.00  0.00    +0.000 A 
ATOM      5  C   UNL     1      46.523   4.042  13.713  0.00  0.00    +0.000 A 
ATOM      6  C   UNL     1      47.077   5.047  14.495  0.00  0.00    +0.000 A 
ATOM      7  C   UNL     1      47.130   6.318  13.940  0.00  0.00    +0.000 A 
ATOM      8  N   UNL     1      46.677   6.627  12.700  0.00  0.00    +0.000 NA
ATOM      9  H   UNL     1      45.776   7.009  10.600  0.00  0.00    +0.000 HD
BRANCH   6  10
ATOM     10  C   UNL     1      47.618   4.782  15.864  0.00  0.00    +0.000 C 
ATOM     11  F   UNL     1      46.950   3.791  16.525  0.00  0.00    +0.000 F 
ENDBRANCH   6  10
ENDBRANCH   1   2
BRANCH   1  15
ATOM     12  C   UNL     1      46.372   1.959   7.720  0.00  0.00    +0.000 A 
ATOM     13  C   UNL     1      46.723   3.277   7.396  0.00  0.00    +0.000 A 
ATOM     14  C   UNL     1      46.199   4.352   8.121  0.00  0.00    +0.000 A 
ATOM     15  C   UNL     1      45.309   4.129   9.181  0.00  0.00    +0.000 A 
ATOM     16  C   UNL     1      44.975   2.811   9.516  0.00  0.00    +0.000 A 
ATOM     17  C   UNL     1      45.501   1.737   8.794  0.00  0.00    +0.000 A 
BRANCH  12  18
ATOM     18  C   UNL     1      46.887   0.803   6.900  0.00  0.00    +0.000 C 
BRANCH  18  19
ATOM     19  N   UNL     1      46.918  -0.438   7.664  0.00  0.00    +0.000 NA
ATOM     20  H   UNL     1      46.204  -0.400   8.388  0.00  0.00    +0.000 HD
ATOM     21  H   UNL     1      47.815  -0.505   8.143  0.00  0.00    +0.000 HD
ENDBRANCH  18  19
ENDBRANCH  12  18
ENDBRANCH   1  15
TORSDOF 5
ENDMDL
MODEL 6
REMARK VINA RESULT:    -5.701      4.363      7.942
REMARK INTER + INTRA:          -7.738
REMARK INTER:                  -7.369
REMARK INTRA:                  -0.369
REMARK UNBOUND:                -0.537
REMARK  Name = 
REMARK  5 active torsions:
REMARK  status: ('A' for Active; 'I' for Inactive)
REMARK    1  A    between atoms: N_1  and  C_2
REMARK    2  A    between atoms: C_2  and  C_3
REMARK    3  A    between atoms: C_6  and  C_7
REMARK    4  A    between atoms: C_7  and  N_8
REMARK    5  A    between atoms: C_12  and  C_13
REMARK                            x       y       z     vdW  Elec       q    Type
REMARK                         _______ _______ _______ _____ _____    ______ ____
ROOT
ATOM      1  C   UNL     1      47.668   4.337  16.634  0.00  0.00    +0.000 C 
ENDROOT
BRANCH   1   2
ATOM      2  N   UNL     1      47.121   3.642  15.489  0.00  0.00    +0.000 N 
ATOM      3  C   UNL     1      46.734   4.354  14.370  0.00  0.00    +0.000 A 
ATOM      4  C   UNL     1      47.358   5.528  13.961  0.00  0.00    +0.000 A 
ATOM      5  C   UNL     1      46.957   6.149  12.780  0.00  0.00    +0.000 A 
ATOM      6  C   UNL     1      45.958   5.574  12.005  0.00  0.00    +0.000 A 
ATOM      7  C   UNL     1      45.390   4.401  12.481  0.00  0.00    +0.000 A 
ATOM      8  N   UNL     1      45.748   3.797  13.641  0.00  0.00    +0.000 NA
ATOM      9  H   UNL     1      46.411   2.942  15.690  0.00  0.00    +0.000 HD
BRANCH   6  10
ATOM     10  C   UNL     1      45.522   6.167  10.702  0.00  0.00    +0.000 C 
ATOM     11  F   UNL     1      46.171   5.636   9.624  0.00  0.00    +0.000 F 
ENDBRANCH   6  10
ENDBRANCH   1   2
BRANCH   1  15
ATOM     12  C   UNL     1      51.531   2.691  17.710  0.00  0.00    +0.000 A 
ATOM     13  C   UNL     1      51.267   4.057  17.885  0.00  0.00    +0.000 A 
ATOM     14  C   UNL     1      50.022   4.592  17.536  0.00  0.00    +0.000 A 
ATOM     15  C   UNL     1      49.019   3.770  17.002  0.00  0.00    +0.000 A 
ATOM     16  C   UNL     1      49.278   2.403  16.847  0.00  0.00    +0.000 A 
ATOM     17  C   UNL     1      50.521   1.868  17.198  0.00  0.00    +0.000 A 
BRANCH  12  18
ATOM     18  C   UNL     1      52.893   2.126  18.028  0.00  0.00    +0.000 C 
BRANCH  18  19
ATOM     19  N   UNL     1      53.349   2.513  19.357  0.00  0.00    +0.000 NA
ATOM     20  H   UNL     1      53.360   1.691  19.956  0.00  0.00    +0.000 HD
ATOM     21  H   UNL     1      52.671   3.158  19.761  0.00  0.00    +0.000 HD
ENDBRANCH  18  19
ENDBRANCH  12  18
ENDBRANCH   1  15
TORSDOF 5
ENDMDL
MODEL 7
REMARK VINA RESULT:    -5.538      2.938      4.237
REMARK INTER + INTRA:          -7.532
REMARK INTER:                  -7.233
REMARK INTRA:                  -0.299
REMARK UNBOUND:                -0.537
REMARK  Name = 
REMARK  5 active torsions:
REMARK  status: ('A' for Active; 'I' for Inactive)
REMARK    1  A    between atoms: N_1  and  C_2
REMARK    2  A    between atoms: C_2  and  C_3
REMARK    3  A    between atoms: C_6  and  C_7
REMARK    4  A    between atoms: C_7  and  N_8
REMARK    5  A    between atoms: C_12  and  C_13
REMARK                            x       y       z     vdW  Elec       q    Type
REMARK                         _______ _______ _______ _____ _____    ______ ____
ROOT
ATOM      1  C   UNL     1      45.586   5.096  13.639  0.00  0.00    +0.000 C 
ENDROOT
BRANCH   1   2
ATOM      2  N   UNL     1      46.975   5.376  13.935  0.00  0.00    +0.000 N 
ATOM      3  C   UNL     1      47.474   5.131  15.200  0.00  0.00    +0.000 A 
ATOM      4  C   UNL     1      47.011   4.103  16.015  0.00  0.00    +0.000 A 
ATOM      5  C   UNL     1      47.615   3.874  17.250  0.00  0.00    +0.000 A 
ATOM      6  C   UNL     1      48.694   4.655  17.643  0.00  0.00    +0.000 A 
ATOM      7  C   UNL     1      49.096   5.656  16.771  0.00  0.00    +0.000 A 
ATOM      8  N   UNL     1      48.503   5.911  15.579  0.00  0.00    +0.000 NA
ATOM      9  H   UNL     1      47.326   6.277  13.617  0.00  0.00    +0.000 HD
BRANCH   6  10
ATOM     10  C   UNL     1      49.415   4.422  18.934  0.00  0.00    +0.000 C 
ATOM     11  F   UNL     1      48.644   3.806  19.877  0.00  0.00    +0.000 F 
ENDBRANCH   6  10
ENDBRANCH   1   2
BRANCH   1  15
ATOM     12  C   UNL     1      45.126   4.045   9.459  0.00  0.00    +0.000 A 
ATOM     13  C   UNL     1      45.569   5.324   9.826  0.00  0.00    +0.000 A 
ATOM     14  C   UNL     1      45.716   5.667  11.174  0.00  0.00    +0.000 A 
ATOM     15  C   UNL     1      45.418   4.738  12.181  0.00  0.00    +0.000 A 
ATOM     16  C   UNL     1      44.995   3.455  11.812  0.00  0.00    +0.000 A 
ATOM     17  C   UNL     1      44.851   3.112  10.465  0.00  0.00    +0.000 A 
BRANCH  12  18
ATOM     18  C   UNL     1      44.908   3.695   8.008  0.00  0.00    +0.000 C 
BRANCH  18  19
ATOM     19  N   UNL     1      46.114   3.891   7.212  0.00  0.00    +0.000 NA
ATOM     20  H   UNL     1      46.626   4.690   7.579  0.00  0.00    +0.000 HD
ATOM     21  H   UNL     1      45.842   4.132   6.260  0.00  0.00    +0.000 HD
ENDBRANCH  18  19
ENDBRANCH  12  18
ENDBRANCH   1  15
TORSDOF 5
ENDMDL
MODEL 8
REMARK VINA RESULT:    -5.329      1.774      2.743
REMARK INTER + INTRA:          -7.268
REMARK INTER:                  -7.041
REMARK INTRA:                  -0.227
REMARK UNBOUND:                -0.537
REMARK  Name = 
REMARK  5 active torsions:
REMARK  status: ('A' for Active; 'I' for Inactive)
REMARK    1  A    between atoms: N_1  and  C_2
REMARK    2  A    between atoms: C_2  and  C_3
REMARK    3  A    between atoms: C_6  and  C_7
REMARK    4  A    between atoms: C_7  and  N_8
REMARK    5  A    between atoms: C_12  and  C_13
REMARK                            x       y       z     vdW  Elec       q    Type
REMARK                         _______ _______ _______ _____ _____    ______ ____
ROOT
ATOM      1  C   UNL     1      44.436   5.303  12.568  0.00  0.00    +0.000 C 
ENDROOT
BRANCH   1   2
ATOM      2  N   UNL     1      45.589   5.278  13.443  0.00  0.00    +0.000 N 
ATOM      3  C   UNL     1      46.578   6.234  13.308  0.00  0.00    +0.000 A 
ATOM      4  C   UNL     1      46.326   7.536  12.888  0.00  0.00    +0.000 A 
ATOM      5  C   UNL     1      47.366   8.463  12.847  0.00  0.00    +0.000 A 
ATOM      6  C   UNL     1      48.639   8.087  13.256  0.00  0.00    +0.000 A 
ATOM      7  C   UNL     1      48.805   6.771  13.665  0.00  0.00    +0.000 A 
ATOM      8  N   UNL     1      47.811   5.848  13.685  0.00  0.00    +0.000 NA
ATOM      9  H   UNL     1      46.030   4.371  13.573  0.00  0.00    +0.000 HD
BRANCH   6  10
ATOM     10  C   UNL     1      49.782   9.052  13.283  0.00  0.00    +0.000 C 
ATOM     11  F   UNL     1      50.021   9.638  12.073  0.00  0.00    +0.000 F 
ENDBRANCH   6  10
ENDBRANCH   1   2
BRANCH   1  15
ATOM     12  C   UNL     1      45.484   3.714   8.673  0.00  0.00    +0.000 A 
ATOM     13  C   UNL     1      45.752   5.053   8.991  0.00  0.00    +0.000 A 
ATOM     14  C   UNL     1      45.413   5.569  10.245  0.00  0.00    +0.000 A 
ATOM     15  C   UNL     1      44.795   4.756  11.206  0.00  0.00    +0.000 A 
ATOM     16  C   UNL     1      44.546   3.413  10.894  0.00  0.00    +0.000 A 
ATOM     17  C   UNL     1      44.887   2.897   9.642  0.00  0.00    +0.000 A 
BRANCH  12  18
ATOM     18  C   UNL     1      45.793   3.173   7.300  0.00  0.00    +0.000 C 
BRANCH  18  19
ATOM     19  N   UNL     1      46.800   3.972   6.612  0.00  0.00    +0.000 NA
ATOM     20  H   UNL     1      46.572   4.958   6.721  0.00  0.00    +0.000 HD
ATOM     21  H   UNL     1      46.753   3.771   5.615  0.00  0.00    +0.000 HD
ENDBRANCH  18  19
ENDBRANCH  12  18
ENDBRANCH   1  15
TORSDOF 5
ENDMDL
MODEL 9
REMARK VINA RESULT:    -5.320      3.174      6.547
REMARK INTER + INTRA:          -7.257
REMARK INTER:                  -6.798
REMARK INTRA:                  -0.459
REMARK UNBOUND:                -0.537
REMARK  Name = 
REMARK  5 active torsions:
REMARK  status: ('A' for Active; 'I' for Inactive)
REMARK    1  A    between atoms: N_1  and  C_2
REMARK    2  A    between atoms: C_2  and  C_3
REMARK    3  A    between atoms: C_6  and  C_7
REMARK    4  A    between atoms: C_7  and  N_8
REMARK    5  A    between atoms: C_12  and  C_13
REMARK                            x       y       z     vdW  Elec       q    Type
REMARK                         _______ _______ _______ _____ _____    ______ ____
ROOT
ATOM      1  C   UNL     1      45.142   6.928  12.219  0.00  0.00    +0.000 C 
ENDROOT
BRANCH   1   2
ATOM      2  N   UNL     1      44.920   6.619  10.822  0.00  0.00    +0.000 N 
ATOM      3  C   UNL     1      45.064   5.321  10.371  0.00  0.00    +0.000 A 
ATOM      4  C   UNL     1      44.782   4.207  11.155  0.00  0.00    +0.000 A 
ATOM      5  C   UNL     1      44.882   2.931  10.605  0.00  0.00    +0.000 A 
ATOM      6  C   UNL     1      45.231   2.783   9.269  0.00  0.00    +0.000 A 
ATOM      7  C   UNL     1      45.492   3.944   8.555  0.00  0.00    +0.000 A 
ATOM      8  N   UNL     1      45.426   5.192   9.081  0.00  0.00    +0.000 NA
ATOM      9  H   UNL     1      45.360   7.246  10.152  0.00  0.00    +0.000 HD
BRANCH   6  10
ATOM     10  C   UNL     1      45.304   1.442   8.610  0.00  0.00    +0.000 C 
ATOM     11  F   UNL     1      46.449   1.256   7.891  0.00  0.00    +0.000 F 
ENDBRANCH   6  10
ENDBRANCH   1   2
BRANCH   1  15
ATOM     12  C   UNL     1      49.246   8.145  12.901  0.00  0.00    +0.000 A 
ATOM     13  C   UNL     1      48.304   9.061  12.411  0.00  0.00    +0.000 A 
ATOM     14  C   UNL     1      46.980   8.671  12.188  0.00  0.00    +0.000 A 
ATOM     15  C   UNL     1      46.573   7.354  12.446  0.00  0.00    +0.000 A 
ATOM     16  C   UNL     1      47.510   6.445  12.953  0.00  0.00    +0.000 A 
ATOM     17  C   UNL     1      48.832   6.836  13.179  0.00  0.00    +0.000 A 
BRANCH  12  18
ATOM     18  C   UNL     1      50.687   8.548  13.083  0.00  0.00    +0.000 C 
BRANCH  18  19
ATOM     19  N   UNL     1      51.366   7.719  14.072  0.00  0.00    +0.000 NA
ATOM     20  H   UNL     1      52.290   7.475  13.722  0.00  0.00    +0.000 HD
ATOM     21  H   UNL     1      50.853   6.845  14.174  0.00  0.00    +0.000 HD
ENDBRANCH  18  19
ENDBRANCH  12  18
ENDBRANCH   1  15
TORSDOF 5
ENDMDL
