MODEL 1
REMARK VINA RESULT:    -9.175      0.000      0.000
REMARK INTER + INTRA:         -11.929
REMARK INTER:                 -11.321
REMARK INTRA:                  -0.608
REMARK UNBOUND:                -0.608
REMARK  Name = 
REMARK  4 active torsions:
REMARK  status: ('A' for Active; 'I' for Inactive)
REMARK    1  A    between atoms: C_2  and  C_4
REMARK    2  A    between atoms: N_8  and  C_9
REMARK    3  A    between atoms: C_9  and  C_10
REMARK    4  A    between atoms: C_14  and  C_15
REMARK                            x       y       z     vdW  Elec       q    Type
REMARK                         _______ _______ _______ _____ _____    ______ ____
ROOT
ATOM      1  C   UNL     1      46.416   2.273   7.695  0.00  0.00    +0.000 A 
ATOM      2  C   UNL     1      45.611   1.783   8.717  0.00  0.00    +0.000 A 
ATOM      3  C   UNL     1      44.747   2.653   9.380  0.00  0.00    +0.000 A 
ATOM      4  C   UNL     1      44.718   3.999   9.032  0.00  0.00    +0.000 A 
ATOM      5  N   UNL     1      43.814   4.893   9.570  0.00  0.00    +0.000 N 
ATOM      6  N   UNL     1      45.511   4.493   8.060  0.00  0.00    +0.000 NA
ATOM      7  C   UNL     1      46.345   3.629   7.418  0.00  0.00    +0.000 A 
ATOM      8  H   UNL     1      44.048   5.825   9.234  0.00  0.00    +0.000 HD
ENDROOT
BRANCH   1  10
ATOM      9  N   UNL     1      48.468   1.985   6.432  0.00  0.00    +0.000 N 
ATOM     10  C   UNL     1      47.327   1.409   6.921  0.00  0.00    +0.000 C 
ATOM     11  O   UNL     1      47.090   0.223   6.754  0.00  0.00    +0.000 OA
ATOM     12  H   UNL     1      49.133   1.363   5.988  0.00  0.00    +0.000 HD
ATOM     13  H   UNL     1      48.813   2.875   6.761  0.00  0.00    +0.000 HD
ENDBRANCH   1  10
BRANCH   5  14
ATOM     14  C   UNL     1      43.444   4.827  10.972  0.00  0.00    +0.000 C 
BRANCH  14  15
ATOM     15  C   UNL     1      44.632   5.110  11.853  0.00  0.00    +0.000 A 
ATOM     16  C   UNL     1      44.820   4.393  13.027  0.00  0.00    +0.000 A 
ATOM     17  N   UNL     1      45.806   4.644  13.913  0.00  0.00    +0.000 NA
ATOM     18  C   UNL     1      46.646   5.668  13.620  0.00  0.00    +0.000 A 
ATOM     19  C   UNL     1      46.559   6.483  12.491  0.00  0.00    +0.000 A 
ATOM     20  C   UNL     1      45.512   6.177  11.609  0.00  0.00    +0.000 A 
BRANCH  19  21
ATOM     21  C   UNL     1      47.486   7.605  12.243  0.00  0.00    +0.000 A 
ATOM     22  C   UNL     1      48.828   7.405  11.888  0.00  0.00    +0.000 A 
ATOM     23  C   UNL     1      49.671   8.489  11.641  0.00  0.00    +0.000 A 
ATOM     24  C   UNL     1      49.152   9.764  11.762  0.00  0.00    +0.000 A 
ATOM     25  N   UNL     1      47.874  10.017  12.102  0.00  0.00    +0.000 NA
ATOM     26  C   UNL     1      47.080   8.941  12.328  0.00  0.00    +0.000 A 
ENDBRANCH  19  21
ENDBRANCH  14  15
ENDBRANCH   5  14
TORSDOF 4
ENDMDL
MODEL 2
REMARK VINA RESULT:    -8.952      1.732      3.432
REMARK INTER + INTRA:         -11.654
REMARK INTER:                 -10.937
REMARK INTRA:                  -0.717
REMARK UNBOUND:                -0.608
REMARK  Name = 
REMARK  4 active torsions:
REMARK  status: ('A' for Active; 'I' for Inactive)
REMARK    1  A    between atoms: C_2  and  C_4
REMARK    2  A    between atoms: N_8  and  C_9
REMARK    3  A    between atoms: C_9  and  C_10
REMARK    4  A    between atoms: C_14  and  C_15
REMARK                            x       y       z     vdW  Elec       q    Type
REMARK                         _______ _______ _______ _____ _____    ______ ____
ROOT
ATOM      1  C   UNL     1      46.404   2.292   7.719  0.00  0.00    +0.000 A 
ATOM      2  C   UNL     1      45.609   1.827   8.760  0.00  0.00    +0.000 A 
ATOM      3  C   UNL     1      44.767   2.718   9.424  0.00  0.00    +0.000 A 
ATOM      4  C   UNL     1      44.749   4.060   9.056  0.00  0.00    +0.000 A 
ATOM      5  N   UNL     1      43.865   4.972   9.595  0.00  0.00    +0.000 N 
ATOM      6  N   UNL     1      45.532   4.528   8.064  0.00  0.00    +0.000 NA
ATOM      7  C   UNL     1      46.345   3.644   7.422  0.00  0.00    +0.000 A 
ATOM      8  H   UNL     1      44.105   5.897   9.241  0.00  0.00    +0.000 HD
ENDROOT
BRANCH   1  10
ATOM      9  N   UNL     1      48.342   1.989   6.291  0.00  0.00    +0.000 N 
ATOM     10  C   UNL     1      47.291   1.404   6.943  0.00  0.00    +0.000 C 
ATOM     11  O   UNL     1      47.114   0.196   6.914  0.00  0.00    +0.000 OA
ATOM     12  H   UNL     1      49.000   1.362   5.844  0.00  0.00    +0.000 HD
ATOM     13  H   UNL     1      48.660   2.925   6.498  0.00  0.00    +0.000 HD
ENDBRANCH   1  10
BRANCH   5  14
ATOM     14  C   UNL     1      43.517   4.932  11.004  0.00  0.00    +0.000 C 
BRANCH  14  15
ATOM     15  C   UNL     1      44.589   5.580  11.839  0.00  0.00    +0.000 A 
ATOM     16  C   UNL     1      45.030   6.862  11.539  0.00  0.00    +0.000 A 
ATOM     17  N   UNL     1      46.044   7.479  12.181  0.00  0.00    +0.000 NA
ATOM     18  C   UNL     1      46.658   6.781  13.168  0.00  0.00    +0.000 A 
ATOM     19  C   UNL     1      46.333   5.480  13.557  0.00  0.00    +0.000 A 
ATOM     20  C   UNL     1      45.274   4.890  12.852  0.00  0.00    +0.000 A 
BRANCH  19  21
ATOM     21  C   UNL     1      47.061   4.759  14.620  0.00  0.00    +0.000 A 
ATOM     22  C   UNL     1      47.556   5.406  15.762  0.00  0.00    +0.000 A 
ATOM     23  C   UNL     1      48.221   4.690  16.757  0.00  0.00    +0.000 A 
ATOM     24  C   UNL     1      48.388   3.329  16.585  0.00  0.00    +0.000 A 
ATOM     25  N   UNL     1      47.938   2.655  15.510  0.00  0.00    +0.000 NA
ATOM     26  C   UNL     1      47.289   3.380  14.565  0.00  0.00    +0.000 A 
ENDBRANCH  19  21
ENDBRANCH  14  15
ENDBRANCH   5  14
TORSDOF 4
ENDMDL
MODEL 3
REMARK VINA RESULT:    -8.020      2.904      6.935
REMARK INTER + INTRA:         -10.504
REMARK INTER:                  -9.986
REMARK INTRA:                  -0.517
REMARK UNBOUND:                -0.608
REMARK  Name = 
REMARK  4 active torsions:
REMARK  status: ('A' for Active; 'I' for Inactive)
REMARK    1  A    between atoms: C_2  and  C_4
REMARK    2  A    between atoms: N_8  and  C_9
REMARK    3  A    between atoms: C_9  and  C_10
REMARK    4  A    between atoms: C_14  and  C_15
REMARK                            x       y       z     vdW  Elec       q    Type
REMARK                         _______ _______ _______ _____ _____    ______ ____
ROOT
ATOM      1  C   UNL     1      47.586   7.083  13.932  0.00  0.00    +0.000 A 
ATOM      2  C   UNL     1      46.876   5.901  13.756  0.00  0.00    +0.000 A 
ATOM      3  C   UNL     1      45.883   5.843  12.779  0.00  0.00    +0.000 A 
ATOM      4  C   UNL     1      45.599   6.968  12.011  0.00  0.00    +0.000 A 
ATOM      5  N   UNL     1      44.708   6.950  10.957  0.00  0.00    +0.000 N 
ATOM      6  N   UNL     1      46.263   8.127  12.189  0.00  0.00    +0.000 NA
ATOM      7  C   UNL     1      47.234   8.166  13.143  0.00  0.00    +0.000 A 
ATOM      8  H   UNL     1      44.600   7.903  10.615  0.00  0.00    +0.000 HD
ENDROOT
BRANCH   1  10
ATOM      9  N   UNL     1      48.425   7.970  16.030  0.00  0.00    +0.000 N 
ATOM     10  C   UNL     1      48.676   7.211  14.918  0.00  0.00    +0.000 C 
ATOM     11  O   UNL     1      49.743   6.637  14.766  0.00  0.00    +0.000 OA
ATOM     12  H   UNL     1      49.142   7.972  16.745  0.00  0.00    +0.000 HD
ATOM     13  H   UNL     1      47.492   8.241  16.306  0.00  0.00    +0.000 HD
ENDBRANCH   1  10
BRANCH   5  14
ATOM     14  C   UNL     1      43.475   6.189  11.035  0.00  0.00    +0.000 C 
BRANCH  14  15
ATOM     15  C   UNL     1      43.704   4.756  10.630  0.00  0.00    +0.000 A 
ATOM     16  C   UNL     1      43.165   3.721  11.383  0.00  0.00    +0.000 A 
ATOM     17  N   UNL     1      43.396   2.415  11.140  0.00  0.00    +0.000 NA
ATOM     18  C   UNL     1      44.211   2.121  10.097  0.00  0.00    +0.000 A 
ATOM     19  C   UNL     1      44.836   3.059   9.273  0.00  0.00    +0.000 A 
ATOM     20  C   UNL     1      44.562   4.400   9.578  0.00  0.00    +0.000 A 
BRANCH  19  21
ATOM     21  C   UNL     1      45.740   2.677   8.171  0.00  0.00    +0.000 A 
ATOM     22  C   UNL     1      46.081   3.565   7.139  0.00  0.00    +0.000 A 
ATOM     23  C   UNL     1      46.955   3.177   6.124  0.00  0.00    +0.000 A 
ATOM     24  C   UNL     1      47.469   1.895   6.155  0.00  0.00    +0.000 A 
ATOM     25  N   UNL     1      47.175   0.999   7.116  0.00  0.00    +0.000 NA
ATOM     26  C   UNL     1      46.328   1.411   8.092  0.00  0.00    +0.000 A 
ENDBRANCH  19  21
ENDBRANCH  14  15
ENDBRANCH   5  14
TORSDOF 4
ENDMDL
MODEL 4
REMARK VINA RESULT:    -7.983      1.806      2.346
REMARK INTER + INTRA:         -10.458
REMARK INTER:                 -10.299
REMARK INTRA:                  -0.159
REMARK UNBOUND:                -0.608
REMARK  Name = 
REMARK  4 active torsions:
REMARK  status: ('A' for Active; 'I' for Inactive)
REMARK    1  A    between atoms: C_2  and  C_4
REMARK    2  A    between atoms: N_8  and  C_9
REMARK    3  A    between atoms: C_9  and  C_10
REMARK    4  A    between atoms: C_14  and  C_15
REMARK                            x       y       z     vdW  Elec       q    Type
REMARK                         _______ _______ _______ _____ _____    ______ ____
ROOT
ATOM      1  C   UNL     1      46.682   2.518   7.146  0.00  0.00    +0.000 A 
ATOM      2  C   UNL     1      46.159   3.733   7.572  0.00  0.00    +0.000 A 
ATOM      3  C   UNL     1      45.422   3.780   8.755  0.00  0.00    +0.000 A 
ATOM      4  C   UNL     1      45.199   2.614   9.479  0.00  0.00    +0.000 A 
ATOM      5  N   UNL     1      44.574   2.604  10.709  0.00  0.00    +0.000 N 
ATOM      6  N   UNL     1      45.680   1.424   9.064  0.00  0.00    +0.000 NA
ATOM      7  C   UNL     1      46.402   1.397   7.910  0.00  0.00    +0.000 A 
ATOM      8  H   UNL     1      44.445   1.634  10.994  0.00  0.00    +0.000 HD
ENDROOT
BRANCH   1  10
ATOM      9  N   UNL     1      47.313   3.333   4.949  0.00  0.00    +0.000 N 
ATOM     10  C   UNL     1      47.504   2.394   5.927  0.00  0.00    +0.000 C 
ATOM     11  O   UNL     1      48.341   1.514   5.811  0.00  0.00    +0.000 OA
ATOM     12  H   UNL     1      47.949   3.298   4.161  0.00  0.00    +0.000 HD
ATOM     13  H   UNL     1      46.826   4.202   5.115  0.00  0.00    +0.000 HD
ENDBRANCH   1  10
BRANCH   5  14
ATOM     14  C   UNL     1      43.442   3.472  10.978  0.00  0.00    +0.000 C 
BRANCH  14  15
ATOM     15  C   UNL     1      43.906   4.860  11.336  0.00  0.00    +0.000 A 
ATOM     16  C   UNL     1      43.076   5.952  11.120  0.00  0.00    +0.000 A 
ATOM     17  N   UNL     1      43.447   7.232  11.330  0.00  0.00    +0.000 NA
ATOM     18  C   UNL     1      44.712   7.438  11.771  0.00  0.00    +0.000 A 
ATOM     19  C   UNL     1      45.656   6.438  12.007  0.00  0.00    +0.000 A 
ATOM     20  C   UNL     1      45.214   5.129  11.767  0.00  0.00    +0.000 A 
BRANCH  19  21
ATOM     21  C   UNL     1      47.032   6.727  12.456  0.00  0.00    +0.000 A 
ATOM     22  C   UNL     1      47.916   7.516  11.704  0.00  0.00    +0.000 A 
ATOM     23  C   UNL     1      49.203   7.786  12.169  0.00  0.00    +0.000 A 
ATOM     24  C   UNL     1      49.588   7.252  13.384  0.00  0.00    +0.000 A 
ATOM     25  N   UNL     1      48.785   6.487  14.147  0.00  0.00    +0.000 NA
ATOM     26  C   UNL     1      47.538   6.249  13.669  0.00  0.00    +0.000 A 
ENDBRANCH  19  21
ENDBRANCH  14  15
ENDBRANCH   5  14
TORSDOF 4
ENDMDL
MODEL 5
REMARK VINA RESULT:    -7.964      3.108      7.144
REMARK INTER + INTRA:         -10.434
REMARK INTER:                  -9.921
REMARK INTRA:                  -0.513
REMARK UNBOUND:                -0.608
REMARK  Name = 
REMARK  4 active torsions:
REMARK  status: ('A' for Active; 'I' for Inactive)
REMARK    1  A    between atoms: C_2  and  C_4
REMARK    2  A    between atoms: N_8  and  C_9
REMARK    3  A    between atoms: C_9  and  C_10
REMARK    4  A    between atoms: C_14  and  C_15
REMARK                            x       y       z     vdW  Elec       q    Type
REMARK                         _______ _______ _______ _____ _____    ______ ____
ROOT
ATOM      1  C   UNL     1      47.944   5.555  15.231  0.00  0.00    +0.000 A 
ATOM      2  C   UNL     1      46.932   4.727  14.761  0.00  0.00    +0.000 A 
ATOM      3  C   UNL     1      46.268   5.065  13.582  0.00  0.00    +0.000 A 
ATOM      4  C   UNL     1      46.606   6.233  12.907  0.00  0.00    +0.000 A 
ATOM      5  N   UNL     1      46.067   6.574  11.683  0.00  0.00    +0.000 N 
ATOM      6  N   UNL     1      47.569   7.058  13.366  0.00  0.00    +0.000 NA
ATOM      7  C   UNL     1      48.212   6.711  14.514  0.00  0.00    +0.000 A 
ATOM      8  H   UNL     1      46.395   7.507  11.439  0.00  0.00    +0.000 HD
ENDROOT
BRANCH   1  10
ATOM      9  N   UNL     1      48.945   6.275  17.322  0.00  0.00    +0.000 N 
ATOM     10  C   UNL     1      48.719   5.246  16.448  0.00  0.00    +0.000 C 
ATOM     11  O   UNL     1      49.111   4.113  16.682  0.00  0.00    +0.000 OA
ATOM     12  H   UNL     1      49.391   6.032  18.198  0.00  0.00    +0.000 HD
ATOM     13  H   UNL     1      48.429   7.142  17.287  0.00  0.00    +0.000 HD
ENDBRANCH   1  10
BRANCH   5  14
ATOM     14  C   UNL     1      44.668   6.323  11.388  0.00  0.00    +0.000 C 
BRANCH  14  15
ATOM     15  C   UNL     1      44.487   4.963  10.768  0.00  0.00    +0.000 A 
ATOM     16  C   UNL     1      43.626   4.040  11.346  0.00  0.00    +0.000 A 
ATOM     17  N   UNL     1      43.473   2.774  10.906  0.00  0.00    +0.000 NA
ATOM     18  C   UNL     1      44.224   2.402   9.839  0.00  0.00    +0.000 A 
ATOM     19  C   UNL     1      45.143   3.218   9.178  0.00  0.00    +0.000 A 
ATOM     20  C   UNL     1      45.260   4.521   9.683  0.00  0.00    +0.000 A 
BRANCH  19  21
ATOM     21  C   UNL     1      45.956   2.746   8.040  0.00  0.00    +0.000 A 
ATOM     22  C   UNL     1      46.290   3.578   6.961  0.00  0.00    +0.000 A 
ATOM     23  C   UNL     1      47.078   3.104   5.911  0.00  0.00    +0.000 A 
ATOM     24  C   UNL     1      47.513   1.794   5.957  0.00  0.00    +0.000 A 
ATOM     25  N   UNL     1      47.221   0.949   6.964  0.00  0.00    +0.000 NA
ATOM     26  C   UNL     1      46.460   1.443   7.972  0.00  0.00    +0.000 A 
ENDBRANCH  19  21
ENDBRANCH  14  15
ENDBRANCH   5  14
TORSDOF 4
ENDMDL
MODEL 6
REMARK VINA RESULT:    -7.699      3.052      7.049
REMARK INTER + INTRA:         -10.107
REMARK INTER:                  -9.487
REMARK INTRA:                  -0.620
REMARK UNBOUND:                -0.608
REMARK  Name = 
REMARK  4 active torsions:
REMARK  status: ('A' for Active; 'I' for Inactive)
REMARK    1  A    between atoms: C_2  and  C_4
REMARK    2  A    between atoms: N_8  and  C_9
REMARK    3  A    between atoms: C_9  and  C_10
REMARK    4  A    between atoms: C_14  and  C_15
REMARK                            x       y       z     vdW  Elec       q    Type
REMARK                         _______ _______ _______ _____ _____    ______ ____
ROOT
ATOM      1  C   UNL     1      49.243   7.960  12.810  0.00  0.00    +0.000 A 
ATOM      2  C   UNL     1      48.271   8.607  12.056  0.00  0.00    +0.000 A 
ATOM      3  C   UNL     1      46.995   8.054  11.970  0.00  0.00    +0.000 A 
ATOM      4  C   UNL     1      46.715   6.853  12.615  0.00  0.00    +0.000 A 
ATOM      5  N   UNL     1      45.449   6.306  12.662  0.00  0.00    +0.000 N 
ATOM      6  N   UNL     1      47.655   6.202  13.329  0.00  0.00    +0.000 NA
ATOM      7  C   UNL     1      48.895   6.759  13.409  0.00  0.00    +0.000 A 
ATOM      8  H   UNL     1      45.514   5.390  13.104  0.00  0.00    +0.000 HD
ENDROOT
BRANCH   1  10
ATOM      9  N   UNL     1      51.615   7.874  12.304  0.00  0.00    +0.000 N 
ATOM     10  C   UNL     1      50.604   8.502  12.981  0.00  0.00    +0.000 C 
ATOM     11  O   UNL     1      50.814   9.489  13.669  0.00  0.00    +0.000 OA
ATOM     12  H   UNL     1      52.527   8.312  12.350  0.00  0.00    +0.000 HD
ATOM     13  H   UNL     1      51.445   7.232  11.545  0.00  0.00    +0.000 HD
ENDBRANCH   1  10
BRANCH   5  14
ATOM     14  C   UNL     1      44.568   6.363  11.510  0.00  0.00    +0.000 C 
BRANCH  14  15
ATOM     15  C   UNL     1      44.393   4.997  10.901  0.00  0.00    +0.000 A 
ATOM     16  C   UNL     1      43.548   4.069  11.494  0.00  0.00    +0.000 A 
ATOM     17  N   UNL     1      43.403   2.799  11.063  0.00  0.00    +0.000 NA
ATOM     18  C   UNL     1      44.144   2.429   9.990  0.00  0.00    +0.000 A 
ATOM     19  C   UNL     1      45.048   3.249   9.312  0.00  0.00    +0.000 A 
ATOM     20  C   UNL     1      45.158   4.557   9.809  0.00  0.00    +0.000 A 
BRANCH  19  21
ATOM     21  C   UNL     1      45.852   2.779   8.168  0.00  0.00    +0.000 A 
ATOM     22  C   UNL     1      46.159   3.605   7.076  0.00  0.00    +0.000 A 
ATOM     23  C   UNL     1      46.939   3.133   6.020  0.00  0.00    +0.000 A 
ATOM     24  C   UNL     1      47.394   1.830   6.073  0.00  0.00    +0.000 A 
ATOM     25  N   UNL     1      47.129   0.990   7.091  0.00  0.00    +0.000 NA
ATOM     26  C   UNL     1      46.374   1.483   8.105  0.00  0.00    +0.000 A 
ENDBRANCH  19  21
ENDBRANCH  14  15
ENDBRANCH   5  14
TORSDOF 4
ENDMDL
MODEL 7
REMARK VINA RESULT:    -7.539      1.900      2.336
REMARK INTER + INTRA:          -9.910
REMARK INTER:                  -9.309
REMARK INTRA:                  -0.601
REMARK UNBOUND:                -0.608
REMARK  Name = 
REMARK  4 active torsions:
REMARK  status: ('A' for Active; 'I' for Inactive)
REMARK    1  A    between atoms: C_2  and  C_4
REMARK    2  A    between atoms: N_8  and  C_9
REMARK    3  A    between atoms: C_9  and  C_10
REMARK    4  A    between atoms: C_14  and  C_15
REMARK                            x       y       z     vdW  Elec       q    Type
REMARK                         _______ _______ _______ _____ _____    ______ ____
ROOT
ATOM      1  C   UNL     1      46.264   2.058   7.985  0.00  0.00    +0.000 A 
ATOM      2  C   UNL     1      45.503   1.790   9.117  0.00  0.00    +0.000 A 
ATOM      3  C   UNL     1      44.754   2.815   9.692  0.00  0.00    +0.000 A 
ATOM      4  C   UNL     1      44.794   4.094   9.146  0.00  0.00    +0.000 A 
ATOM      5  N   UNL     1      43.997   5.127   9.597  0.00  0.00    +0.000 N 
ATOM      6  N   UNL     1      45.548   4.374   8.063  0.00  0.00    +0.000 NA
ATOM      7  C   UNL     1      46.269   3.360   7.510  0.00  0.00    +0.000 A 
ATOM      8  H   UNL     1      44.272   5.978   9.109  0.00  0.00    +0.000 HD
ENDROOT
BRANCH   1  10
ATOM      9  N   UNL     1      46.782  -0.284   7.621  0.00  0.00    +0.000 N 
ATOM     10  C   UNL     1      47.052   1.018   7.297  0.00  0.00    +0.000 C 
ATOM     11  O   UNL     1      47.884   1.306   6.451  0.00  0.00    +0.000 OA
ATOM     12  H   UNL     1      47.257  -0.992   7.073  0.00  0.00    +0.000 HD
ATOM     13  H   UNL     1      45.945  -0.562   8.113  0.00  0.00    +0.000 HD
ENDBRANCH   1  10
BRANCH   5  14
ATOM     14  C   UNL     1      43.727   5.298  11.012  0.00  0.00    +0.000 C 
BRANCH  14  15
ATOM     15  C   UNL     1      44.338   6.576  11.524  0.00  0.00    +0.000 A 
ATOM     16  C   UNL     1      43.869   7.804  11.076  0.00  0.00    +0.000 A 
ATOM     17  N   UNL     1      44.417   8.989  11.415  0.00  0.00    +0.000 NA
ATOM     18  C   UNL     1      45.494   8.951  12.239  0.00  0.00    +0.000 A 
ATOM     19  C   UNL     1      46.081   7.790  12.744  0.00  0.00    +0.000 A 
ATOM     20  C   UNL     1      45.470   6.590  12.353  0.00  0.00    +0.000 A 
BRANCH  19  21
ATOM     21  C   UNL     1      47.275   7.812  13.612  0.00  0.00    +0.000 A 
ATOM     22  C   UNL     1      47.912   6.638  14.041  0.00  0.00    +0.000 A 
ATOM     23  C   UNL     1      49.051   6.696  14.844  0.00  0.00    +0.000 A 
ATOM     24  C   UNL     1      49.530   7.938  15.214  0.00  0.00    +0.000 A 
ATOM     25  N   UNL     1      48.959   9.097  14.837  0.00  0.00    +0.000 NA
ATOM     26  C   UNL     1      47.858   9.005  14.050  0.00  0.00    +0.000 A 
ENDBRANCH  19  21
ENDBRANCH  14  15
ENDBRANCH   5  14
TORSDOF 4
ENDMDL
MODEL 8
REMARK VINA RESULT:    -6.800      3.986      7.792
REMARK INTER + INTRA:          -8.998
REMARK INTER:                  -8.581
REMARK INTRA:                  -0.417
REMARK UNBOUND:                -0.608
REMARK  Name = 
REMARK  4 active torsions:
REMARK  status: ('A' for Active; 'I' for Inactive)
REMARK    1  A    between atoms: C_2  and  C_4
REMARK    2  A    between atoms: N_8  and  C_9
REMARK    3  A    between atoms: C_9  and  C_10
REMARK    4  A    between atoms: C_14  and  C_15
REMARK                            x       y       z     vdW  Elec       q    Type
REMARK                         _______ _______ _______ _____ _____    ______ ____
ROOT
ATOM      1  C   UNL     1      49.529   3.902  17.345  0.00  0.00    +0.000 A 
ATOM      2  C   UNL     1      48.946   5.139  17.096  0.00  0.00    +0.000 A 
ATOM      3  C   UNL     1      47.880   5.222  16.200  0.00  0.00    +0.000 A 
ATOM      4  C   UNL     1      47.430   4.076  15.552  0.00  0.00    +0.000 A 
ATOM      5  N   UNL     1      46.315   4.066  14.738  0.00  0.00    +0.000 N 
ATOM      6  N   UNL     1      48.002   2.875  15.765  0.00  0.00    +0.000 NA
ATOM      7  C   UNL     1      49.038   2.810  16.647  0.00  0.00    +0.000 A 
ATOM      8  H   UNL     1      46.242   3.146  14.308  0.00  0.00    +0.000 HD
ENDROOT
BRANCH   1  10
ATOM      9  N   UNL     1      50.448   4.230  19.567  0.00  0.00    +0.000 N 
ATOM     10  C   UNL     1      50.634   3.727  18.307  0.00  0.00    +0.000 C 
ATOM     11  O   UNL     1      51.654   3.130  18.003  0.00  0.00    +0.000 OA
ATOM     12  H   UNL     1      51.169   4.019  20.246  0.00  0.00    +0.000 HD
ATOM     13  H   UNL     1      49.540   4.495  19.920  0.00  0.00    +0.000 HD
ENDBRANCH   1  10
BRANCH   5  14
ATOM     14  C   UNL     1      46.030   5.177  13.848  0.00  0.00    +0.000 C 
BRANCH  14  15
ATOM     15  C   UNL     1      45.183   4.728  12.686  0.00  0.00    +0.000 A 
ATOM     16  C   UNL     1      43.815   4.551  12.844  0.00  0.00    +0.000 A 
ATOM     17  N   UNL     1      43.003   4.069  11.881  0.00  0.00    +0.000 NA
ATOM     18  C   UNL     1      43.582   3.738  10.701  0.00  0.00    +0.000 A 
ATOM     19  C   UNL     1      44.944   3.843  10.414  0.00  0.00    +0.000 A 
ATOM     20  C   UNL     1      45.738   4.346  11.454  0.00  0.00    +0.000 A 
BRANCH  19  21
ATOM     21  C   UNL     1      45.521   3.436   9.118  0.00  0.00    +0.000 A 
ATOM     22  C   UNL     1      45.747   2.091   8.787  0.00  0.00    +0.000 A 
ATOM     23  C   UNL     1      46.275   1.740   7.545  0.00  0.00    +0.000 A 
ATOM     24  C   UNL     1      46.578   2.751   6.652  0.00  0.00    +0.000 A 
ATOM     25  N   UNL     1      46.386   4.057   6.915  0.00  0.00    +0.000 NA
ATOM     26  C   UNL     1      45.864   4.363   8.129  0.00  0.00    +0.000 A 
ENDBRANCH  19  21
ENDBRANCH  14  15
ENDBRANCH   5  14
TORSDOF 4
ENDMDL
MODEL 9
REMARK VINA RESULT:    -6.474      4.778      8.603
REMARK INTER + INTRA:          -8.596
REMARK INTER:                  -8.170
REMARK INTRA:                  -0.426
REMARK UNBOUND:                -0.608
REMARK  Name = 
REMARK  4 active torsions:
REMARK  status: ('A' for Active; 'I' for Inactive)
REMARK    1  A    between atoms: C_2  and  C_4
REMARK    2  A    between atoms: N_8  and  C_9
REMARK    3  A    between atoms: C_9  and  C_10
REMARK    4  A    between atoms: C_14  and  C_15
REMARK                            x       y       z     vdW  Elec       q    Type
REMARK                         _______ _______ _______ _____ _____    ______ ____
ROOT
ATOM      1  C   UNL     1      49.648   5.419  18.743  0.00  0.00    +0.000 A 
ATOM      2  C   UNL     1      49.418   6.706  18.272  0.00  0.00    +0.000 A 
ATOM      3  C   UNL     1      48.829   6.878  17.020  0.00  0.00    +0.000 A 
ATOM      4  C   UNL     1      48.501   5.766  16.250  0.00  0.00    +0.000 A 
ATOM      5  N   UNL     1      47.820   5.859  15.054  0.00  0.00    +0.000 N 
ATOM      6  N   UNL     1      48.741   4.513  16.685  0.00  0.00    +0.000 NA
ATOM      7  C   UNL     1      49.311   4.363  17.912  0.00  0.00    +0.000 A 
ATOM      8  H   UNL     1      47.781   4.930  14.636  0.00  0.00    +0.000 HD
ENDROOT
BRANCH   1  10
ATOM      9  N   UNL     1      49.496   4.387  20.934  0.00  0.00    +0.000 N 
ATOM     10  C   UNL     1      50.231   5.156  20.073  0.00  0.00    +0.000 C 
ATOM     11  O   UNL     1      51.335   5.577  20.378  0.00  0.00    +0.000 OA
ATOM     12  H   UNL     1      49.946   4.130  21.805  0.00  0.00    +0.000 HD
ATOM     13  H   UNL     1      48.715   3.823  20.631  0.00  0.00    +0.000 HD
ENDBRANCH   1  10
BRANCH   5  14
ATOM     14  C   UNL     1      48.095   6.934  14.119  0.00  0.00    +0.000 C 
BRANCH  14  15
ATOM     15  C   UNL     1      47.002   7.042  13.089  0.00  0.00    +0.000 A 
ATOM     16  C   UNL     1      46.203   8.177  13.032  0.00  0.00    +0.000 A 
ATOM     17  N   UNL     1      45.150   8.315  12.201  0.00  0.00    +0.000 NA
ATOM     18  C   UNL     1      44.870   7.266  11.388  0.00  0.00    +0.000 A 
ATOM     19  C   UNL     1      45.573   6.061  11.357  0.00  0.00    +0.000 A 
ATOM     20  C   UNL     1      46.654   5.975  12.246  0.00  0.00    +0.000 A 
BRANCH  19  21
ATOM     21  C   UNL     1      45.199   4.941  10.471  0.00  0.00    +0.000 A 
ATOM     22  C   UNL     1      45.612   4.875   9.132  0.00  0.00    +0.000 A 
ATOM     23  C   UNL     1      45.258   3.791   8.328  0.00  0.00    +0.000 A 
ATOM     24  C   UNL     1      44.483   2.790   8.881  0.00  0.00    +0.000 A 
ATOM     25  N   UNL     1      44.055   2.801  10.157  0.00  0.00    +0.000 NA
ATOM     26  C   UNL     1      44.423   3.865  10.914  0.00  0.00    +0.000 A 
ENDBRANCH  19  21
ENDBRANCH  14  15
ENDBRANCH   5  14
TORSDOF 4
ENDMDL
