MODEL 1
REMARK VINA RESULT:    -6.437      0.000      0.000
REMARK INTER + INTRA:          -8.733
REMARK INTER:                  -7.943
REMARK INTRA:                  -0.791
REMARK UNBOUND:                -0.791
REMARK  Name = 
REMARK  6 active torsions:
REMARK  status: ('A' for Active; 'I' for Inactive)
REMARK    1  A    between atoms: C_1  and  O_2
REMARK    2  A    between atoms: O_2  and  C_3
REMARK    3  A    between atoms: C_6  and  C_7
REMARK    4  A    between atoms: N_13  and  C_14
REMARK    5  A    between atoms: C_14  and  C_15
REMARK    6  A    between atoms: C_20  and  C_21
REMARK                            x       y       z     vdW  Elec       q    Type
REMARK                         _______ _______ _______ _____ _____    ______ ____
ROOT
ATOM      1  C   UNL     1      46.909   4.920  13.863  0.00  0.00    +0.000 A 
ATOM      2  N   UNL     1      46.727   3.583  13.756  0.00  0.00    +0.000 NA
ATOM      3  C   UNL     1      45.857   3.100  12.847  0.00  0.00    +0.000 A 
ATOM      4  C   UNL     1      45.096   3.880  11.989  0.00  0.00    +0.000 A 
ATOM      5  C   UNL     1      45.272   5.277  12.077  0.00  0.00    +0.000 A 
ATOM      6  C   UNL     1      44.754   6.401  11.369  0.00  0.00    +0.000 A 
ATOM      7  C   UNL     1      45.315   7.537  11.893  0.00  0.00    +0.000 A 
ATOM      8  N   UNL     1      46.193   7.166  12.890  0.00  0.00    +0.000 N 
ATOM      9  C   UNL     1      46.186   5.783  13.026  0.00  0.00    +0.000 A 
ENDROOT
BRANCH   4  10
ATOM     10  C   UNL     1      44.213   3.184  11.038  0.00  0.00    +0.000 C 
ATOM     11  N   UNL     1      44.784   2.457  10.033  0.00  0.00    +0.000 N 
ATOM     12  O   UNL     1      42.995   3.294  11.108  0.00  0.00    +0.000 OA
ATOM     13  H   UNL     1      45.759   2.551   9.792  0.00  0.00    +0.000 HD
ATOM     14  H   UNL     1      44.155   2.089   9.329  0.00  0.00    +0.000 HD
ENDBRANCH   4  10
BRANCH   1  16
ATOM     15  C   UNL     1      47.680   4.729  16.050  0.00  0.00    +0.000 C 
ATOM     16  O   UNL     1      47.809   5.396  14.795  0.00  0.00    +0.000 OA
ENDBRANCH   1  16
BRANCH   8  17
ATOM     17  C   UNL     1      47.110   8.120  13.523  0.00  0.00    +0.000 C 
BRANCH  17  18
ATOM     18  C   UNL     1      48.330   8.488  12.700  0.00  0.00    +0.000 A 
ATOM     19  N   UNL     1      49.361   7.604  12.647  0.00  0.00    +0.000 NA
ATOM     20  C   UNL     1      50.448   7.930  11.916  0.00  0.00    +0.000 A 
ATOM     21  C   UNL     1      50.578   9.115  11.219  0.00  0.00    +0.000 A 
ATOM     22  C   UNL     1      49.529  10.023  11.275  0.00  0.00    +0.000 A 
ATOM     23  C   UNL     1      48.382   9.722  12.019  0.00  0.00    +0.000 A 
ATOM     24  C   UNL     1      47.266  10.725  12.076  0.00  0.00    +0.000 C 
ENDBRANCH  17  18
ENDBRANCH   8  17
TORSDOF 4
ENDMDL
MODEL 2
REMARK VINA RESULT:    -6.396      2.237      6.323
REMARK INTER + INTRA:          -8.682
REMARK INTER:                  -8.042
REMARK INTRA:                  -0.640
REMARK UNBOUND:                -0.791
REMARK  Name = 
REMARK  6 active torsions:
REMARK  status: ('A' for Active; 'I' for Inactive)
REMARK    1  A    between atoms: C_1  and  O_2
REMARK    2  A    between atoms: O_2  and  C_3
REMARK    3  A    between atoms: C_6  and  C_7
REMARK    4  A    between atoms: N_13  and  C_14
REMARK    5  A    between atoms: C_14  and  C_15
REMARK    6  A    between atoms: C_20  and  C_21
REMARK                            x       y       z     vdW  Elec       q    Type
REMARK                         _______ _______ _______ _____ _____    ______ ____
ROOT
ATOM      1  C   UNL     1      46.101   7.935  12.311  0.00  0.00    +0.000 A 
ATOM      2  N   UNL     1      47.041   8.861  12.612  0.00  0.00    +0.000 NA
ATOM      3  C   UNL     1      48.086   8.521  13.392  0.00  0.00    +0.000 A 
ATOM      4  C   UNL     1      48.286   7.264  13.942  0.00  0.00    +0.000 A 
ATOM      5  C   UNL     1      47.323   6.278  13.638  0.00  0.00    +0.000 A 
ATOM      6  C   UNL     1      47.178   4.891  13.935  0.00  0.00    +0.000 A 
ATOM      7  C   UNL     1      46.028   4.441  13.339  0.00  0.00    +0.000 A 
ATOM      8  N   UNL     1      45.457   5.491  12.651  0.00  0.00    +0.000 N 
ATOM      9  C   UNL     1      46.230   6.633  12.818  0.00  0.00    +0.000 A 
ENDROOT
BRANCH   4  10
ATOM     10  C   UNL     1      49.500   7.058  14.751  0.00  0.00    +0.000 C 
ATOM     11  N   UNL     1      50.685   7.546  14.280  0.00  0.00    +0.000 N 
ATOM     12  O   UNL     1      49.463   6.419  15.795  0.00  0.00    +0.000 OA
ATOM     13  H   UNL     1      50.798   7.844  13.323  0.00  0.00    +0.000 HD
ATOM     14  H   UNL     1      51.516   7.287  14.798  0.00  0.00    +0.000 HD
ENDBRANCH   4  10
BRANCH   1  16
ATOM     15  C   UNL     1      44.687   9.671  11.681  0.00  0.00    +0.000 C 
ATOM     16  O   UNL     1      45.042   8.299  11.506  0.00  0.00    +0.000 OA
ENDBRANCH   1  16
BRANCH   8  17
ATOM     17  C   UNL     1      44.324   5.307  11.738  0.00  0.00    +0.000 C 
BRANCH  17  18
ATOM     18  C   UNL     1      44.602   4.435  10.528  0.00  0.00    +0.000 A 
ATOM     19  N   UNL     1      45.310   4.971   9.499  0.00  0.00    +0.000 NA
ATOM     20  C   UNL     1      45.557   4.198   8.420  0.00  0.00    +0.000 A 
ATOM     21  C   UNL     1      45.130   2.890   8.298  0.00  0.00    +0.000 A 
ATOM     22  C   UNL     1      44.402   2.342   9.345  0.00  0.00    +0.000 A 
ATOM     23  C   UNL     1      44.126   3.109  10.484  0.00  0.00    +0.000 A 
ATOM     24  C   UNL     1      43.326   2.498  11.598  0.00  0.00    +0.000 C 
ENDBRANCH  17  18
ENDBRANCH   8  17
TORSDOF 4
ENDMDL
MODEL 3
REMARK VINA RESULT:    -6.256      2.897      4.824
REMARK INTER + INTRA:          -8.510
REMARK INTER:                  -8.074
REMARK INTRA:                  -0.436
REMARK UNBOUND:                -0.791
REMARK  Name = 
REMARK  6 active torsions:
REMARK  status: ('A' for Active; 'I' for Inactive)
REMARK    1  A    between atoms: C_1  and  O_2
REMARK    2  A    between atoms: O_2  and  C_3
REMARK    3  A    between atoms: C_6  and  C_7
REMARK    4  A    between atoms: N_13  and  C_14
REMARK    5  A    between atoms: C_14  and  C_15
REMARK    6  A    between atoms: C_20  and  C_21
REMARK                            x       y       z     vdW  Elec       q    Type
REMARK                         _______ _______ _______ _____ _____    ______ ____
ROOT
ATOM      1  C   UNL     1      44.212   2.778   9.944  0.00  0.00    +0.000 A 
ATOM      2  N   UNL     1      44.411   1.579   9.349  0.00  0.00    +0.000 NA
ATOM      3  C   UNL     1      45.349   1.459   8.388  0.00  0.00    +0.000 A 
ATOM      4  C   UNL     1      46.148   2.496   7.931  0.00  0.00    +0.000 A 
ATOM      5  C   UNL     1      45.964   3.756   8.539  0.00  0.00    +0.000 A 
ATOM      6  C   UNL     1      46.591   5.031   8.417  0.00  0.00    +0.000 A 
ATOM      7  C   UNL     1      45.990   5.892   9.299  0.00  0.00    +0.000 A 
ATOM      8  N   UNL     1      45.024   5.195   9.995  0.00  0.00    +0.000 N 
ATOM      9  C   UNL     1      44.984   3.880   9.547  0.00  0.00    +0.000 A 
ENDROOT
BRANCH   4  10
ATOM     10  C   UNL     1      47.144   2.182   6.891  0.00  0.00    +0.000 C 
ATOM     11  N   UNL     1      47.122   2.903   5.732  0.00  0.00    +0.000 N 
ATOM     12  O   UNL     1      47.940   1.262   7.034  0.00  0.00    +0.000 OA
ATOM     13  H   UNL     1      46.336   3.480   5.476  0.00  0.00    +0.000 HD
ATOM     14  H   UNL     1      47.739   2.587   4.993  0.00  0.00    +0.000 HD
ENDBRANCH   4  10
BRANCH   1  16
ATOM     15  C   UNL     1      43.762   2.505  12.210  0.00  0.00    +0.000 C 
ATOM     16  O   UNL     1      43.252   2.880  10.930  0.00  0.00    +0.000 OA
ENDBRANCH   1  16
BRANCH   8  17
ATOM     17  C   UNL     1      44.329   5.763  11.155  0.00  0.00    +0.000 C 
BRANCH  17  18
ATOM     18  C   UNL     1      44.998   6.971  11.784  0.00  0.00    +0.000 A 
ATOM     19  N   UNL     1      44.570   8.208  11.417  0.00  0.00    +0.000 NA
ATOM     20  C   UNL     1      45.164   9.283  11.975  0.00  0.00    +0.000 A 
ATOM     21  C   UNL     1      46.189   9.203  12.897  0.00  0.00    +0.000 A 
ATOM     22  C   UNL     1      46.633   7.942  13.270  0.00  0.00    +0.000 A 
ATOM     23  C   UNL     1      46.040   6.799  12.718  0.00  0.00    +0.000 A 
ATOM     24  C   UNL     1      46.546   5.446  13.127  0.00  0.00    +0.000 C 
ENDBRANCH  17  18
ENDBRANCH   8  17
TORSDOF 4
ENDMDL
MODEL 4
REMARK VINA RESULT:    -6.163      2.150      5.938
REMARK INTER + INTRA:          -8.395
REMARK INTER:                  -7.774
REMARK INTRA:                  -0.620
REMARK UNBOUND:                -0.791
REMARK  Name = 
REMARK  6 active torsions:
REMARK  status: ('A' for Active; 'I' for Inactive)
REMARK    1  A    between atoms: C_1  and  O_2
REMARK    2  A    between atoms: O_2  and  C_3
REMARK    3  A    between atoms: C_6  and  C_7
REMARK    4  A    between atoms: N_13  and  C_14
REMARK    5  A    between atoms: C_14  and  C_15
REMARK    6  A    between atoms: C_20  and  C_21
REMARK                            x       y       z     vdW  Elec       q    Type
REMARK                         _______ _______ _______ _____ _____    ______ ____
ROOT
ATOM      1  C   UNL     1      47.129   5.620  13.405  0.00  0.00    +0.000 A 
ATOM      2  N   UNL     1      48.253   5.894  14.107  0.00  0.00    +0.000 NA
ATOM      3  C   UNL     1      48.680   7.169  14.209  0.00  0.00    +0.000 A 
ATOM      4  C   UNL     1      48.055   8.261  13.627  0.00  0.00    +0.000 A 
ATOM      5  C   UNL     1      46.878   8.002  12.893  0.00  0.00    +0.000 A 
ATOM      6  C   UNL     1      45.924   8.810  12.207  0.00  0.00    +0.000 A 
ATOM      7  C   UNL     1      44.956   7.987  11.689  0.00  0.00    +0.000 A 
ATOM      8  N   UNL     1      45.252   6.689  12.050  0.00  0.00    +0.000 N 
ATOM      9  C   UNL     1      46.428   6.668  12.789  0.00  0.00    +0.000 A 
ENDROOT
BRANCH   4  10
ATOM     10  C   UNL     1      48.644   9.590  13.863  0.00  0.00    +0.000 C 
ATOM     11  N   UNL     1      48.272  10.277  14.982  0.00  0.00    +0.000 N 
ATOM     12  O   UNL     1      49.409  10.096  13.050  0.00  0.00    +0.000 OA
ATOM     13  H   UNL     1      47.468  10.011  15.530  0.00  0.00    +0.000 HD
ATOM     14  H   UNL     1      48.603  11.231  15.056  0.00  0.00    +0.000 HD
ENDBRANCH   4  10
BRANCH   1  16
ATOM     15  C   UNL     1      47.156   3.527  14.422  0.00  0.00    +0.000 C 
ATOM     16  O   UNL     1      46.703   4.310  13.317  0.00  0.00    +0.000 OA
ENDBRANCH   1  16
BRANCH   8  17
ATOM     17  C   UNL     1      44.316   5.582  11.832  0.00  0.00    +0.000 C 
BRANCH  17  18
ATOM     18  C   UNL     1      44.642   4.680  10.657  0.00  0.00    +0.000 A 
ATOM     19  N   UNL     1      45.380   5.194   9.637  0.00  0.00    +0.000 NA
ATOM     20  C   UNL     1      45.671   4.393   8.589  0.00  0.00    +0.000 A 
ATOM     21  C   UNL     1      45.260   3.078   8.490  0.00  0.00    +0.000 A 
ATOM     22  C   UNL     1      44.502   2.552   9.527  0.00  0.00    +0.000 A 
ATOM     23  C   UNL     1      44.181   3.348  10.634  0.00  0.00    +0.000 A 
ATOM     24  C   UNL     1      43.349   2.760  11.738  0.00  0.00    +0.000 C 
ENDBRANCH  17  18
ENDBRANCH   8  17
TORSDOF 4
ENDMDL
MODEL 5
REMARK VINA RESULT:    -6.003      2.746      4.426
REMARK INTER + INTRA:          -8.197
REMARK INTER:                  -7.612
REMARK INTRA:                  -0.585
REMARK UNBOUND:                -0.791
REMARK  Name = 
REMARK  6 active torsions:
REMARK  status: ('A' for Active; 'I' for Inactive)
REMARK    1  A    between atoms: C_1  and  O_2
REMARK    2  A    between atoms: O_2  and  C_3
REMARK    3  A    between atoms: C_6  and  C_7
REMARK    4  A    between atoms: N_13  and  C_14
REMARK    5  A    between atoms: C_14  and  C_15
REMARK    6  A    between atoms: C_20  and  C_21
REMARK                            x       y       z     vdW  Elec       q    Type
REMARK                         _______ _______ _______ _____ _____    ______ ____
ROOT
ATOM      1  C   UNL     1      44.084   2.990  10.117  0.00  0.00    +0.000 A 
ATOM      2  N   UNL     1      44.116   1.754   9.566  0.00  0.00    +0.000 NA
ATOM      3  C   UNL     1      44.978   1.494   8.563  0.00  0.00    +0.000 A 
ATOM      4  C   UNL     1      45.858   2.416   8.017  0.00  0.00    +0.000 A 
ATOM      5  C   UNL     1      45.848   3.711   8.577  0.00  0.00    +0.000 A 
ATOM      6  C   UNL     1      46.603   4.902   8.366  0.00  0.00    +0.000 A 
ATOM      7  C   UNL     1      46.152   5.858   9.240  0.00  0.00    +0.000 A 
ATOM      8  N   UNL     1      45.158   5.301  10.017  0.00  0.00    +0.000 N 
ATOM      9  C   UNL     1      44.949   3.983   9.631  0.00  0.00    +0.000 A 
ENDROOT
BRANCH   4  10
ATOM     10  C   UNL     1      46.750   1.953   6.940  0.00  0.00    +0.000 C 
ATOM     11  N   UNL     1      46.724   2.614   5.746  0.00  0.00    +0.000 N 
ATOM     12  O   UNL     1      47.462   0.967   7.088  0.00  0.00    +0.000 OA
ATOM     13  H   UNL     1      45.983   3.253   5.504  0.00  0.00    +0.000 HD
ATOM     14  H   UNL     1      47.260   2.202   4.991  0.00  0.00    +0.000 HD
ENDBRANCH   4  10
BRANCH   1  16
ATOM     15  C   UNL     1      43.693   2.752  12.398  0.00  0.00    +0.000 C 
ATOM     16  O   UNL     1      43.201   3.236  11.148  0.00  0.00    +0.000 OA
ENDBRANCH   1  16
BRANCH   8  17
ATOM     17  C   UNL     1      44.598   5.987  11.186  0.00  0.00    +0.000 C 
BRANCH  17  18
ATOM     18  C   UNL     1      45.618   6.606  12.123  0.00  0.00    +0.000 A 
ATOM     19  N   UNL     1      46.455   5.777  12.801  0.00  0.00    +0.000 NA
ATOM     20  C   UNL     1      47.362   6.326  13.637  0.00  0.00    +0.000 A 
ATOM     21  C   UNL     1      47.490   7.684  13.848  0.00  0.00    +0.000 A 
ATOM     22  C   UNL     1      46.633   8.534  13.161  0.00  0.00    +0.000 A 
ATOM     23  C   UNL     1      45.679   8.006  12.282  0.00  0.00    +0.000 A 
ATOM     24  C   UNL     1      44.754   8.944  11.560  0.00  0.00    +0.000 C 
ENDBRANCH  17  18
ENDBRANCH   8  17
TORSDOF 4
ENDMDL
MODEL 6
REMARK VINA RESULT:    -5.468      1.870      3.172
REMARK INTER + INTRA:          -7.537
REMARK INTER:                  -6.878
REMARK INTRA:                  -0.659
REMARK UNBOUND:                -0.791
REMARK  Name = 
REMARK  6 active torsions:
REMARK  status: ('A' for Active; 'I' for Inactive)
REMARK    1  A    between atoms: C_1  and  O_2
REMARK    2  A    between atoms: O_2  and  C_3
REMARK    3  A    between atoms: C_6  and  C_7
REMARK    4  A    between atoms: N_13  and  C_14
REMARK    5  A    between atoms: C_14  and  C_15
REMARK    6  A    between atoms: C_20  and  C_21
REMARK                            x       y       z     vdW  Elec       q    Type
REMARK                         _______ _______ _______ _____ _____    ______ ____
ROOT
ATOM      1  C   UNL     1      44.767   7.195  11.886  0.00  0.00    +0.000 A 
ATOM      2  N   UNL     1      43.669   6.697  11.273  0.00  0.00    +0.000 NA
ATOM      3  C   UNL     1      43.437   5.369  11.298  0.00  0.00    +0.000 A 
ATOM      4  C   UNL     1      44.260   4.434  11.907  0.00  0.00    +0.000 A 
ATOM      5  C   UNL     1      45.410   4.929  12.558  0.00  0.00    +0.000 A 
ATOM      6  C   UNL     1      46.456   4.346  13.332  0.00  0.00    +0.000 A 
ATOM      7  C   UNL     1      47.305   5.345  13.733  0.00  0.00    +0.000 A 
ATOM      8  N   UNL     1      46.813   6.545  13.263  0.00  0.00    +0.000 N 
ATOM      9  C   UNL     1      45.651   6.320  12.536  0.00  0.00    +0.000 A 
ENDROOT
BRANCH   4  10
ATOM     10  C   UNL     1      43.841   3.023  11.860  0.00  0.00    +0.000 C 
ATOM     11  N   UNL     1      43.971   2.345  10.682  0.00  0.00    +0.000 N 
ATOM     12  O   UNL     1      43.338   2.480  12.836  0.00  0.00    +0.000 OA
ATOM     13  H   UNL     1      44.136   2.819   9.808  0.00  0.00    +0.000 HD
ATOM     14  H   UNL     1      43.568   1.416  10.650  0.00  0.00    +0.000 HD
ENDBRANCH   4  10
BRANCH   1  16
ATOM     15  C   UNL     1      44.080   9.223  10.974  0.00  0.00    +0.000 C 
ATOM     16  O   UNL     1      44.984   8.558  11.857  0.00  0.00    +0.000 OA
ENDBRANCH   1  16
BRANCH   8  17
ATOM     17  C   UNL     1      47.369   7.837  13.679  0.00  0.00    +0.000 C 
BRANCH  17  18
ATOM     18  C   UNL     1      48.784   8.116  13.211  0.00  0.00    +0.000 A 
ATOM     19  N   UNL     1      48.988   8.363  11.889  0.00  0.00    +0.000 NA
ATOM     20  C   UNL     1      50.247   8.610  11.470  0.00  0.00    +0.000 A 
ATOM     21  C   UNL     1      51.346   8.623  12.305  0.00  0.00    +0.000 A 
ATOM     22  C   UNL     1      51.143   8.367  13.655  0.00  0.00    +0.000 A 
ATOM     23  C   UNL     1      49.852   8.109  14.131  0.00  0.00    +0.000 A 
ATOM     24  C   UNL     1      49.658   7.820  15.593  0.00  0.00    +0.000 C 
ENDBRANCH  17  18
ENDBRANCH   8  17
TORSDOF 4
ENDMDL
MODEL 7
REMARK VINA RESULT:    -5.442      2.482      3.306
REMARK INTER + INTRA:          -7.505
REMARK INTER:                  -7.065
REMARK INTRA:                  -0.440
REMARK UNBOUND:                -0.791
REMARK  Name = 
REMARK  6 active torsions:
REMARK  status: ('A' for Active; 'I' for Inactive)
REMARK    1  A    between atoms: C_1  and  O_2
REMARK    2  A    between atoms: O_2  and  C_3
REMARK    3  A    between atoms: C_6  and  C_7
REMARK    4  A    between atoms: N_13  and  C_14
REMARK    5  A    between atoms: C_14  and  C_15
REMARK    6  A    between atoms: C_20  and  C_21
REMARK                            x       y       z     vdW  Elec       q    Type
REMARK                         _______ _______ _______ _____ _____    ______ ____
ROOT
ATOM      1  C   UNL     1      47.166   4.758  14.233  0.00  0.00    +0.000 A 
ATOM      2  N   UNL     1      46.296   3.804  13.826  0.00  0.00    +0.000 NA
ATOM      3  C   UNL     1      45.554   4.007  12.718  0.00  0.00    +0.000 A 
ATOM      4  C   UNL     1      45.596   5.153  11.939  0.00  0.00    +0.000 A 
ATOM      5  C   UNL     1      46.499   6.161  12.339  0.00  0.00    +0.000 A 
ATOM      6  C   UNL     1      46.891   7.426  11.810  0.00  0.00    +0.000 A 
ATOM      7  C   UNL     1      47.847   7.960  12.636  0.00  0.00    +0.000 A 
ATOM      8  N   UNL     1      48.094   7.061  13.652  0.00  0.00    +0.000 N 
ATOM      9  C   UNL     1      47.279   5.946  13.496  0.00  0.00    +0.000 A 
ENDROOT
BRANCH   4  10
ATOM     10  C   UNL     1      44.735   5.197  10.744  0.00  0.00    +0.000 C 
ATOM     11  N   UNL     1      45.328   5.215   9.515  0.00  0.00    +0.000 N 
ATOM     12  O   UNL     1      43.516   5.271  10.846  0.00  0.00    +0.000 OA
ATOM     13  H   UNL     1      46.310   5.413   9.398  0.00  0.00    +0.000 HD
ATOM     14  H   UNL     1      44.717   5.364   8.722  0.00  0.00    +0.000 HD
ENDBRANCH   4  10
BRANCH   1  16
ATOM     15  C   UNL     1      47.154   3.922  16.404  0.00  0.00    +0.000 C 
ATOM     16  O   UNL     1      47.921   4.529  15.364  0.00  0.00    +0.000 OA
ENDBRANCH   1  16
BRANCH   8  17
ATOM     17  C   UNL     1      49.204   7.229  14.596  0.00  0.00    +0.000 C 
BRANCH  17  18
ATOM     18  C   UNL     1      48.854   7.945  15.886  0.00  0.00    +0.000 A 
ATOM     19  N   UNL     1      48.562   7.193  16.980  0.00  0.00    +0.000 NA
ATOM     20  C   UNL     1      48.250   7.828  18.130  0.00  0.00    +0.000 A 
ATOM     21  C   UNL     1      48.206   9.202  18.261  0.00  0.00    +0.000 A 
ATOM     22  C   UNL     1      48.500   9.973  17.145  0.00  0.00    +0.000 A 
ATOM     23  C   UNL     1      48.832   9.354  15.933  0.00  0.00    +0.000 A 
ATOM     24  C   UNL     1      49.132  10.209  14.736  0.00  0.00    +0.000 C 
ENDBRANCH  17  18
ENDBRANCH   8  17
TORSDOF 4
ENDMDL
MODEL 8
REMARK VINA RESULT:    -4.990      2.866      6.567
REMARK INTER + INTRA:          -6.947
REMARK INTER:                  -6.601
REMARK INTRA:                  -0.346
REMARK UNBOUND:                -0.791
REMARK  Name = 
REMARK  6 active torsions:
REMARK  status: ('A' for Active; 'I' for Inactive)
REMARK    1  A    between atoms: C_1  and  O_2
REMARK    2  A    between atoms: O_2  and  C_3
REMARK    3  A    between atoms: C_6  and  C_7
REMARK    4  A    between atoms: N_13  and  C_14
REMARK    5  A    between atoms: C_14  and  C_15
REMARK    6  A    between atoms: C_20  and  C_21
REMARK                            x       y       z     vdW  Elec       q    Type
REMARK                         _______ _______ _______ _____ _____    ______ ____
ROOT
ATOM      1  C   UNL     1      48.883   6.911  15.649  0.00  0.00    +0.000 A 
ATOM      2  N   UNL     1      49.623   7.409  16.666  0.00  0.00    +0.000 NA
ATOM      3  C   UNL     1      49.753   6.699  17.805  0.00  0.00    +0.000 A 
ATOM      4  C   UNL     1      49.165   5.466  18.039  0.00  0.00    +0.000 A 
ATOM      5  C   UNL     1      48.391   4.922  16.992  0.00  0.00    +0.000 A 
ATOM      6  C   UNL     1      47.686   3.699  16.795  0.00  0.00    +0.000 A 
ATOM      7  C   UNL     1      47.128   3.720  15.542  0.00  0.00    +0.000 A 
ATOM      8  N   UNL     1      47.483   4.904  14.930  0.00  0.00    +0.000 N 
ATOM      9  C   UNL     1      48.258   5.663  15.798  0.00  0.00    +0.000 A 
ENDROOT
BRANCH   4  10
ATOM     10  C   UNL     1      49.434   4.816  19.334  0.00  0.00    +0.000 C 
ATOM     11  N   UNL     1      50.697   4.362  19.583  0.00  0.00    +0.000 N 
ATOM     12  O   UNL     1      48.538   4.635  20.150  0.00  0.00    +0.000 OA
ATOM     13  H   UNL     1      51.384   4.262  18.851  0.00  0.00    +0.000 HD
ATOM     14  H   UNL     1      50.822   3.818  20.428  0.00  0.00    +0.000 HD
ENDBRANCH   4  10
BRANCH   1  16
ATOM     15  C   UNL     1      50.025   7.812  13.833  0.00  0.00    +0.000 C 
ATOM     16  O   UNL     1      48.767   7.648  14.488  0.00  0.00    +0.000 OA
ENDBRANCH   1  16
BRANCH   8  17
ATOM     17  C   UNL     1      47.223   5.161  13.510  0.00  0.00    +0.000 C 
BRANCH  17  18
ATOM     18  C   UNL     1      45.802   4.893  13.052  0.00  0.00    +0.000 A 
ATOM     19  N   UNL     1      45.396   3.600  12.941  0.00  0.00    +0.000 NA
ATOM     20  C   UNL     1      44.132   3.358  12.533  0.00  0.00    +0.000 A 
ATOM     21  C   UNL     1      43.223   4.349  12.217  0.00  0.00    +0.000 A 
ATOM     22  C   UNL     1      43.636   5.670  12.326  0.00  0.00    +0.000 A 
ATOM     23  C   UNL     1      44.938   5.965  12.748  0.00  0.00    +0.000 A 
ATOM     24  C   UNL     1      45.366   7.401  12.845  0.00  0.00    +0.000 C 
ENDBRANCH  17  18
ENDBRANCH   8  17
TORSDOF 4
ENDMDL
MODEL 9
REMARK VINA RESULT:    -4.875      2.827      4.920
REMARK INTER + INTRA:          -6.806
REMARK INTER:                  -6.208
REMARK INTRA:                  -0.597
REMARK UNBOUND:                -0.791
REMARK  Name = 
REMARK  6 active torsions:
REMARK  status: ('A' for Active; 'I' for Inactive)
REMARK    1  A    between atoms: C_1  and  O_2
REMARK    2  A    between atoms: O_2  and  C_3
REMARK    3  A    between atoms: C_6  and  C_7
REMARK    4  A    between atoms: N_13  and  C_14
REMARK    5  A    between atoms: C_14  and  C_15
REMARK    6  A    between atoms: C_20  and  C_21
REMARK                            x       y       z     vdW  Elec       q    Type
REMARK                         _______ _______ _______ _____ _____    ______ ____
ROOT
ATOM      1  C   UNL     1      47.554   7.026  12.788  0.00  0.00    +0.000 A 
ATOM      2  N   UNL     1      46.642   6.917  11.794  0.00  0.00    +0.000 NA
ATOM      3  C   UNL     1      45.727   5.928  11.835  0.00  0.00    +0.000 A 
ATOM      4  C   UNL     1      45.642   4.971  12.834  0.00  0.00    +0.000 A 
ATOM      5  C   UNL     1      46.579   5.065  13.885  0.00  0.00    +0.000 A 
ATOM      6  C   UNL     1      46.802   4.350  15.098  0.00  0.00    +0.000 A 
ATOM      7  C   UNL     1      47.869   4.921  15.744  0.00  0.00    +0.000 A 
ATOM      8  N   UNL     1      48.308   5.991  14.994  0.00  0.00    +0.000 N 
ATOM      9  C   UNL     1      47.534   6.103  13.845  0.00  0.00    +0.000 A 
ENDROOT
BRANCH   4  10
ATOM     10  C   UNL     1      44.561   3.975  12.735  0.00  0.00    +0.000 C 
ATOM     11  N   UNL     1      44.892   2.682  12.452  0.00  0.00    +0.000 N 
ATOM     12  O   UNL     1      43.386   4.303  12.850  0.00  0.00    +0.000 OA
ATOM     13  H   UNL     1      45.804   2.427  12.103  0.00  0.00    +0.000 HD
ATOM     14  H   UNL     1      44.122   2.048  12.275  0.00  0.00    +0.000 HD
ENDBRANCH   4  10
BRANCH   1  16
ATOM     15  C   UNL     1      49.489   7.802  11.754  0.00  0.00    +0.000 C 
ATOM     16  O   UNL     1      48.479   8.049  12.733  0.00  0.00    +0.000 OA
ENDBRANCH   1  16
BRANCH   8  17
ATOM     17  C   UNL     1      49.305   6.944  15.494  0.00  0.00    +0.000 C 
BRANCH  17  18
ATOM     18  C   UNL     1      49.277   7.185  16.991  0.00  0.00    +0.000 A 
ATOM     19  N   UNL     1      48.374   8.074  17.483  0.00  0.00    +0.000 NA
ATOM     20  C   UNL     1      48.348   8.291  18.815  0.00  0.00    +0.000 A 
ATOM     21  C   UNL     1      49.190   7.664  19.712  0.00  0.00    +0.000 A 
ATOM     22  C   UNL     1      50.117   6.759  19.213  0.00  0.00    +0.000 A 
ATOM     23  C   UNL     1      50.175   6.503  17.837  0.00  0.00    +0.000 A 
ATOM     24  C   UNL     1      51.195   5.530  17.319  0.00  0.00    +0.000 C 
ENDBRANCH  17  18
ENDBRANCH   8  17
TORSDOF 4
ENDMDL
