MODEL 1
REMARK VINA RESULT:    -7.749      0.000      0.000
REMARK INTER + INTRA:         -11.109
REMARK INTER:                 -10.014
REMARK INTRA:                  -1.096
REMARK UNBOUND:                -1.096
REMARK  Name = 
REMARK  6 active torsions:
REMARK  status: ('A' for Active; 'I' for Inactive)
REMARK    1  A    between atoms: C_1  and  N_2
REMARK    2  A    between atoms: N_2  and  C_3
REMARK    3  A    between atoms: C_3  and  C_4
REMARK    4  A    between atoms: C_7  and  C_8
REMARK    5  A    between atoms: C_8  and  C_9
REMARK    6  A    between atoms: C_18  and  C_20
REMARK                            x       y       z     vdW  Elec       q    Type
REMARK                         _______ _______ _______ _____ _____    ______ ____
ROOT
ATOM      1  C   UNL     1      46.326   8.606  12.418  0.00  0.00    +0.000 C 
ATOM      2  N   UNL     1      46.091   7.173  12.332  0.00  0.00    +0.000 N 
ATOM      3  C   UNL     1      44.856   6.798  11.753  0.00  0.00    +0.000 C 
ATOM      4  O   UNL     1      44.047   7.645  11.393  0.00  0.00    +0.000 OA
ENDROOT
BRANCH   3   5
ATOM      5  C   UNL     1      44.544   5.369  11.609  0.00  0.00    +0.000 A 
ATOM      6  C   UNL     1      43.820   4.625  12.533  0.00  0.00    +0.000 A 
ATOM      7  S   UNL     1      43.561   3.008  12.078  0.00  0.00    +0.000 S 
ATOM      8  C   UNL     1      44.295   3.271  10.572  0.00  0.00    +0.000 A 
ATOM      9  N   UNL     1      44.311   2.291   9.633  0.00  0.00    +0.000 NA
ATOM     10  C   UNL     1      44.834   2.647   8.513  0.00  0.00    +0.000 A 
ATOM     11  N   UNL     1      45.380   3.880   8.249  0.00  0.00    +0.000 N 
ATOM     12  C   UNL     1      45.525   4.850   9.225  0.00  0.00    +0.000 A 
ATOM     13  O   UNL     1      46.253   5.817   9.041  0.00  0.00    +0.000 OA
ATOM     14  C   UNL     1      44.821   4.549  10.456  0.00  0.00    +0.000 A 
ATOM     15  H   UNL     1      45.838   4.063   7.378  0.00  0.00    +0.000 HD
ENDBRANCH   3   5
BRANCH   2  16
ATOM     16  C   UNL     1      47.194   6.229  12.454  0.00  0.00    +0.000 C 
BRANCH  16  17
ATOM     17  C   UNL     1      47.480   5.655  13.809  0.00  0.00    +0.000 A 
ATOM     18  C   UNL     1      48.280   6.381  14.699  0.00  0.00    +0.000 A 
ATOM     19  C   UNL     1      48.502   5.904  15.984  0.00  0.00    +0.000 A 
ATOM     20  C   UNL     1      47.920   4.702  16.403  0.00  0.00    +0.000 A 
ATOM     21  C   UNL     1      47.155   3.959  15.489  0.00  0.00    +0.000 A 
ATOM     22  C   UNL     1      46.941   4.426  14.196  0.00  0.00    +0.000 A 
BRANCH  20  23
ATOM     23  C   UNL     1      48.150   4.181  17.799  0.00  0.00    +0.000 C 
BRANCH  23  24
ATOM     24  C   UNL     1      49.562   4.351  18.347  0.00  0.00    +0.000 C 
ATOM     25  O   UNL     1      49.918   5.308  19.035  0.00  0.00    +0.000 OA
ATOM     26  N   UNL     1      50.457   3.361  17.981  0.00  0.00    +0.000 N 
ATOM     27  C   UNL     1      50.187   2.178  17.192  0.00  0.00    +0.000 C 
ATOM     28  C   UNL     1      51.391   1.297  17.473  0.00  0.00    +0.000 C 
ATOM     29  C   UNL     1      52.538   2.293  17.612  0.00  0.00    +0.000 C 
ATOM     30  C   UNL     1      51.883   3.582  18.101  0.00  0.00    +0.000 C 
ENDBRANCH  23  24
ENDBRANCH  20  23
ENDBRANCH  16  17
ENDBRANCH   2  16
TORSDOF 5
ENDMDL
MODEL 2
REMARK VINA RESULT:    -7.115      2.119      8.048
REMARK INTER + INTRA:         -10.290
REMARK INTER:                  -9.370
REMARK INTRA:                  -0.921
REMARK UNBOUND:                -1.096
REMARK  Name = 
REMARK  6 active torsions:
REMARK  status: ('A' for Active; 'I' for Inactive)
REMARK    1  A    between atoms: C_1  and  N_2
REMARK    2  A    between atoms: N_2  and  C_3
REMARK    3  A    between atoms: C_3  and  C_4
REMARK    4  A    between atoms: C_7  and  C_8
REMARK    5  A    between atoms: C_8  and  C_9
REMARK    6  A    between atoms: C_18  and  C_20
REMARK                            x       y       z     vdW  Elec       q    Type
REMARK                         _______ _______ _______ _____ _____    ______ ____
ROOT
ATOM      1  C   UNL     1      48.877   8.916  16.462  0.00  0.00    +0.000 C 
ATOM      2  N   UNL     1      48.930   7.463  16.394  0.00  0.00    +0.000 N 
ATOM      3  C   UNL     1      48.439   6.788  17.535  0.00  0.00    +0.000 C 
ATOM      4  O   UNL     1      48.038   7.411  18.512  0.00  0.00    +0.000 OA
ENDROOT
BRANCH   3   5
ATOM      5  C   UNL     1      48.436   5.319  17.545  0.00  0.00    +0.000 A 
ATOM      6  C   UNL     1      47.302   4.533  17.381  0.00  0.00    +0.000 A 
ATOM      7  S   UNL     1      47.604   2.861  17.379  0.00  0.00    +0.000 S 
ATOM      8  C   UNL     1      49.277   3.122  17.469  0.00  0.00    +0.000 A 
ATOM      9  N   UNL     1      50.142   2.078  17.399  0.00  0.00    +0.000 NA
ATOM     10  C   UNL     1      51.382   2.423  17.407  0.00  0.00    +0.000 A 
ATOM     11  N   UNL     1      51.845   3.712  17.518  0.00  0.00    +0.000 N 
ATOM     12  C   UNL     1      51.003   4.785  17.750  0.00  0.00    +0.000 A 
ATOM     13  O   UNL     1      51.452   5.863  18.117  0.00  0.00    +0.000 OA
ATOM     14  C   UNL     1      49.596   4.465  17.601  0.00  0.00    +0.000 A 
ATOM     15  H   UNL     1      52.826   3.901  17.594  0.00  0.00    +0.000 HD
ENDBRANCH   3   5
BRANCH   2  16
ATOM     16  C   UNL     1      49.090   6.784  15.115  0.00  0.00    +0.000 C 
BRANCH  16  17
ATOM     17  C   UNL     1      47.897   6.696  14.212  0.00  0.00    +0.000 A 
ATOM     18  C   UNL     1      47.440   7.856  13.576  0.00  0.00    +0.000 A 
ATOM     19  C   UNL     1      46.380   7.790  12.681  0.00  0.00    +0.000 A 
ATOM     20  C   UNL     1      45.771   6.562  12.398  0.00  0.00    +0.000 A 
ATOM     21  C   UNL     1      46.208   5.411  13.073  0.00  0.00    +0.000 A 
ATOM     22  C   UNL     1      47.259   5.475  13.981  0.00  0.00    +0.000 A 
BRANCH  20  23
ATOM     23  C   UNL     1      44.625   6.480  11.421  0.00  0.00    +0.000 C 
BRANCH  23  24
ATOM     24  C   UNL     1      43.950   5.118  11.303  0.00  0.00    +0.000 C 
ATOM     25  O   UNL     1      43.101   4.705  12.094  0.00  0.00    +0.000 OA
ATOM     26  N   UNL     1      44.387   4.334  10.250  0.00  0.00    +0.000 N 
ATOM     27  C   UNL     1      45.363   4.684   9.239  0.00  0.00    +0.000 C 
ATOM     28  C   UNL     1      45.122   3.644   8.160  0.00  0.00    +0.000 C 
ATOM     29  C   UNL     1      44.748   2.391   8.946  0.00  0.00    +0.000 C 
ATOM     30  C   UNL     1      44.125   2.910  10.239  0.00  0.00    +0.000 C 
ENDBRANCH  23  24
ENDBRANCH  20  23
ENDBRANCH  16  17
ENDBRANCH   2  16
TORSDOF 5
ENDMDL
MODEL 3
REMARK VINA RESULT:    -7.018      2.811      8.222
REMARK INTER + INTRA:         -10.165
REMARK INTER:                  -9.518
REMARK INTRA:                  -0.647
REMARK UNBOUND:                -1.096
REMARK  Name = 
REMARK  6 active torsions:
REMARK  status: ('A' for Active; 'I' for Inactive)
REMARK    1  A    between atoms: C_1  and  N_2
REMARK    2  A    between atoms: N_2  and  C_3
REMARK    3  A    between atoms: C_3  and  C_4
REMARK    4  A    between atoms: C_7  and  C_8
REMARK    5  A    between atoms: C_8  and  C_9
REMARK    6  A    between atoms: C_18  and  C_20
REMARK                            x       y       z     vdW  Elec       q    Type
REMARK                         _______ _______ _______ _____ _____    ______ ____
ROOT
ATOM      1  C   UNL     1      47.285   8.751  14.400  0.00  0.00    +0.000 C 
ATOM      2  N   UNL     1      48.360   7.808  14.669  0.00  0.00    +0.000 N 
ATOM      3  C   UNL     1      48.810   7.773  16.010  0.00  0.00    +0.000 C 
ATOM      4  O   UNL     1      48.332   8.523  16.854  0.00  0.00    +0.000 OA
ENDROOT
BRANCH   3   5
ATOM      5  C   UNL     1      49.880   6.836  16.376  0.00  0.00    +0.000 A 
ATOM      6  C   UNL     1      51.228   7.167  16.442  0.00  0.00    +0.000 A 
ATOM      7  S   UNL     1      52.237   5.897  16.949  0.00  0.00    +0.000 S 
ATOM      8  C   UNL     1      50.899   4.891  17.224  0.00  0.00    +0.000 A 
ATOM      9  N   UNL     1      51.064   3.663  17.778  0.00  0.00    +0.000 NA
ATOM     10  C   UNL     1      49.962   3.036  17.998  0.00  0.00    +0.000 A 
ATOM     11  N   UNL     1      48.708   3.501  17.683  0.00  0.00    +0.000 N 
ATOM     12  C   UNL     1      48.508   4.674  16.977  0.00  0.00    +0.000 A 
ATOM     13  O   UNL     1      47.421   4.923  16.473  0.00  0.00    +0.000 OA
ATOM     14  C   UNL     1      49.705   5.482  16.839  0.00  0.00    +0.000 A 
ATOM     15  H   UNL     1      47.899   2.926  17.814  0.00  0.00    +0.000 HD
ENDBRANCH   3   5
BRANCH   2  16
ATOM     16  C   UNL     1      48.652   6.726  13.738  0.00  0.00    +0.000 C 
BRANCH  16  17
ATOM     17  C   UNL     1      47.536   6.223  12.873  0.00  0.00    +0.000 A 
ATOM     18  C   UNL     1      46.859   5.057  13.248  0.00  0.00    +0.000 A 
ATOM     19  C   UNL     1      45.776   4.608  12.504  0.00  0.00    +0.000 A 
ATOM     20  C   UNL     1      45.347   5.325  11.380  0.00  0.00    +0.000 A 
ATOM     21  C   UNL     1      46.059   6.469  10.987  0.00  0.00    +0.000 A 
ATOM     22  C   UNL     1      47.152   6.914  11.722  0.00  0.00    +0.000 A 
BRANCH  20  23
ATOM     23  C   UNL     1      44.167   4.849  10.570  0.00  0.00    +0.000 C 
BRANCH  23  24
ATOM     24  C   UNL     1      44.215   3.394  10.119  0.00  0.00    +0.000 C 
ATOM     25  O   UNL     1      43.595   2.486  10.672  0.00  0.00    +0.000 OA
ATOM     26  N   UNL     1      45.052   3.139   9.046  0.00  0.00    +0.000 N 
ATOM     27  C   UNL     1      45.831   4.097   8.291  0.00  0.00    +0.000 C 
ATOM     28  C   UNL     1      46.192   3.327   7.033  0.00  0.00    +0.000 C 
ATOM     29  C   UNL     1      46.380   1.897   7.530  0.00  0.00    +0.000 C 
ATOM     30  C   UNL     1      45.484   1.787   8.760  0.00  0.00    +0.000 C 
ENDBRANCH  23  24
ENDBRANCH  20  23
ENDBRANCH  16  17
ENDBRANCH   2  16
TORSDOF 5
ENDMDL
MODEL 4
REMARK VINA RESULT:    -6.939      3.781      8.271
REMARK INTER + INTRA:         -10.063
REMARK INTER:                  -9.131
REMARK INTRA:                  -0.932
REMARK UNBOUND:                -1.096
REMARK  Name = 
REMARK  6 active torsions:
REMARK  status: ('A' for Active; 'I' for Inactive)
REMARK    1  A    between atoms: C_1  and  N_2
REMARK    2  A    between atoms: N_2  and  C_3
REMARK    3  A    between atoms: C_3  and  C_4
REMARK    4  A    between atoms: C_7  and  C_8
REMARK    5  A    between atoms: C_8  and  C_9
REMARK    6  A    between atoms: C_18  and  C_20
REMARK                            x       y       z     vdW  Elec       q    Type
REMARK                         _______ _______ _______ _____ _____    ______ ____
ROOT
ATOM      1  C   UNL     1      47.153   4.892  14.391  0.00  0.00    +0.000 C 
ATOM      2  N   UNL     1      47.328   6.330  14.247  0.00  0.00    +0.000 N 
ATOM      3  C   UNL     1      48.550   6.841  14.741  0.00  0.00    +0.000 C 
ATOM      4  O   UNL     1      49.369   6.105  15.280  0.00  0.00    +0.000 OA
ENDROOT
BRANCH   3   5
ATOM      5  C   UNL     1      48.820   8.280  14.619  0.00  0.00    +0.000 A 
ATOM      6  C   UNL     1      48.552   9.218  15.609  0.00  0.00    +0.000 A 
ATOM      7  S   UNL     1      49.020  10.803  15.216  0.00  0.00    +0.000 S 
ATOM      8  C   UNL     1      49.716  10.280  13.760  0.00  0.00    +0.000 A 
ATOM      9  N   UNL     1      50.399  11.149  12.972  0.00  0.00    +0.000 NA
ATOM     10  C   UNL     1      50.935  10.606  11.936  0.00  0.00    +0.000 A 
ATOM     11  N   UNL     1      50.824   9.281  11.588  0.00  0.00    +0.000 N 
ATOM     12  C   UNL     1      50.009   8.400  12.276  0.00  0.00    +0.000 A 
ATOM     13  O   UNL     1      49.712   7.315  11.792  0.00  0.00    +0.000 OA
ATOM     14  C   UNL     1      49.505   8.929  13.529  0.00  0.00    +0.000 A 
ATOM     15  H   UNL     1      51.205   8.943  10.726  0.00  0.00    +0.000 HD
ENDBRANCH   3   5
BRANCH   2  16
ATOM     16  C   UNL     1      46.503   7.090  13.318  0.00  0.00    +0.000 C 
BRANCH  16  17
ATOM     17  C   UNL     1      45.873   6.355  12.173  0.00  0.00    +0.000 A 
ATOM     18  C   UNL     1      46.532   6.328  10.939  0.00  0.00    +0.000 A 
ATOM     19  C   UNL     1      46.005   5.596   9.883  0.00  0.00    +0.000 A 
ATOM     20  C   UNL     1      44.820   4.870  10.048  0.00  0.00    +0.000 A 
ATOM     21  C   UNL     1      44.143   4.938  11.277  0.00  0.00    +0.000 A 
ATOM     22  C   UNL     1      44.660   5.682  12.333  0.00  0.00    +0.000 A 
BRANCH  20  23
ATOM     23  C   UNL     1      44.245   4.066   8.909  0.00  0.00    +0.000 C 
BRANCH  23  24
ATOM     24  C   UNL     1      44.802   2.657   8.745  0.00  0.00    +0.000 C 
ATOM     25  O   UNL     1      44.430   1.692   9.414  0.00  0.00    +0.000 OA
ATOM     26  N   UNL     1      45.807   2.528   7.802  0.00  0.00    +0.000 N 
ATOM     27  C   UNL     1      46.340   3.560   6.938  0.00  0.00    +0.000 C 
ATOM     28  C   UNL     1      47.081   2.766   5.877  0.00  0.00    +0.000 C 
ATOM     29  C   UNL     1      47.640   1.573   6.646  0.00  0.00    +0.000 C 
ATOM     30  C   UNL     1      46.672   1.367   7.808  0.00  0.00    +0.000 C 
ENDBRANCH  23  24
ENDBRANCH  20  23
ENDBRANCH  16  17
ENDBRANCH   2  16
TORSDOF 5
ENDMDL
MODEL 5
REMARK VINA RESULT:    -6.772      2.797      7.981
REMARK INTER + INTRA:          -9.847
REMARK INTER:                  -8.745
REMARK INTRA:                  -1.102
REMARK UNBOUND:                -1.096
REMARK  Name = 
REMARK  6 active torsions:
REMARK  status: ('A' for Active; 'I' for Inactive)
REMARK    1  A    between atoms: C_1  and  N_2
REMARK    2  A    between atoms: N_2  and  C_3
REMARK    3  A    between atoms: C_3  and  C_4
REMARK    4  A    between atoms: C_7  and  C_8
REMARK    5  A    between atoms: C_8  and  C_9
REMARK    6  A    between atoms: C_18  and  C_20
REMARK                            x       y       z     vdW  Elec       q    Type
REMARK                         _______ _______ _______ _____ _____    ______ ____
ROOT
ATOM      1  C   UNL     1      47.723   9.271  17.381  0.00  0.00    +0.000 C 
ATOM      2  N   UNL     1      48.718   8.251  17.082  0.00  0.00    +0.000 N 
ATOM      3  C   UNL     1      48.797   7.194  18.019  0.00  0.00    +0.000 C 
ATOM      4  O   UNL     1      48.090   7.186  19.020  0.00  0.00    +0.000 OA
ENDROOT
BRANCH   3   5
ATOM      5  C   UNL     1      49.761   6.110  17.787  0.00  0.00    +0.000 A 
ATOM      6  C   UNL     1      51.125   6.203  18.037  0.00  0.00    +0.000 A 
ATOM      7  S   UNL     1      51.991   4.773  17.728  0.00  0.00    +0.000 S 
ATOM      8  C   UNL     1      50.561   3.936  17.372  0.00  0.00    +0.000 A 
ATOM      9  N   UNL     1      50.588   2.601  17.122  0.00  0.00    +0.000 NA
ATOM     10  C   UNL     1      49.426   2.079  16.938  0.00  0.00    +0.000 A 
ATOM     11  N   UNL     1      48.238   2.769  16.941  0.00  0.00    +0.000 N 
ATOM     12  C   UNL     1      48.181   4.148  17.034  0.00  0.00    +0.000 A 
ATOM     13  O   UNL     1      47.152   4.751  16.758  0.00  0.00    +0.000 OA
ATOM     14  C   UNL     1      49.446   4.761  17.389  0.00  0.00    +0.000 A 
ATOM     15  H   UNL     1      47.377   2.309  16.715  0.00  0.00    +0.000 HD
ENDBRANCH   3   5
BRANCH   2  16
ATOM     16  C   UNL     1      49.279   8.128  15.744  0.00  0.00    +0.000 C 
BRANCH  16  17
ATOM     17  C   UNL     1      48.343   7.822  14.615  0.00  0.00    +0.000 A 
ATOM     18  C   UNL     1      48.277   6.513  14.123  0.00  0.00    +0.000 A 
ATOM     19  C   UNL     1      47.367   6.187  13.126  0.00  0.00    +0.000 A 
ATOM     20  C   UNL     1      46.502   7.161  12.613  0.00  0.00    +0.000 A 
ATOM     21  C   UNL     1      46.605   8.480  13.081  0.00  0.00    +0.000 A 
ATOM     22  C   UNL     1      47.525   8.814  14.071  0.00  0.00    +0.000 A 
BRANCH  20  23
ATOM     23  C   UNL     1      45.506   6.814  11.535  0.00  0.00    +0.000 C 
BRANCH  23  24
ATOM     24  C   UNL     1      44.719   5.525  11.749  0.00  0.00    +0.000 C 
ATOM     25  O   UNL     1      44.123   5.253  12.791  0.00  0.00    +0.000 OA
ATOM     26  N   UNL     1      44.749   4.636  10.688  0.00  0.00    +0.000 N 
ATOM     27  C   UNL     1      45.394   4.818   9.405  0.00  0.00    +0.000 C 
ATOM     28  C   UNL     1      44.752   3.745   8.546  0.00  0.00    +0.000 C 
ATOM     29  C   UNL     1      44.535   2.589   9.518  0.00  0.00    +0.000 C 
ATOM     30  C   UNL     1      44.381   3.249  10.885  0.00  0.00    +0.000 C 
ENDBRANCH  23  24
ENDBRANCH  20  23
ENDBRANCH  16  17
ENDBRANCH   2  16
TORSDOF 5
ENDMDL
MODEL 6
REMARK VINA RESULT:    -6.345      3.854      8.239
REMARK INTER + INTRA:          -9.295
REMARK INTER:                  -8.285
REMARK INTRA:                  -1.011
REMARK UNBOUND:                -1.096
REMARK  Name = 
REMARK  6 active torsions:
REMARK  status: ('A' for Active; 'I' for Inactive)
REMARK    1  A    between atoms: C_1  and  N_2
REMARK    2  A    between atoms: N_2  and  C_3
REMARK    3  A    between atoms: C_3  and  C_4
REMARK    4  A    between atoms: C_7  and  C_8
REMARK    5  A    between atoms: C_8  and  C_9
REMARK    6  A    between atoms: C_18  and  C_20
REMARK                            x       y       z     vdW  Elec       q    Type
REMARK                         _______ _______ _______ _____ _____    ______ ____
ROOT
ATOM      1  C   UNL     1      48.695   6.493  16.356  0.00  0.00    +0.000 C 
ATOM      2  N   UNL     1      48.781   7.251  15.117  0.00  0.00    +0.000 N 
ATOM      3  C   UNL     1      49.180   8.601  15.263  0.00  0.00    +0.000 C 
ATOM      4  O   UNL     1      49.396   9.077  16.372  0.00  0.00    +0.000 OA
ENDROOT
BRANCH   3   5
ATOM      5  C   UNL     1      49.313   9.436  14.062  0.00  0.00    +0.000 A 
ATOM      6  C   UNL     1      48.285  10.193  13.513  0.00  0.00    +0.000 A 
ATOM      7  S   UNL     1      48.739  11.108  12.154  0.00  0.00    +0.000 S 
ATOM      8  C   UNL     1      50.357  10.629  12.322  0.00  0.00    +0.000 A 
ATOM      9  N   UNL     1      51.317  11.152  11.518  0.00  0.00    +0.000 NA
ATOM     10  C   UNL     1      52.509  10.758  11.800  0.00  0.00    +0.000 A 
ATOM     11  N   UNL     1      52.834   9.858  12.786  0.00  0.00    +0.000 N 
ATOM     12  C   UNL     1      51.874   9.185  13.521  0.00  0.00    +0.000 A 
ATOM     13  O   UNL     1      52.172   8.202  14.187  0.00  0.00    +0.000 OA
ATOM     14  C   UNL     1      50.531   9.703  13.340  0.00  0.00    +0.000 A 
ATOM     15  H   UNL     1      53.776   9.539  12.900  0.00  0.00    +0.000 HD
ENDBRANCH   3   5
BRANCH   2  16
ATOM     16  C   UNL     1      48.847   6.571  13.831  0.00  0.00    +0.000 C 
BRANCH  16  17
ATOM     17  C   UNL     1      47.556   6.222  13.154  0.00  0.00    +0.000 A 
ATOM     18  C   UNL     1      47.143   6.976  12.050  0.00  0.00    +0.000 A 
ATOM     19  C   UNL     1      45.987   6.630  11.362  0.00  0.00    +0.000 A 
ATOM     20  C   UNL     1      45.234   5.519  11.760  0.00  0.00    +0.000 A 
ATOM     21  C   UNL     1      45.633   4.794  12.894  0.00  0.00    +0.000 A 
ATOM     22  C   UNL     1      46.783   5.146  13.595  0.00  0.00    +0.000 A 
BRANCH  20  23
ATOM     23  C   UNL     1      43.982   5.131  11.013  0.00  0.00    +0.000 C 
BRANCH  23  24
ATOM     24  C   UNL     1      43.913   3.683  10.541  0.00  0.00    +0.000 C 
ATOM     25  O   UNL     1      43.238   2.815  11.095  0.00  0.00    +0.000 OA
ATOM     26  N   UNL     1      44.705   3.383   9.447  0.00  0.00    +0.000 N 
ATOM     27  C   UNL     1      45.538   4.293   8.688  0.00  0.00    +0.000 C 
ATOM     28  C   UNL     1      45.814   3.518   7.412  0.00  0.00    +0.000 C 
ATOM     29  C   UNL     1      45.906   2.070   7.885  0.00  0.00    +0.000 C 
ATOM     30  C   UNL     1      45.030   2.008   9.133  0.00  0.00    +0.000 C 
ENDBRANCH  23  24
ENDBRANCH  20  23
ENDBRANCH  16  17
ENDBRANCH   2  16
TORSDOF 5
ENDMDL
MODEL 7
REMARK VINA RESULT:    -6.339      3.506      8.802
REMARK INTER + INTRA:          -9.288
REMARK INTER:                  -9.559
REMARK INTRA:                   0.271
REMARK UNBOUND:                -1.096
REMARK  Name = 
REMARK  6 active torsions:
REMARK  status: ('A' for Active; 'I' for Inactive)
REMARK    1  A    between atoms: C_1  and  N_2
REMARK    2  A    between atoms: N_2  and  C_3
REMARK    3  A    between atoms: C_3  and  C_4
REMARK    4  A    between atoms: C_7  and  C_8
REMARK    5  A    between atoms: C_8  and  C_9
REMARK    6  A    between atoms: C_18  and  C_20
REMARK                            x       y       z     vdW  Elec       q    Type
REMARK                         _______ _______ _______ _____ _____    ______ ____
ROOT
ATOM      1  C   UNL     1      47.170   4.268  14.848  0.00  0.00    +0.000 C 
ATOM      2  N   UNL     1      47.586   5.661  14.794  0.00  0.00    +0.000 N 
ATOM      3  C   UNL     1      48.728   5.979  15.566  0.00  0.00    +0.000 C 
ATOM      4  O   UNL     1      49.283   5.127  16.250  0.00  0.00    +0.000 OA
ENDROOT
BRANCH   3   5
ATOM      5  C   UNL     1      49.230   7.360  15.556  0.00  0.00    +0.000 A 
ATOM      6  C   UNL     1      49.990   7.913  14.532  0.00  0.00    +0.000 A 
ATOM      7  S   UNL     1      50.385   9.550  14.761  0.00  0.00    +0.000 S 
ATOM      8  C   UNL     1      49.450   9.620  16.174  0.00  0.00    +0.000 A 
ATOM      9  N   UNL     1      49.273  10.799  16.825  0.00  0.00    +0.000 NA
ATOM     10  C   UNL     1      48.484  10.723  17.839  0.00  0.00    +0.000 A 
ATOM     11  N   UNL     1      47.882   9.574  18.291  0.00  0.00    +0.000 N 
ATOM     12  C   UNL     1      48.160   8.330  17.754  0.00  0.00    +0.000 A 
ATOM     13  O   UNL     1      47.833   7.308  18.342  0.00  0.00    +0.000 OA
ATOM     14  C   UNL     1      48.925   8.385  16.522  0.00  0.00    +0.000 A 
ATOM     15  H   UNL     1      47.340   9.576  19.133  0.00  0.00    +0.000 HD
ENDBRANCH   3   5
BRANCH   2  16
ATOM     16  C   UNL     1      47.116   6.538  13.730  0.00  0.00    +0.000 C 
BRANCH  16  17
ATOM     17  C   UNL     1      46.332   5.925  12.610  0.00  0.00    +0.000 A 
ATOM     18  C   UNL     1      46.545   6.379  11.303  0.00  0.00    +0.000 A 
ATOM     19  C   UNL     1      45.883   5.780  10.239  0.00  0.00    +0.000 A 
ATOM     20  C   UNL     1      45.007   4.712  10.464  0.00  0.00    +0.000 A 
ATOM     21  C   UNL     1      44.766   4.292  11.782  0.00  0.00    +0.000 A 
ATOM     22  C   UNL     1      45.417   4.898  12.852  0.00  0.00    +0.000 A 
BRANCH  20  23
ATOM     23  C   UNL     1      44.290   4.050   9.314  0.00  0.00    +0.000 C 
BRANCH  23  24
ATOM     24  C   UNL     1      44.735   2.630   8.984  0.00  0.00    +0.000 C 
ATOM     25  O   UNL     1      44.274   1.626   9.526  0.00  0.00    +0.000 OA
ATOM     26  N   UNL     1      45.743   2.535   8.040  0.00  0.00    +0.000 N 
ATOM     27  C   UNL     1      46.372   3.617   7.312  0.00  0.00    +0.000 C 
ATOM     28  C   UNL     1      47.066   2.900   6.168  0.00  0.00    +0.000 C 
ATOM     29  C   UNL     1      47.513   1.581   6.791  0.00  0.00    +0.000 C 
ATOM     30  C   UNL     1      46.512   1.315   7.911  0.00  0.00    +0.000 C 
ENDBRANCH  23  24
ENDBRANCH  20  23
ENDBRANCH  16  17
ENDBRANCH   2  16
TORSDOF 5
ENDMDL
MODEL 8
REMARK VINA RESULT:    -6.326      2.182      3.210
REMARK INTER + INTRA:          -9.271
REMARK INTER:                  -8.345
REMARK INTRA:                  -0.926
REMARK UNBOUND:                -1.096
REMARK  Name = 
REMARK  6 active torsions:
REMARK  status: ('A' for Active; 'I' for Inactive)
REMARK    1  A    between atoms: C_1  and  N_2
REMARK    2  A    between atoms: N_2  and  C_3
REMARK    3  A    between atoms: C_3  and  C_4
REMARK    4  A    between atoms: C_7  and  C_8
REMARK    5  A    between atoms: C_8  and  C_9
REMARK    6  A    between atoms: C_18  and  C_20
REMARK                            x       y       z     vdW  Elec       q    Type
REMARK                         _______ _______ _______ _____ _____    ______ ____
ROOT
ATOM      1  C   UNL     1      46.911   8.810  12.383  0.00  0.00    +0.000 C 
ATOM      2  N   UNL     1      46.516   7.410  12.422  0.00  0.00    +0.000 N 
ATOM      3  C   UNL     1      45.233   7.130  11.896  0.00  0.00    +0.000 C 
ATOM      4  O   UNL     1      44.514   8.031  11.477  0.00  0.00    +0.000 OA
ENDROOT
BRANCH   3   5
ATOM      5  C   UNL     1      44.760   5.739  11.877  0.00  0.00    +0.000 A 
ATOM      6  C   UNL     1      44.053   5.135  12.910  0.00  0.00    +0.000 A 
ATOM      7  S   UNL     1      43.584   3.533  12.592  0.00  0.00    +0.000 S 
ATOM      8  C   UNL     1      44.194   3.625  11.012  0.00  0.00    +0.000 A 
ATOM      9  N   UNL     1      44.016   2.596  10.144  0.00  0.00    +0.000 NA
ATOM     10  C   UNL     1      44.464   2.827   8.961  0.00  0.00    +0.000 A 
ATOM     11  N   UNL     1      45.109   3.974   8.566  0.00  0.00    +0.000 N 
ATOM     12  C   UNL     1      45.449   4.977   9.456  0.00  0.00    +0.000 A 
ATOM     13  O   UNL     1      46.253   5.845   9.144  0.00  0.00    +0.000 OA
ATOM     14  C   UNL     1      44.838   4.828  10.763  0.00  0.00    +0.000 A 
ATOM     15  H   UNL     1      45.499   4.054   7.647  0.00  0.00    +0.000 HD
ENDBRANCH   3   5
BRANCH   2  16
ATOM     16  C   UNL     1      47.509   6.361  12.607  0.00  0.00    +0.000 C 
BRANCH  16  17
ATOM     17  C   UNL     1      48.176   6.252  13.945  0.00  0.00    +0.000 A 
ATOM     18  C   UNL     1      49.301   7.041  14.210  0.00  0.00    +0.000 A 
ATOM     19  C   UNL     1      49.895   7.011  15.465  0.00  0.00    +0.000 A 
ATOM     20  C   UNL     1      49.365   6.203  16.478  0.00  0.00    +0.000 A 
ATOM     21  C   UNL     1      48.262   5.383  16.191  0.00  0.00    +0.000 A 
ATOM     22  C   UNL     1      47.673   5.399  14.931  0.00  0.00    +0.000 A 
BRANCH  20  23
ATOM     23  C   UNL     1      49.999   6.171  17.846  0.00  0.00    +0.000 C 
BRANCH  23  24
ATOM     24  C   UNL     1      49.038   6.011  19.018  0.00  0.00    +0.000 C 
ATOM     25  O   UNL     1      48.616   4.924  19.414  0.00  0.00    +0.000 OA
ATOM     26  N   UNL     1      48.623   7.195  19.604  0.00  0.00    +0.000 N 
ATOM     27  C   UNL     1      49.036   8.539  19.260  0.00  0.00    +0.000 C 
ATOM     28  C   UNL     1      48.599   9.349  20.467  0.00  0.00    +0.000 C 
ATOM     29  C   UNL     1      47.305   8.670  20.905  0.00  0.00    +0.000 C 
ATOM     30  C   UNL     1      47.449   7.220  20.451  0.00  0.00    +0.000 C 
ENDBRANCH  23  24
ENDBRANCH  20  23
ENDBRANCH  16  17
ENDBRANCH   2  16
TORSDOF 5
ENDMDL
MODEL 9
REMARK VINA RESULT:    -6.124      3.542      8.692
REMARK INTER + INTRA:          -9.010
REMARK INTER:                  -8.427
REMARK INTRA:                  -0.583
REMARK UNBOUND:                -1.096
REMARK  Name = 
REMARK  6 active torsions:
REMARK  status: ('A' for Active; 'I' for Inactive)
REMARK    1  A    between atoms: C_1  and  N_2
REMARK    2  A    between atoms: N_2  and  C_3
REMARK    3  A    between atoms: C_3  and  C_4
REMARK    4  A    between atoms: C_7  and  C_8
REMARK    5  A    between atoms: C_8  and  C_9
REMARK    6  A    between atoms: C_18  and  C_20
REMARK                            x       y       z     vdW  Elec       q    Type
REMARK                         _______ _______ _______ _____ _____    ______ ____
ROOT
ATOM      1  C   UNL     1      47.976   4.472  16.696  0.00  0.00    +0.000 C 
ATOM      2  N   UNL     1      48.283   5.815  16.226  0.00  0.00    +0.000 N 
ATOM      3  C   UNL     1      48.774   6.701  17.212  0.00  0.00    +0.000 C 
ATOM      4  O   UNL     1      48.887   6.344  18.380  0.00  0.00    +0.000 OA
ENDROOT
BRANCH   3   5
ATOM      5  C   UNL     1      49.129   8.072  16.822  0.00  0.00    +0.000 A 
ATOM      6  C   UNL     1      48.260   9.156  16.876  0.00  0.00    +0.000 A 
ATOM      7  S   UNL     1      48.959  10.636  16.418  0.00  0.00    +0.000 S 
ATOM      8  C   UNL     1      50.483   9.911  16.253  0.00  0.00    +0.000 A 
ATOM      9  N   UNL     1      51.578  10.665  15.975  0.00  0.00    +0.000 NA
ATOM     10  C   UNL     1      52.679  10.000  15.948  0.00  0.00    +0.000 A 
ATOM     11  N   UNL     1      52.790   8.644  16.136  0.00  0.00    +0.000 N 
ATOM     12  C   UNL     1      51.687   7.820  16.264  0.00  0.00    +0.000 A 
ATOM     13  O   UNL     1      51.797   6.606  16.151  0.00  0.00    +0.000 OA
ATOM     14  C   UNL     1      50.440   8.539  16.446  0.00  0.00    +0.000 A 
ATOM     15  H   UNL     1      53.672   8.181  16.026  0.00  0.00    +0.000 HD
ENDBRANCH   3   5
BRANCH   2  16
ATOM     16  C   UNL     1      48.453   6.085  14.804  0.00  0.00    +0.000 C 
BRANCH  16  17
ATOM     17  C   UNL     1      47.281   5.854  13.900  0.00  0.00    +0.000 A 
ATOM     18  C   UNL     1      46.796   6.918  13.130  0.00  0.00    +0.000 A 
ATOM     19  C   UNL     1      45.756   6.713  12.233  0.00  0.00    +0.000 A 
ATOM     20  C   UNL     1      45.194   5.441  12.082  0.00  0.00    +0.000 A 
ATOM     21  C   UNL     1      45.657   4.389  12.889  0.00  0.00    +0.000 A 
ATOM     22  C   UNL     1      46.689   4.593  13.800  0.00  0.00    +0.000 A 
BRANCH  20  23
ATOM     23  C   UNL     1      44.070   5.208  11.104  0.00  0.00    +0.000 C 
BRANCH  23  24
ATOM     24  C   UNL     1      43.959   3.794  10.545  0.00  0.00    +0.000 C 
ATOM     25  O   UNL     1      43.218   2.929  11.013  0.00  0.00    +0.000 OA
ATOM     26  N   UNL     1      44.793   3.518   9.475  0.00  0.00    +0.000 N 
ATOM     27  C   UNL     1      45.705   4.427   8.813  0.00  0.00    +0.000 C 
ATOM     28  C   UNL     1      46.011   3.714   7.509  0.00  0.00    +0.000 C 
ATOM     29  C   UNL     1      46.012   2.239   7.900  0.00  0.00    +0.000 C 
ATOM     30  C   UNL     1      45.071   2.148   9.097  0.00  0.00    +0.000 C 
ENDBRANCH  23  24
ENDBRANCH  20  23
ENDBRANCH  16  17
ENDBRANCH   2  16
TORSDOF 5
ENDMDL
