MODEL 1
REMARK VINA RESULT:    -8.605      0.000      0.000
REMARK INTER + INTRA:         -13.040
REMARK INTER:                 -11.874
REMARK INTRA:                  -1.166
REMARK UNBOUND:                -1.166
REMARK  Name = 
REMARK  7 active torsions:
REMARK  status: ('A' for Active; 'I' for Inactive)
REMARK    1  A    between atoms: C_2  and  C_20
REMARK    2  A    between atoms: N_3  and  C_4
REMARK    3  A    between atoms: C_4  and  C_5
REMARK    4  A    between atoms: C_8  and  C_9
REMARK    5  A    between atoms: C_9  and  C_10
REMARK    6  A    between atoms: C_10  and  O_11
REMARK    7  A    between atoms: C_10  and  C_12
REMARK                            x       y       z     vdW  Elec       q    Type
REMARK                         _______ _______ _______ _____ _____    ______ ____
ROOT
ATOM      1  C   UNL     1      46.720   7.912  13.176  0.00  0.00    +0.000 C 
ENDROOT
BRANCH   1   2
ATOM      2  C   UNL     1      46.031   6.955  12.244  0.00  0.00    +0.000 A 
ATOM      3  C   UNL     1      46.605   6.649  11.006  0.00  0.00    +0.000 A 
ATOM      4  C   UNL     1      46.007   5.718  10.153  0.00  0.00    +0.000 A 
ATOM      5  C   UNL     1      44.815   5.076  10.512  0.00  0.00    +0.000 A 
ATOM      6  C   UNL     1      44.215   5.426  11.733  0.00  0.00    +0.000 A 
ATOM      7  C   UNL     1      44.813   6.359  12.586  0.00  0.00    +0.000 A 
BRANCH   5   8
ATOM      8  C   UNL     1      44.163   3.993   9.668  0.00  0.00    +0.000 C 
BRANCH   8   9
ATOM      9  C   UNL     1      44.851   2.612   9.650  0.00  0.00    +0.000 C 
BRANCH   9  10
ATOM     10  C   UNL     1      45.652   2.352   8.387  0.00  0.00    +0.000 A 
ATOM     11  C   UNL     1      45.775   3.365   7.435  0.00  0.00    +0.000 A 
ATOM     12  C   UNL     1      46.591   3.160   6.327  0.00  0.00    +0.000 A 
ATOM     13  C   UNL     1      47.271   1.957   6.199  0.00  0.00    +0.000 A 
ATOM     14  C   UNL     1      47.110   1.006   7.193  0.00  0.00    +0.000 A 
ATOM     15  N   UNL     1      46.328   1.178   8.283  0.00  0.00    +0.000 NA
ENDBRANCH   9  10
BRANCH   9  16
ATOM     16  O   UNL     1      43.877   1.564   9.751  0.00  0.00    +0.000 OA
ATOM     17  H   UNL     1      43.182   1.789   9.105  0.00  0.00    +0.000 HD
ENDBRANCH   9  16
ENDBRANCH   8   9
ENDBRANCH   5   8
ENDBRANCH   1   2
BRANCH   1  20
ATOM     18  O   UNL     1      49.158   6.650  13.416  0.00  0.00    +0.000 OA
ATOM     19  C   UNL     1      48.445   6.721  14.415  0.00  0.00    +0.000 C 
ATOM     20  N   UNL     1      47.183   7.254  14.370  0.00  0.00    +0.000 N 
ATOM     21  H   UNL     1      46.702   7.479  15.236  0.00  0.00    +0.000 HD
BRANCH  19  22
ATOM     22  C   UNL     1      48.901   6.208  15.711  0.00  0.00    +0.000 A 
ATOM     23  C   UNL     1      49.912   6.870  16.393  0.00  0.00    +0.000 A 
ATOM     24  S   UNL     1      50.304   6.158  17.891  0.00  0.00    +0.000 S 
ATOM     25  C   UNL     1      49.105   4.967  17.702  0.00  0.00    +0.000 A 
ATOM     26  N   UNL     1      48.873   4.046  18.675  0.00  0.00    +0.000 NA
ATOM     27  C   UNL     1      47.908   3.228  18.417  0.00  0.00    +0.000 A 
ATOM     28  N   UNL     1      47.163   3.238  17.266  0.00  0.00    +0.000 N 
ATOM     29  C   UNL     1      47.392   4.120  16.235  0.00  0.00    +0.000 A 
ATOM     30  O   UNL     1      46.761   4.047  15.186  0.00  0.00    +0.000 OA
ATOM     31  C   UNL     1      48.441   5.087  16.493  0.00  0.00    +0.000 A 
ATOM     32  H   UNL     1      46.437   2.554  17.112  0.00  0.00    +0.000 HD
ENDBRANCH  19  22
ENDBRANCH   1  20
TORSDOF 7
ENDMDL
MODEL 2
REMARK VINA RESULT:    -7.876      2.487      3.086
REMARK INTER + INTRA:         -12.034
REMARK INTER:                 -11.062
REMARK INTRA:                  -0.973
REMARK UNBOUND:                -1.166
REMARK  Name = 
REMARK  7 active torsions:
REMARK  status: ('A' for Active; 'I' for Inactive)
REMARK    1  A    between atoms: C_2  and  C_20
REMARK    2  A    between atoms: N_3  and  C_4
REMARK    3  A    between atoms: C_4  and  C_5
REMARK    4  A    between atoms: C_8  and  C_9
REMARK    5  A    between atoms: C_9  and  C_10
REMARK    6  A    between atoms: C_10  and  O_11
REMARK    7  A    between atoms: C_10  and  C_12
REMARK                            x       y       z     vdW  Elec       q    Type
REMARK                         _______ _______ _______ _____ _____    ______ ____
ROOT
ATOM      1  C   UNL     1      46.831   4.562  15.775  0.00  0.00    +0.000 C 
ENDROOT
BRANCH   1   2
ATOM      2  C   UNL     1      46.558   4.683  14.303  0.00  0.00    +0.000 A 
ATOM      3  C   UNL     1      45.907   3.648  13.623  0.00  0.00    +0.000 A 
ATOM      4  C   UNL     1      45.595   3.770  12.268  0.00  0.00    +0.000 A 
ATOM      5  C   UNL     1      45.933   4.927  11.553  0.00  0.00    +0.000 A 
ATOM      6  C   UNL     1      46.634   5.941  12.226  0.00  0.00    +0.000 A 
ATOM      7  C   UNL     1      46.948   5.818  13.584  0.00  0.00    +0.000 A 
BRANCH   5   8
ATOM      8  C   UNL     1      45.546   5.154  10.101  0.00  0.00    +0.000 C 
BRANCH   8   9
ATOM      9  C   UNL     1      44.716   4.047   9.418  0.00  0.00    +0.000 C 
BRANCH   9  10
ATOM     10  C   UNL     1      45.534   3.161   8.495  0.00  0.00    +0.000 A 
ATOM     11  C   UNL     1      46.296   3.747   7.484  0.00  0.00    +0.000 A 
ATOM     12  C   UNL     1      47.122   2.942   6.705  0.00  0.00    +0.000 A 
ATOM     13  C   UNL     1      47.177   1.579   6.959  0.00  0.00    +0.000 A 
ATOM     14  C   UNL     1      46.403   1.074   7.990  0.00  0.00    +0.000 A 
ATOM     15  N   UNL     1      45.594   1.830   8.767  0.00  0.00    +0.000 NA
ENDBRANCH   9  10
BRANCH   9  16
ATOM     16  O   UNL     1      43.668   4.621   8.625  0.00  0.00    +0.000 OA
ATOM     17  H   UNL     1      43.912   4.442   7.698  0.00  0.00    +0.000 HD
ENDBRANCH   9  16
ENDBRANCH   8   9
ENDBRANCH   5   8
ENDBRANCH   1   2
BRANCH   1  20
ATOM     18  O   UNL     1      48.115   5.545  18.007  0.00  0.00    +0.000 OA
ATOM     19  C   UNL     1      48.767   4.858  17.223  0.00  0.00    +0.000 C 
ATOM     20  N   UNL     1      48.236   4.398  16.046  0.00  0.00    +0.000 N 
ATOM     21  H   UNL     1      48.724   3.678  15.523  0.00  0.00    +0.000 HD
BRANCH  19  22
ATOM     22  C   UNL     1      50.167   4.516  17.495  0.00  0.00    +0.000 A 
ATOM     23  C   UNL     1      51.037   5.499  17.945  0.00  0.00    +0.000 A 
ATOM     24  S   UNL     1      52.618   4.929  18.234  0.00  0.00    +0.000 S 
ATOM     25  C   UNL     1      52.182   3.341  17.813  0.00  0.00    +0.000 A 
ATOM     26  N   UNL     1      53.080   2.323  17.894  0.00  0.00    +0.000 NA
ATOM     27  C   UNL     1      52.605   1.164  17.584  0.00  0.00    +0.000 A 
ATOM     28  N   UNL     1      51.314   0.932  17.184  0.00  0.00    +0.000 N 
ATOM     29  C   UNL     1      50.383   1.935  17.042  0.00  0.00    +0.000 A 
ATOM     30  O   UNL     1      49.262   1.703  16.604  0.00  0.00    +0.000 OA
ATOM     31  C   UNL     1      50.859   3.253  17.418  0.00  0.00    +0.000 A 
ATOM     32  H   UNL     1      51.008   0.005  16.929  0.00  0.00    +0.000 HD
ENDBRANCH  19  22
ENDBRANCH   1  20
TORSDOF 7
ENDMDL
MODEL 3
REMARK VINA RESULT:    -7.554      2.512      4.019
REMARK INTER + INTRA:         -11.591
REMARK INTER:                 -10.731
REMARK INTRA:                  -0.860
REMARK UNBOUND:                -1.166
REMARK  Name = 
REMARK  7 active torsions:
REMARK  status: ('A' for Active; 'I' for Inactive)
REMARK    1  A    between atoms: C_2  and  C_20
REMARK    2  A    between atoms: N_3  and  C_4
REMARK    3  A    between atoms: C_4  and  C_5
REMARK    4  A    between atoms: C_8  and  C_9
REMARK    5  A    between atoms: C_9  and  C_10
REMARK    6  A    between atoms: C_10  and  O_11
REMARK    7  A    between atoms: C_10  and  C_12
REMARK                            x       y       z     vdW  Elec       q    Type
REMARK                         _______ _______ _______ _____ _____    ______ ____
ROOT
ATOM      1  C   UNL     1      47.115   4.930  14.782  0.00  0.00    +0.000 C 
ENDROOT
BRANCH   1   2
ATOM      2  C   UNL     1      46.288   4.685  13.551  0.00  0.00    +0.000 A 
ATOM      3  C   UNL     1      45.749   5.764  12.842  0.00  0.00    +0.000 A 
ATOM      4  C   UNL     1      45.027   5.555  11.666  0.00  0.00    +0.000 A 
ATOM      5  C   UNL     1      44.817   4.262  11.170  0.00  0.00    +0.000 A 
ATOM      6  C   UNL     1      45.314   3.178  11.913  0.00  0.00    +0.000 A 
ATOM      7  C   UNL     1      46.037   3.387  13.093  0.00  0.00    +0.000 A 
BRANCH   5   8
ATOM      8  C   UNL     1      44.115   3.975   9.853  0.00  0.00    +0.000 C 
BRANCH   8   9
ATOM      9  C   UNL     1      44.867   4.363   8.562  0.00  0.00    +0.000 C 
BRANCH   9  10
ATOM     10  C   UNL     1      45.702   3.232   7.986  0.00  0.00    +0.000 A 
ATOM     11  C   UNL     1      46.686   3.523   7.041  0.00  0.00    +0.000 A 
ATOM     12  C   UNL     1      47.516   2.500   6.590  0.00  0.00    +0.000 A 
ATOM     13  C   UNL     1      47.350   1.219   7.097  0.00  0.00    +0.000 A 
ATOM     14  C   UNL     1      46.361   1.013   8.044  0.00  0.00    +0.000 A 
ATOM     15  N   UNL     1      45.543   1.986   8.505  0.00  0.00    +0.000 NA
ENDBRANCH   9  10
BRANCH   9  16
ATOM     16  O   UNL     1      45.761   5.457   8.811  0.00  0.00    +0.000 OA
ATOM     17  H   UNL     1      45.343   6.236   8.399  0.00  0.00    +0.000 HD
ENDBRANCH   9  16
ENDBRANCH   8   9
ENDBRANCH   5   8
ENDBRANCH   1   2
BRANCH   1  20
ATOM     18  O   UNL     1      49.356   5.635  16.223  0.00  0.00    +0.000 OA
ATOM     19  C   UNL     1      48.872   6.472  15.463  0.00  0.00    +0.000 C 
ATOM     20  N   UNL     1      47.712   6.240  14.772  0.00  0.00    +0.000 N 
ATOM     21  H   UNL     1      47.448   6.860  14.011  0.00  0.00    +0.000 HD
BRANCH  19  22
ATOM     22  C   UNL     1      49.502   7.784  15.278  0.00  0.00    +0.000 A 
ATOM     23  C   UNL     1      49.811   8.558  16.387  0.00  0.00    +0.000 A 
ATOM     24  S   UNL     1      50.558  10.040  15.997  0.00  0.00    +0.000 S 
ATOM     25  C   UNL     1      50.536   9.678  14.336  0.00  0.00    +0.000 A 
ATOM     26  N   UNL     1      51.083  10.528  13.426  0.00  0.00    +0.000 NA
ATOM     27  C   UNL     1      51.033  10.109  12.207  0.00  0.00    +0.000 A 
ATOM     28  N   UNL     1      50.471   8.923  11.810  0.00  0.00    +0.000 N 
ATOM     29  C   UNL     1      49.865   8.053  12.688  0.00  0.00    +0.000 A 
ATOM     30  O   UNL     1      49.300   7.040  12.289  0.00  0.00    +0.000 OA
ATOM     31  C   UNL     1      49.930   8.460  14.079  0.00  0.00    +0.000 A 
ATOM     32  H   UNL     1      50.440   8.663  10.836  0.00  0.00    +0.000 HD
ENDBRANCH  19  22
ENDBRANCH   1  20
TORSDOF 7
ENDMDL
MODEL 4
REMARK VINA RESULT:    -7.473      2.700      3.378
REMARK INTER + INTRA:         -11.479
REMARK INTER:                 -10.399
REMARK INTRA:                  -1.080
REMARK UNBOUND:                -1.166
REMARK  Name = 
REMARK  7 active torsions:
REMARK  status: ('A' for Active; 'I' for Inactive)
REMARK    1  A    between atoms: C_2  and  C_20
REMARK    2  A    between atoms: N_3  and  C_4
REMARK    3  A    between atoms: C_4  and  C_5
REMARK    4  A    between atoms: C_8  and  C_9
REMARK    5  A    between atoms: C_9  and  C_10
REMARK    6  A    between atoms: C_10  and  O_11
REMARK    7  A    between atoms: C_10  and  C_12
REMARK                            x       y       z     vdW  Elec       q    Type
REMARK                         _______ _______ _______ _____ _____    ______ ____
ROOT
ATOM      1  C   UNL     1      47.377   4.366  15.591  0.00  0.00    +0.000 C 
ENDROOT
BRANCH   1   2
ATOM      2  C   UNL     1      46.818   4.672  14.230  0.00  0.00    +0.000 A 
ATOM      3  C   UNL     1      47.179   5.853  13.573  0.00  0.00    +0.000 A 
ATOM      4  C   UNL     1      46.714   6.123  12.284  0.00  0.00    +0.000 A 
ATOM      5  C   UNL     1      45.868   5.225  11.622  0.00  0.00    +0.000 A 
ATOM      6  C   UNL     1      45.465   4.066  12.305  0.00  0.00    +0.000 A 
ATOM      7  C   UNL     1      45.930   3.796  13.597  0.00  0.00    +0.000 A 
BRANCH   5   8
ATOM      8  C   UNL     1      45.399   5.421  10.189  0.00  0.00    +0.000 C 
BRANCH   8   9
ATOM      9  C   UNL     1      44.700   4.223   9.513  0.00  0.00    +0.000 C 
BRANCH   9  10
ATOM     10  C   UNL     1      45.621   3.414   8.616  0.00  0.00    +0.000 A 
ATOM     11  C   UNL     1      45.688   2.030   8.776  0.00  0.00    +0.000 A 
ATOM     12  C   UNL     1      46.455   1.281   7.888  0.00  0.00    +0.000 A 
ATOM     13  C   UNL     1      47.127   1.927   6.860  0.00  0.00    +0.000 A 
ATOM     14  C   UNL     1      47.000   3.302   6.758  0.00  0.00    +0.000 A 
ATOM     15  N   UNL     1      46.258   4.056   7.602  0.00  0.00    +0.000 NA
ENDBRANCH   9  10
BRANCH   9  16
ATOM     16  O   UNL     1      43.609   4.672   8.697  0.00  0.00    +0.000 OA
ATOM     17  H   UNL     1      42.840   4.139   8.971  0.00  0.00    +0.000 HD
ENDBRANCH   9  16
ENDBRANCH   8   9
ENDBRANCH   5   8
ENDBRANCH   1   2
BRANCH   1  20
ATOM     18  O   UNL     1      49.818   4.639  16.840  0.00  0.00    +0.000 OA
ATOM     19  C   UNL     1      49.082   5.622  16.792  0.00  0.00    +0.000 C 
ATOM     20  N   UNL     1      47.818   5.559  16.267  0.00  0.00    +0.000 N 
ATOM     21  H   UNL     1      47.316   6.417  16.060  0.00  0.00    +0.000 HD
BRANCH  19  22
ATOM     22  C   UNL     1      49.512   6.920  17.325  0.00  0.00    +0.000 A 
ATOM     23  C   UNL     1      50.604   7.564  16.761  0.00  0.00    +0.000 A 
ATOM     24  S   UNL     1      50.954   9.069  17.482  0.00  0.00    +0.000 S 
ATOM     25  C   UNL     1      49.631   8.933  18.540  0.00  0.00    +0.000 A 
ATOM     26  N   UNL     1      49.325   9.931  19.411  0.00  0.00    +0.000 NA
ATOM     27  C   UNL     1      48.273   9.714  20.125  0.00  0.00    +0.000 A 
ATOM     28  N   UNL     1      47.505   8.579  20.059  0.00  0.00    +0.000 N 
ATOM     29  C   UNL     1      47.801   7.524  19.228  0.00  0.00    +0.000 A 
ATOM     30  O   UNL     1      47.141   6.491  19.254  0.00  0.00    +0.000 OA
ATOM     31  C   UNL     1      48.954   7.737  18.374  0.00  0.00    +0.000 A 
ATOM     32  H   UNL     1      46.707   8.457  20.664  0.00  0.00    +0.000 HD
ENDBRANCH  19  22
ENDBRANCH   1  20
TORSDOF 7
ENDMDL
MODEL 5
REMARK VINA RESULT:    -7.348      3.035      4.160
REMARK INTER + INTRA:         -11.306
REMARK INTER:                 -10.225
REMARK INTRA:                  -1.082
REMARK UNBOUND:                -1.166
REMARK  Name = 
REMARK  7 active torsions:
REMARK  status: ('A' for Active; 'I' for Inactive)
REMARK    1  A    between atoms: C_2  and  C_20
REMARK    2  A    between atoms: N_3  and  C_4
REMARK    3  A    between atoms: C_4  and  C_5
REMARK    4  A    between atoms: C_8  and  C_9
REMARK    5  A    between atoms: C_9  and  C_10
REMARK    6  A    between atoms: C_10  and  O_11
REMARK    7  A    between atoms: C_10  and  C_12
REMARK                            x       y       z     vdW  Elec       q    Type
REMARK                         _______ _______ _______ _____ _____    ______ ____
ROOT
ATOM      1  C   UNL     1      47.978   4.685  16.194  0.00  0.00    +0.000 C 
ENDROOT
BRANCH   1   2
ATOM      2  C   UNL     1      47.401   4.916  14.826  0.00  0.00    +0.000 A 
ATOM      3  C   UNL     1      46.725   3.884  14.167  0.00  0.00    +0.000 A 
ATOM      4  C   UNL     1      46.133   4.101  12.921  0.00  0.00    +0.000 A 
ATOM      5  C   UNL     1      46.210   5.352  12.296  0.00  0.00    +0.000 A 
ATOM      6  C   UNL     1      46.935   6.370  12.937  0.00  0.00    +0.000 A 
ATOM      7  C   UNL     1      47.529   6.153  14.185  0.00  0.00    +0.000 A 
BRANCH   5   8
ATOM      8  C   UNL     1      45.515   5.674  10.983  0.00  0.00    +0.000 C 
BRANCH   8   9
ATOM      9  C   UNL     1      44.563   4.599  10.415  0.00  0.00    +0.000 C 
BRANCH   9  10
ATOM     10  C   UNL     1      45.185   3.764   9.310  0.00  0.00    +0.000 A 
ATOM     11  C   UNL     1      45.885   4.400   8.285  0.00  0.00    +0.000 A 
ATOM     12  C   UNL     1      46.539   3.628   7.329  0.00  0.00    +0.000 A 
ATOM     13  C   UNL     1      46.487   2.244   7.424  0.00  0.00    +0.000 A 
ATOM     14  C   UNL     1      45.785   1.687   8.479  0.00  0.00    +0.000 A 
ATOM     15  N   UNL     1      45.144   2.410   9.425  0.00  0.00    +0.000 NA
ENDBRANCH   9  10
BRANCH   9  16
ATOM     16  O   UNL     1      43.387   5.210   9.867  0.00  0.00    +0.000 OA
ATOM     17  H   UNL     1      43.651   5.545   8.990  0.00  0.00    +0.000 HD
ENDBRANCH   9  16
ENDBRANCH   8   9
ENDBRANCH   5   8
ENDBRANCH   1   2
BRANCH   1  20
ATOM     18  O   UNL     1      49.551   5.603  18.262  0.00  0.00    +0.000 OA
ATOM     19  C   UNL     1      48.472   6.159  18.069  0.00  0.00    +0.000 C 
ATOM     20  N   UNL     1      47.588   5.717  17.120  0.00  0.00    +0.000 N 
ATOM     21  H   UNL     1      46.806   6.305  16.848  0.00  0.00    +0.000 HD
BRANCH  19  22
ATOM     22  C   UNL     1      48.059   7.316  18.870  0.00  0.00    +0.000 A 
ATOM     23  C   UNL     1      47.848   7.166  20.233  0.00  0.00    +0.000 A 
ATOM     24  S   UNL     1      47.396   8.611  21.016  0.00  0.00    +0.000 S 
ATOM     25  C   UNL     1      47.510   9.497  19.569  0.00  0.00    +0.000 A 
ATOM     26  N   UNL     1      47.295  10.839  19.551  0.00  0.00    +0.000 NA
ATOM     27  C   UNL     1      47.455  11.390  18.395  0.00  0.00    +0.000 A 
ATOM     28  N   UNL     1      47.798  10.717  17.250  0.00  0.00    +0.000 N 
ATOM     29  C   UNL     1      47.981   9.354  17.210  0.00  0.00    +0.000 A 
ATOM     30  O   UNL     1      48.206   8.775  16.154  0.00  0.00    +0.000 OA
ATOM     31  C   UNL     1      47.851   8.693  18.495  0.00  0.00    +0.000 A 
ATOM     32  H   UNL     1      47.883  11.202  16.369  0.00  0.00    +0.000 HD
ENDBRANCH  19  22
ENDBRANCH   1  20
TORSDOF 7
ENDMDL
MODEL 6
REMARK VINA RESULT:    -7.138      2.541      3.489
REMARK INTER + INTRA:         -11.017
REMARK INTER:                  -9.959
REMARK INTRA:                  -1.058
REMARK UNBOUND:                -1.166
REMARK  Name = 
REMARK  7 active torsions:
REMARK  status: ('A' for Active; 'I' for Inactive)
REMARK    1  A    between atoms: C_2  and  C_20
REMARK    2  A    between atoms: N_3  and  C_4
REMARK    3  A    between atoms: C_4  and  C_5
REMARK    4  A    between atoms: C_8  and  C_9
REMARK    5  A    between atoms: C_9  and  C_10
REMARK    6  A    between atoms: C_10  and  O_11
REMARK    7  A    between atoms: C_10  and  C_12
REMARK                            x       y       z     vdW  Elec       q    Type
REMARK                         _______ _______ _______ _____ _____    ______ ____
ROOT
ATOM      1  C   UNL     1      47.182   4.414  15.812  0.00  0.00    +0.000 C 
ENDROOT
BRANCH   1   2
ATOM      2  C   UNL     1      46.760   4.631  14.386  0.00  0.00    +0.000 A 
ATOM      3  C   UNL     1      46.077   3.625  13.696  0.00  0.00    +0.000 A 
ATOM      4  C   UNL     1      45.629   3.833  12.390  0.00  0.00    +0.000 A 
ATOM      5  C   UNL     1      45.859   5.050  11.736  0.00  0.00    +0.000 A 
ATOM      6  C   UNL     1      46.592   6.038  12.413  0.00  0.00    +0.000 A 
ATOM      7  C   UNL     1      47.043   5.829  13.721  0.00  0.00    +0.000 A 
BRANCH   5   8
ATOM      8  C   UNL     1      45.323   5.367  10.350  0.00  0.00    +0.000 C 
BRANCH   8   9
ATOM      9  C   UNL     1      44.627   4.218   9.590  0.00  0.00    +0.000 C 
BRANCH   9  10
ATOM     10  C   UNL     1      45.563   3.442   8.680  0.00  0.00    +0.000 A 
ATOM     11  C   UNL     1      45.636   2.054   8.800  0.00  0.00    +0.000 A 
ATOM     12  C   UNL     1      46.417   1.335   7.899  0.00  0.00    +0.000 A 
ATOM     13  C   UNL     1      47.096   2.015   6.898  0.00  0.00    +0.000 A 
ATOM     14  C   UNL     1      46.962   3.392   6.836  0.00  0.00    +0.000 A 
ATOM     15  N   UNL     1      46.207   4.117   7.692  0.00  0.00    +0.000 NA
ENDBRANCH   9  10
BRANCH   9  16
ATOM     16  O   UNL     1      43.570   4.729   8.766  0.00  0.00    +0.000 OA
ATOM     17  H   UNL     1      43.792   5.664   8.604  0.00  0.00    +0.000 HD
ENDBRANCH   9  16
ENDBRANCH   8   9
ENDBRANCH   5   8
ENDBRANCH   1   2
BRANCH   1  20
ATOM     18  O   UNL     1      47.351   5.401  18.380  0.00  0.00    +0.000 OA
ATOM     19  C   UNL     1      48.190   5.774  17.563  0.00  0.00    +0.000 C 
ATOM     20  N   UNL     1      48.134   5.404  16.244  0.00  0.00    +0.000 N 
ATOM     21  H   UNL     1      48.938   5.560  15.644  0.00  0.00    +0.000 HD
BRANCH  19  22
ATOM     22  C   UNL     1      49.286   6.667  17.953  0.00  0.00    +0.000 A 
ATOM     23  C   UNL     1      48.997   7.926  18.460  0.00  0.00    +0.000 A 
ATOM     24  S   UNL     1      50.383   8.824  18.885  0.00  0.00    +0.000 S 
ATOM     25  C   UNL     1      51.415   7.545  18.448  0.00  0.00    +0.000 A 
ATOM     26  N   UNL     1      52.760   7.642  18.616  0.00  0.00    +0.000 NA
ATOM     27  C   UNL     1      53.418   6.583  18.281  0.00  0.00    +0.000 A 
ATOM     28  N   UNL     1      52.853   5.438  17.780  0.00  0.00    +0.000 N 
ATOM     29  C   UNL     1      51.502   5.311  17.550  0.00  0.00    +0.000 A 
ATOM     30  O   UNL     1      51.041   4.304  17.024  0.00  0.00    +0.000 OA
ATOM     31  C   UNL     1      50.714   6.461  17.948  0.00  0.00    +0.000 A 
ATOM     32  H   UNL     1      53.425   4.652  17.512  0.00  0.00    +0.000 HD
ENDBRANCH  19  22
ENDBRANCH   1  20
TORSDOF 7
ENDMDL
MODEL 7
REMARK VINA RESULT:    -7.073      3.126      4.464
REMARK INTER + INTRA:         -10.927
REMARK INTER:                  -9.758
REMARK INTRA:                  -1.169
REMARK UNBOUND:                -1.166
REMARK  Name = 
REMARK  7 active torsions:
REMARK  status: ('A' for Active; 'I' for Inactive)
REMARK    1  A    between atoms: C_2  and  C_20
REMARK    2  A    between atoms: N_3  and  C_4
REMARK    3  A    between atoms: C_4  and  C_5
REMARK    4  A    between atoms: C_8  and  C_9
REMARK    5  A    between atoms: C_9  and  C_10
REMARK    6  A    between atoms: C_10  and  O_11
REMARK    7  A    between atoms: C_10  and  C_12
REMARK                            x       y       z     vdW  Elec       q    Type
REMARK                         _______ _______ _______ _____ _____    ______ ____
ROOT
ATOM      1  C   UNL     1      47.682   6.606  14.371  0.00  0.00    +0.000 C 
ENDROOT
BRANCH   1   2
ATOM      2  C   UNL     1      46.834   5.991  13.293  0.00  0.00    +0.000 A 
ATOM      3  C   UNL     1      46.689   6.638  12.061  0.00  0.00    +0.000 A 
ATOM      4  C   UNL     1      45.953   6.052  11.030  0.00  0.00    +0.000 A 
ATOM      5  C   UNL     1      45.335   4.808  11.205  0.00  0.00    +0.000 A 
ATOM      6  C   UNL     1      45.438   4.186  12.460  0.00  0.00    +0.000 A 
ATOM      7  C   UNL     1      46.175   4.774  13.494  0.00  0.00    +0.000 A 
BRANCH   5   8
ATOM      8  C   UNL     1      44.593   4.080  10.095  0.00  0.00    +0.000 C 
BRANCH   8   9
ATOM      9  C   UNL     1      45.007   2.619   9.820  0.00  0.00    +0.000 C 
BRANCH   9  10
ATOM     10  C   UNL     1      45.730   2.434   8.498  0.00  0.00    +0.000 A 
ATOM     11  C   UNL     1      45.822   3.509   7.614  0.00  0.00    +0.000 A 
ATOM     12  C   UNL     1      46.571   3.368   6.449  0.00  0.00    +0.000 A 
ATOM     13  C   UNL     1      47.216   2.164   6.199  0.00  0.00    +0.000 A 
ATOM     14  C   UNL     1      47.089   1.149   7.132  0.00  0.00    +0.000 A 
ATOM     15  N   UNL     1      46.373   1.258   8.274  0.00  0.00    +0.000 NA
ENDBRANCH   9  10
BRANCH   9  16
ATOM     16  O   UNL     1      43.853   1.767   9.788  0.00  0.00    +0.000 OA
ATOM     17  H   UNL     1      44.121   0.945  10.239  0.00  0.00    +0.000 HD
ENDBRANCH   9  16
ENDBRANCH   8   9
ENDBRANCH   5   8
ENDBRANCH   1   2
BRANCH   1  20
ATOM     18  O   UNL     1      48.851   9.052  14.863  0.00  0.00    +0.000 OA
ATOM     19  C   UNL     1      49.501   8.218  14.237  0.00  0.00    +0.000 C 
ATOM     20  N   UNL     1      48.971   7.008  13.873  0.00  0.00    +0.000 N 
ATOM     21  H   UNL     1      49.585   6.271  13.538  0.00  0.00    +0.000 HD
BRANCH  19  22
ATOM     22  C   UNL     1      50.881   8.488  13.819  0.00  0.00    +0.000 A 
ATOM     23  C   UNL     1      51.816   8.894  14.761  0.00  0.00    +0.000 A 
ATOM     24  S   UNL     1      53.373   9.142  14.113  0.00  0.00    +0.000 S 
ATOM     25  C   UNL     1      52.863   8.672  12.561  0.00  0.00    +0.000 A 
ATOM     26  N   UNL     1      53.740   8.610  11.524  0.00  0.00    +0.000 NA
ATOM     27  C   UNL     1      53.227   8.199  10.414  0.00  0.00    +0.000 A 
ATOM     28  N   UNL     1      51.910   7.858  10.241  0.00  0.00    +0.000 N 
ATOM     29  C   UNL     1      50.977   7.948  11.248  0.00  0.00    +0.000 A 
ATOM     30  O   UNL     1      49.792   7.713  11.037  0.00  0.00    +0.000 OA
ATOM     31  C   UNL     1      51.513   8.368  12.528  0.00  0.00    +0.000 A 
ATOM     32  H   UNL     1      51.563   7.568   9.339  0.00  0.00    +0.000 HD
ENDBRANCH  19  22
ENDBRANCH   1  20
TORSDOF 7
ENDMDL
MODEL 8
REMARK VINA RESULT:    -7.011      1.732      2.317
REMARK INTER + INTRA:         -10.842
REMARK INTER:                  -9.801
REMARK INTRA:                  -1.041
REMARK UNBOUND:                -1.166
REMARK  Name = 
REMARK  7 active torsions:
REMARK  status: ('A' for Active; 'I' for Inactive)
REMARK    1  A    between atoms: C_2  and  C_20
REMARK    2  A    between atoms: N_3  and  C_4
REMARK    3  A    between atoms: C_4  and  C_5
REMARK    4  A    between atoms: C_8  and  C_9
REMARK    5  A    between atoms: C_9  and  C_10
REMARK    6  A    between atoms: C_10  and  O_11
REMARK    7  A    between atoms: C_10  and  C_12
REMARK                            x       y       z     vdW  Elec       q    Type
REMARK                         _______ _______ _______ _____ _____    ______ ____
ROOT
ATOM      1  C   UNL     1      48.800   8.131  13.916  0.00  0.00    +0.000 C 
ENDROOT
BRANCH   1   2
ATOM      2  C   UNL     1      47.578   7.506  13.302  0.00  0.00    +0.000 A 
ATOM      3  C   UNL     1      46.448   8.287  13.041  0.00  0.00    +0.000 A 
ATOM      4  C   UNL     1      45.327   7.734  12.419  0.00  0.00    +0.000 A 
ATOM      5  C   UNL     1      45.303   6.383  12.049  0.00  0.00    +0.000 A 
ATOM      6  C   UNL     1      46.419   5.590  12.361  0.00  0.00    +0.000 A 
ATOM      7  C   UNL     1      47.542   6.144  12.986  0.00  0.00    +0.000 A 
BRANCH   5   8
ATOM      8  C   UNL     1      44.149   5.744  11.293  0.00  0.00    +0.000 C 
BRANCH   8   9
ATOM      9  C   UNL     1      44.122   4.202  11.235  0.00  0.00    +0.000 C 
BRANCH   9  10
ATOM     10  C   UNL     1      44.717   3.636   9.957  0.00  0.00    +0.000 A 
ATOM     11  C   UNL     1      45.323   4.500   9.045  0.00  0.00    +0.000 A 
ATOM     12  C   UNL     1      45.956   3.968   7.925  0.00  0.00    +0.000 A 
ATOM     13  C   UNL     1      45.977   2.591   7.747  0.00  0.00    +0.000 A 
ATOM     14  C   UNL     1      45.366   1.799   8.705  0.00  0.00    +0.000 A 
ATOM     15  N   UNL     1      44.748   2.286   9.805  0.00  0.00    +0.000 NA
ENDBRANCH   9  10
BRANCH   9  16
ATOM     16  O   UNL     1      42.773   3.720  11.317  0.00  0.00    +0.000 OA
ATOM     17  H   UNL     1      42.541   3.437  10.414  0.00  0.00    +0.000 HD
ENDBRANCH   9  16
ENDBRANCH   8   9
ENDBRANCH   5   8
ENDBRANCH   1   2
BRANCH   1  20
ATOM     18  O   UNL     1      47.940   9.235  16.290  0.00  0.00    +0.000 OA
ATOM     19  C   UNL     1      48.543   8.165  16.337  0.00  0.00    +0.000 C 
ATOM     20  N   UNL     1      49.082   7.585  15.218  0.00  0.00    +0.000 N 
ATOM     21  H   UNL     1      49.394   6.620  15.254  0.00  0.00    +0.000 HD
BRANCH  19  22
ATOM     22  C   UNL     1      48.746   7.463  17.609  0.00  0.00    +0.000 A 
ATOM     23  C   UNL     1      49.002   8.192  18.761  0.00  0.00    +0.000 A 
ATOM     24  S   UNL     1      49.189   7.224  20.152  0.00  0.00    +0.000 S 
ATOM     25  C   UNL     1      48.889   5.801  19.271  0.00  0.00    +0.000 A 
ATOM     26  N   UNL     1      48.850   4.591  19.888  0.00  0.00    +0.000 NA
ATOM     27  C   UNL     1      48.572   3.602  19.108  0.00  0.00    +0.000 A 
ATOM     28  N   UNL     1      48.343   3.711  17.760  0.00  0.00    +0.000 N 
ATOM     29  C   UNL     1      48.417   4.907  17.084  0.00  0.00    +0.000 A 
ATOM     30  O   UNL     1      48.288   4.957  15.866  0.00  0.00    +0.000 OA
ATOM     31  C   UNL     1      48.688   6.057  17.926  0.00  0.00    +0.000 A 
ATOM     32  H   UNL     1      48.155   2.895  17.197  0.00  0.00    +0.000 HD
ENDBRANCH  19  22
ENDBRANCH   1  20
TORSDOF 7
ENDMDL
MODEL 9
REMARK VINA RESULT:    -7.009      4.411      9.620
REMARK INTER + INTRA:         -10.838
REMARK INTER:                  -9.894
REMARK INTRA:                  -0.944
REMARK UNBOUND:                -1.166
REMARK  Name = 
REMARK  7 active torsions:
REMARK  status: ('A' for Active; 'I' for Inactive)
REMARK    1  A    between atoms: C_2  and  C_20
REMARK    2  A    between atoms: N_3  and  C_4
REMARK    3  A    between atoms: C_4  and  C_5
REMARK    4  A    between atoms: C_8  and  C_9
REMARK    5  A    between atoms: C_9  and  C_10
REMARK    6  A    between atoms: C_10  and  O_11
REMARK    7  A    between atoms: C_10  and  C_12
REMARK                            x       y       z     vdW  Elec       q    Type
REMARK                         _______ _______ _______ _____ _____    ______ ____
ROOT
ATOM      1  C   UNL     1      47.188   3.548  16.729  0.00  0.00    +0.000 C 
ENDROOT
BRANCH   1   2
ATOM      2  C   UNL     1      48.647   3.678  17.065  0.00  0.00    +0.000 A 
ATOM      3  C   UNL     1      49.448   2.535  17.165  0.00  0.00    +0.000 A 
ATOM      4  C   UNL     1      50.817   2.644  17.419  0.00  0.00    +0.000 A 
ATOM      5  C   UNL     1      51.420   3.897  17.589  0.00  0.00    +0.000 A 
ATOM      6  C   UNL     1      50.603   5.038  17.541  0.00  0.00    +0.000 A 
ATOM      7  C   UNL     1      49.231   4.930  17.287  0.00  0.00    +0.000 A 
BRANCH   5   8
ATOM      8  C   UNL     1      52.916   4.085  17.783  0.00  0.00    +0.000 C 
BRANCH   8   9
ATOM      9  C   UNL     1      53.490   3.727  19.170  0.00  0.00    +0.000 C 
BRANCH   9  10
ATOM     10  C   UNL     1      54.152   2.361  19.216  0.00  0.00    +0.000 A 
ATOM     11  C   UNL     1      54.289   1.628  18.037  0.00  0.00    +0.000 A 
ATOM     12  C   UNL     1      54.984   0.423  18.064  0.00  0.00    +0.000 A 
ATOM     13  C   UNL     1      55.533  -0.017  19.261  0.00  0.00    +0.000 A 
ATOM     14  C   UNL     1      55.367   0.773  20.385  0.00  0.00    +0.000 A 
ATOM     15  N   UNL     1      54.702   1.951  20.389  0.00  0.00    +0.000 NA
ENDBRANCH   9  10
BRANCH   9  16
ATOM     16  O   UNL     1      52.451   3.722  20.158  0.00  0.00    +0.000 OA
ATOM     17  H   UNL     1      51.742   4.285  19.796  0.00  0.00    +0.000 HD
ENDBRANCH   9  16
ENDBRANCH   8   9
ENDBRANCH   5   8
ENDBRANCH   1   2
BRANCH   1  20
ATOM     18  O   UNL     1      47.137   3.179  13.998  0.00  0.00    +0.000 OA
ATOM     19  C   UNL     1      46.705   4.239  14.445  0.00  0.00    +0.000 C 
ATOM     20  N   UNL     1      46.768   4.545  15.779  0.00  0.00    +0.000 N 
ATOM     21  H   UNL     1      46.231   5.327  16.141  0.00  0.00    +0.000 HD
BRANCH  19  22
ATOM     22  C   UNL     1      46.120   5.253  13.561  0.00  0.00    +0.000 A 
ATOM     23  C   UNL     1      46.869   6.366  13.205  0.00  0.00    +0.000 A 
ATOM     24  S   UNL     1      46.049   7.431  12.156  0.00  0.00    +0.000 S 
ATOM     25  C   UNL     1      44.683   6.421  12.106  0.00  0.00    +0.000 A 
ATOM     26  N   UNL     1      43.611   6.731  11.330  0.00  0.00    +0.000 NA
ATOM     27  C   UNL     1      42.662   5.857  11.355  0.00  0.00    +0.000 A 
ATOM     28  N   UNL     1      42.682   4.705  12.099  0.00  0.00    +0.000 N 
ATOM     29  C   UNL     1      43.724   4.372  12.933  0.00  0.00    +0.000 A 
ATOM     30  O   UNL     1      43.672   3.375  13.646  0.00  0.00    +0.000 OA
ATOM     31  C   UNL     1      44.834   5.304  12.910  0.00  0.00    +0.000 A 
ATOM     32  H   UNL     1      41.896   4.072  12.096  0.00  0.00    +0.000 HD
ENDBRANCH  19  22
ENDBRANCH   1  20
TORSDOF 7
ENDMDL
