MODEL 1
REMARK VINA RESULT:    -8.481      0.000      0.000
REMARK INTER + INTRA:         -10.966
REMARK INTER:                 -10.960
REMARK INTRA:                  -0.006
REMARK UNBOUND:                -0.006
REMARK  Name = 
REMARK  5 active torsions:
REMARK  status: ('A' for Active; 'I' for Inactive)
REMARK    1  A    between atoms: C_7  and  C_8
REMARK    2  A    between atoms: N_10  and  C_11
REMARK    3  A    between atoms: C_11  and  C_12
REMARK    4  A    between atoms: C_15  and  O_16
REMARK    5  A    between atoms: O_16  and  C_17
REMARK                            x       y       z     vdW  Elec       q    Type
REMARK                         _______ _______ _______ _____ _____    ______ ____
ROOT
ATOM      1  C   UNL     1      47.778   6.729  13.630  0.00  0.00    +0.000 C 
ATOM      2  O   UNL     1      48.395   6.926  12.585  0.00  0.00    +0.000 OA
ATOM      3  N   UNL     1      46.408   6.784  13.665  0.00  0.00    +0.000 N 
ATOM      4  H   UNL     1      45.902   6.628  14.533  0.00  0.00    +0.000 HD
ENDROOT
BRANCH   1  11
ATOM      5  N   UNL     1      48.339   2.783  19.050  0.00  0.00    +0.000 N 
ATOM      6  C   UNL     1      48.352   3.695  18.047  0.00  0.00    +0.000 A 
ATOM      7  N   UNL     1      49.257   4.623  18.001  0.00  0.00    +0.000 NA
ATOM      8  C   UNL     1      49.182   5.456  16.928  0.00  0.00    +0.000 A 
ATOM      9  S   UNL     1      50.312   6.709  16.717  0.00  0.00    +0.000 S 
ATOM     10  C   UNL     1      49.593   7.186  15.248  0.00  0.00    +0.000 A 
ATOM     11  C   UNL     1      48.487   6.425  14.889  0.00  0.00    +0.000 A 
ATOM     12  C   UNL     1      48.255   5.415  15.901  0.00  0.00    +0.000 A 
ATOM     13  C   UNL     1      47.247   4.379  16.007  0.00  0.00    +0.000 A 
ATOM     14  O   UNL     1      46.345   4.207  15.194  0.00  0.00    +0.000 OA
ATOM     15  N   UNL     1      47.366   3.568  17.109  0.00  0.00    +0.000 N 
ATOM     16  H   UNL     1      48.923   3.036  19.841  0.00  0.00    +0.000 HD
ATOM     17  H   UNL     1      47.468   2.338  19.301  0.00  0.00    +0.000 HD
ATOM     18  H   UNL     1      46.694   2.823  17.175  0.00  0.00    +0.000 HD
ENDBRANCH   1  11
BRANCH   3  19
ATOM     19  C   UNL     1      45.636   7.069  12.482  0.00  0.00    +0.000 C 
BRANCH  19  20
ATOM     20  C   UNL     1      45.437   5.836  11.637  0.00  0.00    +0.000 A 
ATOM     21  C   UNL     1      45.084   4.617  12.231  0.00  0.00    +0.000 A 
ATOM     22  C   UNL     1      44.907   3.467  11.453  0.00  0.00    +0.000 A 
ATOM     23  C   UNL     1      45.038   3.533  10.064  0.00  0.00    +0.000 A 
ATOM     24  C   UNL     1      45.440   4.731   9.471  0.00  0.00    +0.000 A 
ATOM     25  C   UNL     1      45.642   5.874  10.250  0.00  0.00    +0.000 A 
BRANCH  23  26
ATOM     26  O   UNL     1      44.875   2.463   9.212  0.00  0.00    +0.000 OA
BRANCH  26  27
ATOM     27  C   UNL     1      45.754   2.263   8.187  0.00  0.00    +0.000 A 
ATOM     28  C   UNL     1      46.536   1.148   7.972  0.00  0.00    +0.000 A 
ATOM     29  N   UNL     1      47.410   1.025   6.947  0.00  0.00    +0.000 NA
ATOM     30  C   UNL     1      47.451   2.057   6.091  0.00  0.00    +0.000 A 
ATOM     31  N   UNL     1      46.694   3.163   6.154  0.00  0.00    +0.000 NA
ATOM     32  C   UNL     1      45.850   3.232   7.208  0.00  0.00    +0.000 A 
ENDBRANCH  26  27
ENDBRANCH  23  26
ENDBRANCH  19  20
ENDBRANCH   3  19
TORSDOF 5
ENDMDL
MODEL 2
REMARK VINA RESULT:    -8.209      2.291      3.834
REMARK INTER + INTRA:         -10.614
REMARK INTER:                  -9.720
REMARK INTRA:                  -0.894
REMARK UNBOUND:                -0.006
REMARK  Name = 
REMARK  5 active torsions:
REMARK  status: ('A' for Active; 'I' for Inactive)
REMARK    1  A    between atoms: C_7  and  C_8
REMARK    2  A    between atoms: N_10  and  C_11
REMARK    3  A    between atoms: C_11  and  C_12
REMARK    4  A    between atoms: C_15  and  O_16
REMARK    5  A    between atoms: O_16  and  C_17
REMARK                            x       y       z     vdW  Elec       q    Type
REMARK                         _______ _______ _______ _____ _____    ______ ____
ROOT
ATOM      1  C   UNL     1      47.130   5.398  13.936  0.00  0.00    +0.000 C 
ATOM      2  O   UNL     1      47.240   4.184  14.095  0.00  0.00    +0.000 OA
ATOM      3  N   UNL     1      45.946   5.955  13.526  0.00  0.00    +0.000 N 
ATOM      4  H   UNL     1      45.862   6.958  13.387  0.00  0.00    +0.000 HD
ENDROOT
BRANCH   1  11
ATOM      5  N   UNL     1      51.279  10.120  11.540  0.00  0.00    +0.000 N 
ATOM      6  C   UNL     1      50.563   9.161  12.175  0.00  0.00    +0.000 A 
ATOM      7  N   UNL     1      50.784   8.879  13.421  0.00  0.00    +0.000 NA
ATOM      8  C   UNL     1      49.977   7.920  13.953  0.00  0.00    +0.000 A 
ATOM      9  S   UNL     1      50.131   7.457  15.582  0.00  0.00    +0.000 S 
ATOM     10  C   UNL     1      48.837   6.357  15.449  0.00  0.00    +0.000 A 
ATOM     11  C   UNL     1      48.268   6.305  14.181  0.00  0.00    +0.000 A 
ATOM     12  C   UNL     1      48.965   7.230  13.310  0.00  0.00    +0.000 A 
ATOM     13  C   UNL     1      48.770   7.558  11.912  0.00  0.00    +0.000 A 
ATOM     14  O   UNL     1      47.928   7.036  11.190  0.00  0.00    +0.000 OA
ATOM     15  N   UNL     1      49.612   8.528  11.424  0.00  0.00    +0.000 N 
ATOM     16  H   UNL     1      52.118  10.402  12.038  0.00  0.00    +0.000 HD
ATOM     17  H   UNL     1      51.388  10.074  10.537  0.00  0.00    +0.000 HD
ATOM     18  H   UNL     1      49.463   8.791  10.466  0.00  0.00    +0.000 HD
ENDBRANCH   1  11
BRANCH   3  19
ATOM     19  C   UNL     1      44.782   5.143  13.269  0.00  0.00    +0.000 C 
BRANCH  19  20
ATOM     20  C   UNL     1      44.766   4.624  11.854  0.00  0.00    +0.000 A 
ATOM     21  C   UNL     1      44.243   3.356  11.569  0.00  0.00    +0.000 A 
ATOM     22  C   UNL     1      44.235   2.864  10.259  0.00  0.00    +0.000 A 
ATOM     23  C   UNL     1      44.710   3.654   9.210  0.00  0.00    +0.000 A 
ATOM     24  C   UNL     1      45.279   4.897   9.493  0.00  0.00    +0.000 A 
ATOM     25  C   UNL     1      45.312   5.378  10.805  0.00  0.00    +0.000 A 
BRANCH  23  26
ATOM     26  O   UNL     1      44.734   3.267   7.889  0.00  0.00    +0.000 OA
BRANCH  26  27
ATOM     27  C   UNL     1      45.876   2.752   7.347  0.00  0.00    +0.000 A 
ATOM     28  C   UNL     1      46.572   1.642   7.779  0.00  0.00    +0.000 A 
ATOM     29  N   UNL     1      47.717   1.200   7.211  0.00  0.00    +0.000 NA
ATOM     30  C   UNL     1      48.138   1.889   6.140  0.00  0.00    +0.000 A 
ATOM     31  N   UNL     1      47.516   2.939   5.585  0.00  0.00    +0.000 NA
ATOM     32  C   UNL     1      46.384   3.340   6.206  0.00  0.00    +0.000 A 
ENDBRANCH  26  27
ENDBRANCH  23  26
ENDBRANCH  19  20
ENDBRANCH   3  19
TORSDOF 5
ENDMDL
MODEL 3
REMARK VINA RESULT:    -7.965      1.579      2.242
REMARK INTER + INTRA:         -10.299
REMARK INTER:                  -9.491
REMARK INTRA:                  -0.807
REMARK UNBOUND:                -0.006
REMARK  Name = 
REMARK  5 active torsions:
REMARK  status: ('A' for Active; 'I' for Inactive)
REMARK    1  A    between atoms: C_7  and  C_8
REMARK    2  A    between atoms: N_10  and  C_11
REMARK    3  A    between atoms: C_11  and  C_12
REMARK    4  A    between atoms: C_15  and  O_16
REMARK    5  A    between atoms: O_16  and  C_17
REMARK                            x       y       z     vdW  Elec       q    Type
REMARK                         _______ _______ _______ _____ _____    ______ ____
ROOT
ATOM      1  C   UNL     1      48.904   7.861  15.166  0.00  0.00    +0.000 C 
ATOM      2  O   UNL     1      49.862   8.025  14.412  0.00  0.00    +0.000 OA
ATOM      3  N   UNL     1      47.622   8.107  14.748  0.00  0.00    +0.000 N 
ATOM      4  H   UNL     1      46.834   7.977  15.377  0.00  0.00    +0.000 HD
ENDROOT
BRANCH   1  11
ATOM      5  N   UNL     1      48.354   2.845  19.616  0.00  0.00    +0.000 N 
ATOM      6  C   UNL     1      48.503   3.968  18.872  0.00  0.00    +0.000 A 
ATOM      7  N   UNL     1      49.032   5.038  19.379  0.00  0.00    +0.000 NA
ATOM      8  C   UNL     1      49.157   6.088  18.521  0.00  0.00    +0.000 A 
ATOM      9  S   UNL     1      49.852   7.553  19.034  0.00  0.00    +0.000 S 
ATOM     10  C   UNL     1      49.685   8.238  17.483  0.00  0.00    +0.000 A 
ATOM     11  C   UNL     1      49.097   7.390  16.552  0.00  0.00    +0.000 A 
ATOM     12  C   UNL     1      48.783   6.128  17.190  0.00  0.00    +0.000 A 
ATOM     13  C   UNL     1      48.173   4.920  16.673  0.00  0.00    +0.000 A 
ATOM     14  O   UNL     1      47.773   4.786  15.521  0.00  0.00    +0.000 OA
ATOM     15  N   UNL     1      48.067   3.892  17.578  0.00  0.00    +0.000 N 
ATOM     16  H   UNL     1      48.464   2.997  20.613  0.00  0.00    +0.000 HD
ATOM     17  H   UNL     1      47.629   2.184  19.373  0.00  0.00    +0.000 HD
ATOM     18  H   UNL     1      47.679   3.037  17.222  0.00  0.00    +0.000 HD
ENDBRANCH   1  11
BRANCH   3  19
ATOM     19  C   UNL     1      47.342   8.563  13.409  0.00  0.00    +0.000 C 
BRANCH  19  20
ATOM     20  C   UNL     1      46.485   7.579  12.653  0.00  0.00    +0.000 A 
ATOM     21  C   UNL     1      45.242   7.970  12.139  0.00  0.00    +0.000 A 
ATOM     22  C   UNL     1      44.438   7.059  11.445  0.00  0.00    +0.000 A 
ATOM     23  C   UNL     1      44.887   5.756  11.218  0.00  0.00    +0.000 A 
ATOM     24  C   UNL     1      46.101   5.346  11.772  0.00  0.00    +0.000 A 
ATOM     25  C   UNL     1      46.894   6.248  12.488  0.00  0.00    +0.000 A 
BRANCH  23  26
ATOM     26  O   UNL     1      44.177   4.791  10.540  0.00  0.00    +0.000 OA
BRANCH  26  27
ATOM     27  C   UNL     1      44.807   3.987   9.634  0.00  0.00    +0.000 A 
ATOM     28  C   UNL     1      44.929   2.614   9.687  0.00  0.00    +0.000 A 
ATOM     29  N   UNL     1      45.592   1.879   8.766  0.00  0.00    +0.000 NA
ATOM     30  C   UNL     1      46.108   2.566   7.736  0.00  0.00    +0.000 A 
ATOM     31  N   UNL     1      45.999   3.888   7.538  0.00  0.00    +0.000 NA
ATOM     32  C   UNL     1      45.336   4.568   8.499  0.00  0.00    +0.000 A 
ENDBRANCH  26  27
ENDBRANCH  23  26
ENDBRANCH  19  20
ENDBRANCH   3  19
TORSDOF 5
ENDMDL
MODEL 4
REMARK VINA RESULT:    -7.916      3.760      8.091
REMARK INTER + INTRA:         -10.235
REMARK INTER:                  -9.435
REMARK INTRA:                  -0.800
REMARK UNBOUND:                -0.006
REMARK  Name = 
REMARK  5 active torsions:
REMARK  status: ('A' for Active; 'I' for Inactive)
REMARK    1  A    between atoms: C_7  and  C_8
REMARK    2  A    between atoms: N_10  and  C_11
REMARK    3  A    between atoms: C_11  and  C_12
REMARK    4  A    between atoms: C_15  and  O_16
REMARK    5  A    between atoms: O_16  and  C_17
REMARK                            x       y       z     vdW  Elec       q    Type
REMARK                         _______ _______ _______ _____ _____    ______ ____
ROOT
ATOM      1  C   UNL     1      47.889   6.911  13.300  0.00  0.00    +0.000 C 
ATOM      2  O   UNL     1      48.955   6.470  12.875  0.00  0.00    +0.000 OA
ATOM      3  N   UNL     1      47.854   7.789  14.353  0.00  0.00    +0.000 N 
ATOM      4  H   UNL     1      46.970   8.144  14.706  0.00  0.00    +0.000 HD
ENDROOT
BRANCH   1  11
ATOM      5  N   UNL     1      43.454   2.016  12.024  0.00  0.00    +0.000 N 
ATOM      6  C   UNL     1      44.242   3.109  12.159  0.00  0.00    +0.000 A 
ATOM      7  N   UNL     1      43.854   4.269  11.726  0.00  0.00    +0.000 NA
ATOM      8  C   UNL     1      44.722   5.294  11.951  0.00  0.00    +0.000 A 
ATOM      9  S   UNL     1      44.344   6.877  11.461  0.00  0.00    +0.000 S 
ATOM     10  C   UNL     1      45.799   7.484  12.106  0.00  0.00    +0.000 A 
ATOM     11  C   UNL     1      46.603   6.514  12.693  0.00  0.00    +0.000 A 
ATOM     12  C   UNL     1      45.952   5.225  12.580  0.00  0.00    +0.000 A 
ATOM     13  C   UNL     1      46.356   3.906  13.024  0.00  0.00    +0.000 A 
ATOM     14  O   UNL     1      47.418   3.662  13.588  0.00  0.00    +0.000 OA
ATOM     15  N   UNL     1      45.448   2.907  12.770  0.00  0.00    +0.000 N 
ATOM     16  H   UNL     1      42.686   2.142  11.372  0.00  0.00    +0.000 HD
ATOM     17  H   UNL     1      43.880   1.100  11.993  0.00  0.00    +0.000 HD
ATOM     18  H   UNL     1      45.701   1.994  13.106  0.00  0.00    +0.000 HD
ENDBRANCH   1  11
BRANCH   3  19
ATOM     19  C   UNL     1      49.062   8.234  15.000  0.00  0.00    +0.000 C 
BRANCH  19  20
ATOM     20  C   UNL     1      49.596   7.199  15.958  0.00  0.00    +0.000 A 
ATOM     21  C   UNL     1      50.971   6.942  16.032  0.00  0.00    +0.000 A 
ATOM     22  C   UNL     1      51.471   5.975  16.911  0.00  0.00    +0.000 A 
ATOM     23  C   UNL     1      50.605   5.283  17.760  0.00  0.00    +0.000 A 
ATOM     24  C   UNL     1      49.229   5.497  17.655  0.00  0.00    +0.000 A 
ATOM     25  C   UNL     1      48.726   6.444  16.758  0.00  0.00    +0.000 A 
BRANCH  23  26
ATOM     26  O   UNL     1      50.998   4.323  18.665  0.00  0.00    +0.000 OA
BRANCH  26  27
ATOM     27  C   UNL     1      51.524   3.142  18.227  0.00  0.00    +0.000 A 
ATOM     28  C   UNL     1      50.888   2.181  17.471  0.00  0.00    +0.000 A 
ATOM     29  N   UNL     1      51.460   1.016  17.092  0.00  0.00    +0.000 NA
ATOM     30  C   UNL     1      52.739   0.850  17.461  0.00  0.00    +0.000 A 
ATOM     31  N   UNL     1      53.485   1.737  18.138  0.00  0.00    +0.000 NA
ATOM     32  C   UNL     1      52.851   2.876  18.498  0.00  0.00    +0.000 A 
ENDBRANCH  26  27
ENDBRANCH  23  26
ENDBRANCH  19  20
ENDBRANCH   3  19
TORSDOF 5
ENDMDL
MODEL 5
REMARK VINA RESULT:    -7.848      1.627      2.242
REMARK INTER + INTRA:         -10.147
REMARK INTER:                  -9.372
REMARK INTRA:                  -0.775
REMARK UNBOUND:                -0.006
REMARK  Name = 
REMARK  5 active torsions:
REMARK  status: ('A' for Active; 'I' for Inactive)
REMARK    1  A    between atoms: C_7  and  C_8
REMARK    2  A    between atoms: N_10  and  C_11
REMARK    3  A    between atoms: C_11  and  C_12
REMARK    4  A    between atoms: C_15  and  O_16
REMARK    5  A    between atoms: O_16  and  C_17
REMARK                            x       y       z     vdW  Elec       q    Type
REMARK                         _______ _______ _______ _____ _____    ______ ____
ROOT
ATOM      1  C   UNL     1      46.800   7.180  13.581  0.00  0.00    +0.000 C 
ATOM      2  O   UNL     1      46.078   8.112  13.235  0.00  0.00    +0.000 OA
ATOM      3  N   UNL     1      46.330   5.892  13.613  0.00  0.00    +0.000 N 
ATOM      4  H   UNL     1      46.928   5.125  13.908  0.00  0.00    +0.000 HD
ENDROOT
BRANCH   1  11
ATOM      5  N   UNL     1      51.903   5.610  17.675  0.00  0.00    +0.000 N 
ATOM      6  C   UNL     1      50.986   6.074  16.792  0.00  0.00    +0.000 A 
ATOM      7  N   UNL     1      51.307   6.958  15.899  0.00  0.00    +0.000 NA
ATOM      8  C   UNL     1      50.306   7.318  15.051  0.00  0.00    +0.000 A 
ATOM      9  S   UNL     1      50.580   8.451  13.812  0.00  0.00    +0.000 S 
ATOM     10  C   UNL     1      48.980   8.301  13.246  0.00  0.00    +0.000 A 
ATOM     11  C   UNL     1      48.204   7.409  13.976  0.00  0.00    +0.000 A 
ATOM     12  C   UNL     1      49.005   6.848  15.045  0.00  0.00    +0.000 A 
ATOM     13  C   UNL     1      48.683   5.881  16.076  0.00  0.00    +0.000 A 
ATOM     14  O   UNL     1      47.578   5.370  16.224  0.00  0.00    +0.000 OA
ATOM     15  N   UNL     1      49.727   5.555  16.908  0.00  0.00    +0.000 N 
ATOM     16  H   UNL     1      52.748   6.172  17.721  0.00  0.00    +0.000 HD
ATOM     17  H   UNL     1      51.593   5.251  18.567  0.00  0.00    +0.000 HD
ATOM     18  H   UNL     1      49.526   4.858  17.604  0.00  0.00    +0.000 HD
ENDBRANCH   1  11
BRANCH   3  19
ATOM     19  C   UNL     1      44.974   5.578  13.238  0.00  0.00    +0.000 C 
BRANCH  19  20
ATOM     20  C   UNL     1      44.917   4.840  11.924  0.00  0.00    +0.000 A 
ATOM     21  C   UNL     1      45.358   5.455  10.744  0.00  0.00    +0.000 A 
ATOM     22  C   UNL     1      45.298   4.779   9.521  0.00  0.00    +0.000 A 
ATOM     23  C   UNL     1      44.836   3.462   9.468  0.00  0.00    +0.000 A 
ATOM     24  C   UNL     1      44.347   2.862  10.630  0.00  0.00    +0.000 A 
ATOM     25  C   UNL     1      44.382   3.546  11.849  0.00  0.00    +0.000 A 
BRANCH  23  26
ATOM     26  O   UNL     1      44.748   2.710   8.318  0.00  0.00    +0.000 OA
BRANCH  26  27
ATOM     27  C   UNL     1      45.866   2.458   7.576  0.00  0.00    +0.000 A 
ATOM     28  C   UNL     1      46.755   1.417   7.743  0.00  0.00    +0.000 A 
ATOM     29  N   UNL     1      47.862   1.241   6.987  0.00  0.00    +0.000 NA
ATOM     30  C   UNL     1      48.041   2.133   6.002  0.00  0.00    +0.000 A 
ATOM     31  N   UNL     1      47.216   3.146   5.697  0.00  0.00    +0.000 NA
ATOM     32  C   UNL     1      46.134   3.276   6.497  0.00  0.00    +0.000 A 
ENDBRANCH  26  27
ENDBRANCH  23  26
ENDBRANCH  19  20
ENDBRANCH   3  19
TORSDOF 5
ENDMDL
MODEL 6
REMARK VINA RESULT:    -7.706      2.561      3.488
REMARK INTER + INTRA:          -9.965
REMARK INTER:                  -9.238
REMARK INTRA:                  -0.726
REMARK UNBOUND:                -0.006
REMARK  Name = 
REMARK  5 active torsions:
REMARK  status: ('A' for Active; 'I' for Inactive)
REMARK    1  A    between atoms: C_7  and  C_8
REMARK    2  A    between atoms: N_10  and  C_11
REMARK    3  A    between atoms: C_11  and  C_12
REMARK    4  A    between atoms: C_15  and  O_16
REMARK    5  A    between atoms: O_16  and  C_17
REMARK                            x       y       z     vdW  Elec       q    Type
REMARK                         _______ _______ _______ _____ _____    ______ ____
ROOT
ATOM      1  C   UNL     1      46.934   7.811  13.135  0.00  0.00    +0.000 C 
ATOM      2  O   UNL     1      45.932   8.502  12.962  0.00  0.00    +0.000 OA
ATOM      3  N   UNL     1      46.839   6.453  13.305  0.00  0.00    +0.000 N 
ATOM      4  H   UNL     1      47.669   5.887  13.457  0.00  0.00    +0.000 HD
ENDROOT
BRANCH   1  11
ATOM      5  N   UNL     1      53.193   7.671  15.599  0.00  0.00    +0.000 N 
ATOM      6  C   UNL     1      51.979   7.872  15.030  0.00  0.00    +0.000 A 
ATOM      7  N   UNL     1      51.798   8.819  14.163  0.00  0.00    +0.000 NA
ATOM      8  C   UNL     1      50.543   8.898  13.641  0.00  0.00    +0.000 A 
ATOM      9  S   UNL     1      50.158  10.075  12.475  0.00  0.00    +0.000 S 
ATOM     10  C   UNL     1      48.562   9.494  12.337  0.00  0.00    +0.000 A 
ATOM     11  C   UNL     1      48.281   8.415  13.167  0.00  0.00    +0.000 A 
ATOM     12  C   UNL     1      49.463   8.086  13.936  0.00  0.00    +0.000 A 
ATOM     13  C   UNL     1      49.704   7.058  14.929  0.00  0.00    +0.000 A 
ATOM     14  O   UNL     1      48.856   6.260  15.318  0.00  0.00    +0.000 OA
ATOM     15  N   UNL     1      50.983   7.024  15.427  0.00  0.00    +0.000 N 
ATOM     16  H   UNL     1      53.839   8.443  15.470  0.00  0.00    +0.000 HD
ATOM     17  H   UNL     1      53.246   7.231  16.507  0.00  0.00    +0.000 HD
ATOM     18  H   UNL     1      51.172   6.292  16.090  0.00  0.00    +0.000 HD
ENDBRANCH   1  11
BRANCH   3  19
ATOM     19  C   UNL     1      45.564   5.781  13.283  0.00  0.00    +0.000 C 
BRANCH  19  20
ATOM     20  C   UNL     1      45.368   5.001  12.007  0.00  0.00    +0.000 A 
ATOM     21  C   UNL     1      45.523   5.626  10.762  0.00  0.00    +0.000 A 
ATOM     22  C   UNL     1      45.333   4.910   9.575  0.00  0.00    +0.000 A 
ATOM     23  C   UNL     1      45.027   3.548   9.618  0.00  0.00    +0.000 A 
ATOM     24  C   UNL     1      44.821   2.932  10.853  0.00  0.00    +0.000 A 
ATOM     25  C   UNL     1      44.985   3.653  12.040  0.00  0.00    +0.000 A 
BRANCH  23  26
ATOM     26  O   UNL     1      44.832   2.756   8.509  0.00  0.00    +0.000 OA
BRANCH  26  27
ATOM     27  C   UNL     1      45.849   2.557   7.620  0.00  0.00    +0.000 A 
ATOM     28  C   UNL     1      46.181   3.359   6.548  0.00  0.00    +0.000 A 
ATOM     29  N   UNL     1      47.188   3.089   5.687  0.00  0.00    +0.000 NA
ATOM     30  C   UNL     1      47.905   1.988   5.957  0.00  0.00    +0.000 A 
ATOM     31  N   UNL     1      47.724   1.168   7.003  0.00  0.00    +0.000 NA
ATOM     32  C   UNL     1      46.694   1.485   7.820  0.00  0.00    +0.000 A 
ENDBRANCH  26  27
ENDBRANCH  23  26
ENDBRANCH  19  20
ENDBRANCH   3  19
TORSDOF 5
ENDMDL
MODEL 7
REMARK VINA RESULT:    -7.568      3.806      4.936
REMARK INTER + INTRA:          -9.786
REMARK INTER:                  -9.460
REMARK INTRA:                  -0.326
REMARK UNBOUND:                -0.006
REMARK  Name = 
REMARK  5 active torsions:
REMARK  status: ('A' for Active; 'I' for Inactive)
REMARK    1  A    between atoms: C_7  and  C_8
REMARK    2  A    between atoms: N_10  and  C_11
REMARK    3  A    between atoms: C_11  and  C_12
REMARK    4  A    between atoms: C_15  and  O_16
REMARK    5  A    between atoms: O_16  and  C_17
REMARK                            x       y       z     vdW  Elec       q    Type
REMARK                         _______ _______ _______ _____ _____    ______ ____
ROOT
ATOM      1  C   UNL     1      46.191   7.647  12.812  0.00  0.00    +0.000 C 
ATOM      2  O   UNL     1      46.786   6.849  13.534  0.00  0.00    +0.000 OA
ATOM      3  N   UNL     1      44.898   7.418  12.418  0.00  0.00    +0.000 N 
ATOM      4  H   UNL     1      44.412   8.076  11.814  0.00  0.00    +0.000 HD
ENDROOT
BRANCH   1  11
ATOM      5  N   UNL     1      51.757  10.637  10.502  0.00  0.00    +0.000 N 
ATOM      6  C   UNL     1      50.564  10.213  10.985  0.00  0.00    +0.000 A 
ATOM      7  N   UNL     1      49.551  11.019  11.060  0.00  0.00    +0.000 NA
ATOM      8  C   UNL     1      48.400  10.465  11.532  0.00  0.00    +0.000 A 
ATOM      9  S   UNL     1      46.980  11.391  11.667  0.00  0.00    +0.000 S 
ATOM     10  C   UNL     1      46.094  10.051  12.233  0.00  0.00    +0.000 A 
ATOM     11  C   UNL     1      46.844   8.885  12.342  0.00  0.00    +0.000 A 
ATOM     12  C   UNL     1      48.207   9.156  11.933  0.00  0.00    +0.000 A 
ATOM     13  C   UNL     1      49.372   8.298  11.857  0.00  0.00    +0.000 A 
ATOM     14  O   UNL     1      49.382   7.115  12.184  0.00  0.00    +0.000 OA
ATOM     15  N   UNL     1      50.507   8.905  11.379  0.00  0.00    +0.000 N 
ATOM     16  H   UNL     1      51.839  11.647  10.441  0.00  0.00    +0.000 HD
ATOM     17  H   UNL     1      52.603  10.167  10.794  0.00  0.00    +0.000 HD
ATOM     18  H   UNL     1      51.312   8.311  11.287  0.00  0.00    +0.000 HD
ENDBRANCH   1  11
BRANCH   3  19
ATOM     19  C   UNL     1      44.182   6.238  12.835  0.00  0.00    +0.000 C 
BRANCH  19  20
ATOM     20  C   UNL     1      44.362   5.103  11.859  0.00  0.00    +0.000 A 
ATOM     21  C   UNL     1      45.140   3.989  12.201  0.00  0.00    +0.000 A 
ATOM     22  C   UNL     1      45.319   2.937  11.296  0.00  0.00    +0.000 A 
ATOM     23  C   UNL     1      44.685   2.966  10.052  0.00  0.00    +0.000 A 
ATOM     24  C   UNL     1      43.951   4.095   9.685  0.00  0.00    +0.000 A 
ATOM     25  C   UNL     1      43.794   5.159  10.579  0.00  0.00    +0.000 A 
BRANCH  23  26
ATOM     26  O   UNL     1      44.789   1.979   9.098  0.00  0.00    +0.000 OA
BRANCH  26  27
ATOM     27  C   UNL     1      45.851   1.963   8.240  0.00  0.00    +0.000 A 
ATOM     28  C   UNL     1      46.582   0.863   7.844  0.00  0.00    +0.000 A 
ATOM     29  N   UNL     1      47.643   0.921   7.009  0.00  0.00    +0.000 NA
ATOM     30  C   UNL     1      47.938   2.138   6.529  0.00  0.00    +0.000 A 
ATOM     31  N   UNL     1      47.265   3.270   6.784  0.00  0.00    +0.000 NA
ATOM     32  C   UNL     1      46.222   3.147   7.635  0.00  0.00    +0.000 A 
ENDBRANCH  26  27
ENDBRANCH  23  26
ENDBRANCH  19  20
ENDBRANCH   3  19
TORSDOF 5
ENDMDL
MODEL 8
REMARK VINA RESULT:    -7.507      2.881      3.887
REMARK INTER + INTRA:          -9.707
REMARK INTER:                  -8.731
REMARK INTRA:                  -0.976
REMARK UNBOUND:                -0.006
REMARK  Name = 
REMARK  5 active torsions:
REMARK  status: ('A' for Active; 'I' for Inactive)
REMARK    1  A    between atoms: C_7  and  C_8
REMARK    2  A    between atoms: N_10  and  C_11
REMARK    3  A    between atoms: C_11  and  C_12
REMARK    4  A    between atoms: C_15  and  O_16
REMARK    5  A    between atoms: O_16  and  C_17
REMARK                            x       y       z     vdW  Elec       q    Type
REMARK                         _______ _______ _______ _____ _____    ______ ____
ROOT
ATOM      1  C   UNL     1      50.393   7.700  15.393  0.00  0.00    +0.000 C 
ATOM      2  O   UNL     1      51.359   7.807  14.641  0.00  0.00    +0.000 OA
ATOM      3  N   UNL     1      49.151   8.145  15.019  0.00  0.00    +0.000 N 
ATOM      4  H   UNL     1      48.356   8.061  15.647  0.00  0.00    +0.000 HD
ENDROOT
BRANCH   1  11
ATOM      5  N   UNL     1      48.377   2.974  19.735  0.00  0.00    +0.000 N 
ATOM      6  C   UNL     1      48.879   4.002  19.011  0.00  0.00    +0.000 A 
ATOM      7  N   UNL     1      49.840   4.739  19.475  0.00  0.00    +0.000 NA
ATOM      8  C   UNL     1      50.278   5.718  18.638  0.00  0.00    +0.000 A 
ATOM      9  S   UNL     1      51.549   6.752  19.097  0.00  0.00    +0.000 S 
ATOM     10  C   UNL     1      51.503   7.564  17.601  0.00  0.00    +0.000 A 
ATOM     11  C   UNL     1      50.530   7.087  16.729  0.00  0.00    +0.000 A 
ATOM     12  C   UNL     1      49.811   6.003  17.367  0.00  0.00    +0.000 A 
ATOM     13  C   UNL     1      48.720   5.173  16.899  0.00  0.00    +0.000 A 
ATOM     14  O   UNL     1      48.178   5.294  15.805  0.00  0.00    +0.000 OA
ATOM     15  N   UNL     1      48.312   4.202  17.782  0.00  0.00    +0.000 N 
ATOM     16  H   UNL     1      48.644   2.994  20.715  0.00  0.00    +0.000 HD
ATOM     17  H   UNL     1      47.427   2.669  19.570  0.00  0.00    +0.000 HD
ATOM     18  H   UNL     1      47.580   3.596  17.455  0.00  0.00    +0.000 HD
ENDBRANCH   1  11
BRANCH   3  19
ATOM     19  C   UNL     1      48.925   8.750  13.731  0.00  0.00    +0.000 C 
BRANCH  19  20
ATOM     20  C   UNL     1      47.729   8.151  13.035  0.00  0.00    +0.000 A 
ATOM     21  C   UNL     1      46.482   8.787  13.093  0.00  0.00    +0.000 A 
ATOM     22  C   UNL     1      45.366   8.231  12.458  0.00  0.00    +0.000 A 
ATOM     23  C   UNL     1      45.494   7.053  11.719  0.00  0.00    +0.000 A 
ATOM     24  C   UNL     1      46.720   6.387  11.700  0.00  0.00    +0.000 A 
ATOM     25  C   UNL     1      47.830   6.928  12.357  0.00  0.00    +0.000 A 
BRANCH  23  26
ATOM     26  O   UNL     1      44.461   6.433  11.051  0.00  0.00    +0.000 OA
BRANCH  26  27
ATOM     27  C   UNL     1      44.099   5.159  11.380  0.00  0.00    +0.000 A 
ATOM     28  C   UNL     1      43.792   4.682  12.637  0.00  0.00    +0.000 A 
ATOM     29  N   UNL     1      43.466   3.397  12.899  0.00  0.00    +0.000 NA
ATOM     30  C   UNL     1      43.410   2.583  11.834  0.00  0.00    +0.000 A 
ATOM     31  N   UNL     1      43.621   2.940  10.559  0.00  0.00    +0.000 NA
ATOM     32  C   UNL     1      43.954   4.235  10.364  0.00  0.00    +0.000 A 
ENDBRANCH  26  27
ENDBRANCH  23  26
ENDBRANCH  19  20
ENDBRANCH   3  19
TORSDOF 5
ENDMDL
MODEL 9
REMARK VINA RESULT:    -7.147      4.728      7.357
REMARK INTER + INTRA:          -9.242
REMARK INTER:                  -8.550
REMARK INTRA:                  -0.692
REMARK UNBOUND:                -0.006
REMARK  Name = 
REMARK  5 active torsions:
REMARK  status: ('A' for Active; 'I' for Inactive)
REMARK    1  A    between atoms: C_7  and  C_8
REMARK    2  A    between atoms: N_10  and  C_11
REMARK    3  A    between atoms: C_11  and  C_12
REMARK    4  A    between atoms: C_15  and  O_16
REMARK    5  A    between atoms: O_16  and  C_17
REMARK                            x       y       z     vdW  Elec       q    Type
REMARK                         _______ _______ _______ _____ _____    ______ ____
ROOT
ATOM      1  C   UNL     1      45.257   7.418  11.708  0.00  0.00    +0.000 C 
ATOM      2  O   UNL     1      44.637   8.321  11.151  0.00  0.00    +0.000 OA
ATOM      3  N   UNL     1      46.483   7.647  12.279  0.00  0.00    +0.000 N 
ATOM      4  H   UNL     1      46.996   6.895  12.732  0.00  0.00    +0.000 HD
ENDROOT
BRANCH   1  11
ATOM      5  N   UNL     1      44.695   1.325   8.912  0.00  0.00    +0.000 N 
ATOM      6  C   UNL     1      44.671   2.493   9.598  0.00  0.00    +0.000 A 
ATOM      7  N   UNL     1      44.066   2.583  10.741  0.00  0.00    +0.000 NA
ATOM      8  C   UNL     1      44.141   3.800  11.346  0.00  0.00    +0.000 A 
ATOM      9  S   UNL     1      43.416   4.066  12.861  0.00  0.00    +0.000 S 
ATOM     10  C   UNL     1      43.974   5.675  12.907  0.00  0.00    +0.000 A 
ATOM     11  C   UNL     1      44.707   6.050  11.787  0.00  0.00    +0.000 A 
ATOM     12  C   UNL     1      44.783   4.930  10.872  0.00  0.00    +0.000 A 
ATOM     13  C   UNL     1      45.423   4.792   9.579  0.00  0.00    +0.000 A 
ATOM     14  O   UNL     1      46.026   5.694   9.006  0.00  0.00    +0.000 OA
ATOM     15  N   UNL     1      45.315   3.546   9.011  0.00  0.00    +0.000 N 
ATOM     16  H   UNL     1      44.025   0.640   9.246  0.00  0.00    +0.000 HD
ATOM     17  H   UNL     1      44.806   1.344   7.908  0.00  0.00    +0.000 HD
ATOM     18  H   UNL     1      45.786   3.428   8.131  0.00  0.00    +0.000 HD
ENDBRANCH   1  11
BRANCH   3  19
ATOM     19  C   UNL     1      47.092   8.953  12.254  0.00  0.00    +0.000 C 
BRANCH  19  20
ATOM     20  C   UNL     1      48.538   8.885  11.830  0.00  0.00    +0.000 A 
ATOM     21  C   UNL     1      49.237  10.054  11.501  0.00  0.00    +0.000 A 
ATOM     22  C   UNL     1      50.575   9.997  11.098  0.00  0.00    +0.000 A 
ATOM     23  C   UNL     1      51.246   8.772  11.062  0.00  0.00    +0.000 A 
ATOM     24  C   UNL     1      50.542   7.599  11.339  0.00  0.00    +0.000 A 
ATOM     25  C   UNL     1      49.197   7.653  11.716  0.00  0.00    +0.000 A 
BRANCH  23  26
ATOM     26  O   UNL     1      52.562   8.612  10.691  0.00  0.00    +0.000 OA
BRANCH  26  27
ATOM     27  C   UNL     1      52.871   8.046   9.488  0.00  0.00    +0.000 A 
ATOM     28  C   UNL     1      53.134   6.715   9.240  0.00  0.00    +0.000 A 
ATOM     29  N   UNL     1      53.462   6.223   8.025  0.00  0.00    +0.000 NA
ATOM     30  C   UNL     1      53.476   7.114   7.022  0.00  0.00    +0.000 A 
ATOM     31  N   UNL     1      53.173   8.417   7.122  0.00  0.00    +0.000 NA
ATOM     32  C   UNL     1      52.866   8.849   8.365  0.00  0.00    +0.000 A 
ENDBRANCH  26  27
ENDBRANCH  23  26
ENDBRANCH  19  20
ENDBRANCH   3  19
TORSDOF 5
ENDMDL
