MODEL 1
REMARK VINA RESULT:    -7.342      0.000      0.000
REMARK INTER + INTRA:          -9.066
REMARK INTER:                  -8.629
REMARK INTRA:                  -0.436
REMARK UNBOUND:                -0.436
REMARK  Name = 
REMARK  5 active torsions:
REMARK  status: ('A' for Active; 'I' for Inactive)
REMARK    1  A    between atoms: C_1  and  N_2
REMARK    2  A    between atoms: C_3  and  C_5
REMARK    3  A    between atoms: N_9  and  C_10
REMARK    4  A    between atoms: C_10  and  C_11
REMARK    5  A    between atoms: C_10  and  C_12
REMARK                            x       y       z     vdW  Elec       q    Type
REMARK                         _______ _______ _______ _____ _____    ______ ____
ROOT
ATOM      1  C   UNL     1      46.025   2.470   7.896  0.00  0.00    +0.000 A 
ATOM      2  C   UNL     1      45.348   1.615   8.760  0.00  0.00    +0.000 A 
ATOM      3  C   UNL     1      44.450   2.152   9.684  0.00  0.00    +0.000 A 
ATOM      4  C   UNL     1      44.277   3.533   9.769  0.00  0.00    +0.000 A 
ATOM      5  N   UNL     1      43.417   4.019  10.755  0.00  0.00    +0.000 N 
ATOM      6  N   UNL     1      44.939   4.371   8.949  0.00  0.00    +0.000 NA
ATOM      7  C   UNL     1      45.788   3.830   8.031  0.00  0.00    +0.000 A 
ATOM      8  H   UNL     1      42.463   3.730  10.578  0.00  0.00    +0.000 HD
ENDROOT
BRANCH   1  11
ATOM      9  C   UNL     1      48.138   2.456   4.756  0.00  0.00    +0.000 C 
ATOM     10  N   UNL     1      47.209   2.821   5.796  0.00  0.00    +0.000 N 
ATOM     11  C   UNL     1      47.007   2.002   6.888  0.00  0.00    +0.000 C 
ATOM     12  O   UNL     1      47.604   0.946   7.060  0.00  0.00    +0.000 OA
ATOM     13  H   UNL     1      46.811   3.749   5.773  0.00  0.00    +0.000 HD
ENDBRANCH   1  11
BRANCH   5  14
ATOM     14  C   UNL     1      43.558   5.419  11.150  0.00  0.00    +0.000 C 
ATOM     15  C   UNL     1      42.360   5.935  11.946  0.00  0.00    +0.000 C 
BRANCH  14  16
ATOM     16  C   UNL     1      44.841   5.556  11.966  0.00  0.00    +0.000 A 
ATOM     17  C   UNL     1      45.073   4.800  13.130  0.00  0.00    +0.000 A 
ATOM     18  C   UNL     1      46.240   4.970  13.877  0.00  0.00    +0.000 A 
ATOM     19  C   UNL     1      47.204   5.899  13.468  0.00  0.00    +0.000 A 
ATOM     20  C   UNL     1      46.993   6.639  12.310  0.00  0.00    +0.000 A 
ATOM     21 CL   UNL     1      48.175   7.782  11.803  0.00  0.00    +0.000 Cl
ATOM     22  C   UNL     1      45.827   6.470  11.558  0.00  0.00    +0.000 A 
ENDBRANCH  14  16
ENDBRANCH   5  14
TORSDOF 3
ENDMDL
MODEL 2
REMARK VINA RESULT:    -6.979      3.970      7.284
REMARK INTER + INTRA:          -8.639
REMARK INTER:                  -8.158
REMARK INTRA:                  -0.481
REMARK UNBOUND:                -0.436
REMARK  Name = 
REMARK  5 active torsions:
REMARK  status: ('A' for Active; 'I' for Inactive)
REMARK    1  A    between atoms: C_1  and  N_2
REMARK    2  A    between atoms: C_3  and  C_5
REMARK    3  A    between atoms: N_9  and  C_10
REMARK    4  A    between atoms: C_10  and  C_11
REMARK    5  A    between atoms: C_10  and  C_12
REMARK                            x       y       z     vdW  Elec       q    Type
REMARK                         _______ _______ _______ _____ _____    ______ ____
ROOT
ATOM      1  C   UNL     1      47.494   5.345  14.898  0.00  0.00    +0.000 A 
ATOM      2  C   UNL     1      47.709   6.313  13.921  0.00  0.00    +0.000 A 
ATOM      3  C   UNL     1      46.988   6.247  12.727  0.00  0.00    +0.000 A 
ATOM      4  C   UNL     1      46.103   5.193  12.503  0.00  0.00    +0.000 A 
ATOM      5  N   UNL     1      45.459   5.141  11.266  0.00  0.00    +0.000 N 
ATOM      6  N   UNL     1      45.899   4.243  13.434  0.00  0.00    +0.000 NA
ATOM      7  C   UNL     1      46.586   4.338  14.607  0.00  0.00    +0.000 A 
ATOM      8  H   UNL     1      44.832   5.928  11.150  0.00  0.00    +0.000 HD
ENDROOT
BRANCH   1  11
ATOM      9  C   UNL     1      48.055   5.070  18.631  0.00  0.00    +0.000 C 
ATOM     10  N   UNL     1      47.452   5.108  17.322  0.00  0.00    +0.000 N 
ATOM     11  C   UNL     1      48.217   5.318  16.192  0.00  0.00    +0.000 C 
ATOM     12  O   UNL     1      49.433   5.461  16.218  0.00  0.00    +0.000 OA
ATOM     13  H   UNL     1      46.480   4.844  17.239  0.00  0.00    +0.000 HD
ENDBRANCH   1  11
BRANCH   5  14
ATOM     14  C   UNL     1      44.897   3.859  10.846  0.00  0.00    +0.000 C 
ATOM     15  C   UNL     1      43.370   3.875  10.770  0.00  0.00    +0.000 C 
BRANCH  14  16
ATOM     16  C   UNL     1      45.496   3.500   9.488  0.00  0.00    +0.000 A 
ATOM     17  C   UNL     1      45.767   4.474   8.508  0.00  0.00    +0.000 A 
ATOM     18  C   UNL     1      46.283   4.114   7.261  0.00  0.00    +0.000 A 
ATOM     19  C   UNL     1      46.542   2.770   6.972  0.00  0.00    +0.000 A 
ATOM     20  C   UNL     1      46.294   1.802   7.939  0.00  0.00    +0.000 A 
ATOM     21 CL   UNL     1      46.613   0.148   7.588  0.00  0.00    +0.000 Cl
ATOM     22  C   UNL     1      45.780   2.157   9.189  0.00  0.00    +0.000 A 
ENDBRANCH  14  16
ENDBRANCH   5  14
TORSDOF 3
ENDMDL
MODEL 3
REMARK VINA RESULT:    -6.850      3.864      7.021
REMARK INTER + INTRA:          -8.488
REMARK INTER:                  -8.034
REMARK INTRA:                  -0.454
REMARK UNBOUND:                -0.436
REMARK  Name = 
REMARK  5 active torsions:
REMARK  status: ('A' for Active; 'I' for Inactive)
REMARK    1  A    between atoms: C_1  and  N_2
REMARK    2  A    between atoms: C_3  and  C_5
REMARK    3  A    between atoms: N_9  and  C_10
REMARK    4  A    between atoms: C_10  and  C_11
REMARK    5  A    between atoms: C_10  and  C_12
REMARK                            x       y       z     vdW  Elec       q    Type
REMARK                         _______ _______ _______ _____ _____    ______ ____
ROOT
ATOM      1  C   UNL     1      46.886   7.647  13.111  0.00  0.00    +0.000 A 
ATOM      2  C   UNL     1      46.044   8.166  12.132  0.00  0.00    +0.000 A 
ATOM      3  C   UNL     1      45.177   7.307  11.454  0.00  0.00    +0.000 A 
ATOM      4  C   UNL     1      45.196   5.939  11.726  0.00  0.00    +0.000 A 
ATOM      5  N   UNL     1      44.355   5.118  10.973  0.00  0.00    +0.000 N 
ATOM      6  N   UNL     1      46.017   5.425  12.660  0.00  0.00    +0.000 NA
ATOM      7  C   UNL     1      46.835   6.279  13.335  0.00  0.00    +0.000 A 
ATOM      8  H   UNL     1      43.382   5.325  11.162  0.00  0.00    +0.000 HD
ENDROOT
BRANCH   1  11
ATOM      9  C   UNL     1      48.373   9.574  16.010  0.00  0.00    +0.000 C 
ATOM     10  N   UNL     1      47.508   8.773  15.181  0.00  0.00    +0.000 N 
ATOM     11  C   UNL     1      47.851   8.472  13.878  0.00  0.00    +0.000 C 
ATOM     12  O   UNL     1      48.897   8.834  13.355  0.00  0.00    +0.000 OA
ATOM     13  H   UNL     1      46.712   8.328  15.615  0.00  0.00    +0.000 HD
ENDBRANCH   1  11
BRANCH   5  14
ATOM     14  C   UNL     1      44.668   3.691  10.920  0.00  0.00    +0.000 C 
ATOM     15  C   UNL     1      43.438   2.806  11.119  0.00  0.00    +0.000 C 
BRANCH  14  16
ATOM     16  C   UNL     1      45.325   3.399   9.573  0.00  0.00    +0.000 A 
ATOM     17  C   UNL     1      45.585   4.412   8.631  0.00  0.00    +0.000 A 
ATOM     18  C   UNL     1      46.155   4.112   7.392  0.00  0.00    +0.000 A 
ATOM     19  C   UNL     1      46.483   2.789   7.074  0.00  0.00    +0.000 A 
ATOM     20  C   UNL     1      46.246   1.783   8.004  0.00  0.00    +0.000 A 
ATOM     21 CL   UNL     1      46.648   0.155   7.618  0.00  0.00    +0.000 Cl
ATOM     22  C   UNL     1      45.678   2.079   9.246  0.00  0.00    +0.000 A 
ENDBRANCH  14  16
ENDBRANCH   5  14
TORSDOF 3
ENDMDL
MODEL 4
REMARK VINA RESULT:    -6.837      3.573      6.543
REMARK INTER + INTRA:          -8.472
REMARK INTER:                  -9.006
REMARK INTRA:                   0.535
REMARK UNBOUND:                -0.436
REMARK  Name = 
REMARK  5 active torsions:
REMARK  status: ('A' for Active; 'I' for Inactive)
REMARK    1  A    between atoms: C_1  and  N_2
REMARK    2  A    between atoms: C_3  and  C_5
REMARK    3  A    between atoms: N_9  and  C_10
REMARK    4  A    between atoms: C_10  and  C_11
REMARK    5  A    between atoms: C_10  and  C_12
REMARK                            x       y       z     vdW  Elec       q    Type
REMARK                         _______ _______ _______ _____ _____    ______ ____
ROOT
ATOM      1  C   UNL     1      47.244   5.778  13.653  0.00  0.00    +0.000 A 
ATOM      2  C   UNL     1      46.767   4.675  14.355  0.00  0.00    +0.000 A 
ATOM      3  C   UNL     1      45.960   3.747  13.696  0.00  0.00    +0.000 A 
ATOM      4  C   UNL     1      45.599   3.955  12.365  0.00  0.00    +0.000 A 
ATOM      5  N   UNL     1      44.737   3.029  11.775  0.00  0.00    +0.000 N 
ATOM      6  N   UNL     1      46.042   5.026  11.681  0.00  0.00    +0.000 NA
ATOM      7  C   UNL     1      46.855   5.907  12.328  0.00  0.00    +0.000 A 
ATOM      8  H   UNL     1      45.177   2.120  11.702  0.00  0.00    +0.000 HD
ENDROOT
BRANCH   1  11
ATOM      9  C   UNL     1      48.350   9.209  14.808  0.00  0.00    +0.000 C 
ATOM     10  N   UNL     1      47.599   8.115  14.246  0.00  0.00    +0.000 N 
ATOM     11  C   UNL     1      48.097   6.827  14.264  0.00  0.00    +0.000 C 
ATOM     12  O   UNL     1      49.173   6.527  14.765  0.00  0.00    +0.000 OA
ATOM     13  H   UNL     1      46.646   8.290  13.961  0.00  0.00    +0.000 HD
ENDBRANCH   1  11
BRANCH   5  14
ATOM     14  C   UNL     1      44.010   3.444  10.577  0.00  0.00    +0.000 C 
ATOM     15  C   UNL     1      43.531   4.894  10.645  0.00  0.00    +0.000 C 
BRANCH  14  16
ATOM     16  C   UNL     1      44.924   3.238   9.372  0.00  0.00    +0.000 A 
ATOM     17  C   UNL     1      45.297   4.298   8.524  0.00  0.00    +0.000 A 
ATOM     18  C   UNL     1      46.106   4.075   7.408  0.00  0.00    +0.000 A 
ATOM     19  C   UNL     1      46.563   2.785   7.122  0.00  0.00    +0.000 A 
ATOM     20  C   UNL     1      46.215   1.733   7.962  0.00  0.00    +0.000 A 
ATOM     21 CL   UNL     1      46.776   0.144   7.613  0.00  0.00    +0.000 Cl
ATOM     22  C   UNL     1      45.408   1.951   9.081  0.00  0.00    +0.000 A 
ENDBRANCH  14  16
ENDBRANCH   5  14
TORSDOF 3
ENDMDL
MODEL 5
REMARK VINA RESULT:    -5.996      2.298      3.245
REMARK INTER + INTRA:          -7.483
REMARK INTER:                  -6.885
REMARK INTRA:                  -0.598
REMARK UNBOUND:                -0.436
REMARK  Name = 
REMARK  5 active torsions:
REMARK  status: ('A' for Active; 'I' for Inactive)
REMARK    1  A    between atoms: C_1  and  N_2
REMARK    2  A    between atoms: C_3  and  C_5
REMARK    3  A    between atoms: N_9  and  C_10
REMARK    4  A    between atoms: C_10  and  C_11
REMARK    5  A    between atoms: C_10  and  C_12
REMARK                            x       y       z     vdW  Elec       q    Type
REMARK                         _______ _______ _______ _____ _____    ______ ____
ROOT
ATOM      1  C   UNL     1      45.154   3.391  10.041  0.00  0.00    +0.000 A 
ATOM      2  C   UNL     1      44.831   3.284  11.391  0.00  0.00    +0.000 A 
ATOM      3  C   UNL     1      44.786   4.439  12.173  0.00  0.00    +0.000 A 
ATOM      4  C   UNL     1      45.112   5.675  11.614  0.00  0.00    +0.000 A 
ATOM      5  N   UNL     1      45.114   6.787  12.458  0.00  0.00    +0.000 N 
ATOM      6  N   UNL     1      45.442   5.787  10.314  0.00  0.00    +0.000 NA
ATOM      7  C   UNL     1      45.451   4.656   9.556  0.00  0.00    +0.000 A 
ATOM      8  H   UNL     1      44.181   6.985  12.799  0.00  0.00    +0.000 HD
ENDROOT
BRANCH   1  11
ATOM      9  C   UNL     1      46.581   1.017   7.461  0.00  0.00    +0.000 C 
ATOM     10  N   UNL     1      46.398   2.110   8.383  0.00  0.00    +0.000 N 
ATOM     11  C   UNL     1      45.242   2.225   9.129  0.00  0.00    +0.000 C 
ATOM     12  O   UNL     1      44.324   1.416   9.080  0.00  0.00    +0.000 OA
ATOM     13  H   UNL     1      47.187   2.713   8.568  0.00  0.00    +0.000 HD
ENDBRANCH   1  11
BRANCH   5  14
ATOM     14  C   UNL     1      45.860   7.967  12.025  0.00  0.00    +0.000 C 
ATOM     15  C   UNL     1      45.225   9.276  12.493  0.00  0.00    +0.000 C 
BRANCH  14  16
ATOM     16  C   UNL     1      47.288   7.846  12.552  0.00  0.00    +0.000 A 
ATOM     17  C   UNL     1      47.579   7.825  13.929  0.00  0.00    +0.000 A 
ATOM     18  C   UNL     1      48.896   7.749  14.384  0.00  0.00    +0.000 A 
ATOM     19  C   UNL     1      49.951   7.687  13.467  0.00  0.00    +0.000 A 
ATOM     20  C   UNL     1      49.675   7.690  12.105  0.00  0.00    +0.000 A 
ATOM     21 CL   UNL     1      50.968   7.612  10.973  0.00  0.00    +0.000 Cl
ATOM     22  C   UNL     1      48.357   7.763  11.645  0.00  0.00    +0.000 A 
ENDBRANCH  14  16
ENDBRANCH   5  14
TORSDOF 3
ENDMDL
MODEL 6
REMARK VINA RESULT:    -5.890      5.763      8.706
REMARK INTER + INTRA:          -7.359
REMARK INTER:                  -7.172
REMARK INTRA:                  -0.187
REMARK UNBOUND:                -0.436
REMARK  Name = 
REMARK  5 active torsions:
REMARK  status: ('A' for Active; 'I' for Inactive)
REMARK    1  A    between atoms: C_1  and  N_2
REMARK    2  A    between atoms: C_3  and  C_5
REMARK    3  A    between atoms: N_9  and  C_10
REMARK    4  A    between atoms: C_10  and  C_11
REMARK    5  A    between atoms: C_10  and  C_12
REMARK                            x       y       z     vdW  Elec       q    Type
REMARK                         _______ _______ _______ _____ _____    ______ ____
ROOT
ATOM      1  C   UNL     1      48.713   4.418  18.266  0.00  0.00    +0.000 A 
ATOM      2  C   UNL     1      48.080   3.227  17.926  0.00  0.00    +0.000 A 
ATOM      3  C   UNL     1      47.502   3.100  16.661  0.00  0.00    +0.000 A 
ATOM      4  C   UNL     1      47.518   4.176  15.774  0.00  0.00    +0.000 A 
ATOM      5  N   UNL     1      46.869   4.016  14.550  0.00  0.00    +0.000 N 
ATOM      6  N   UNL     1      48.114   5.339  16.100  0.00  0.00    +0.000 NA
ATOM      7  C   UNL     1      48.701   5.437  17.325  0.00  0.00    +0.000 A 
ATOM      8  H   UNL     1      47.328   3.312  13.985  0.00  0.00    +0.000 HD
ENDROOT
BRANCH   1  11
ATOM      9  C   UNL     1      51.423   5.097  20.819  0.00  0.00    +0.000 C 
ATOM     10  N   UNL     1      50.711   4.862  19.589  0.00  0.00    +0.000 N 
ATOM     11  C   UNL     1      49.345   4.658  19.586  0.00  0.00    +0.000 C 
ATOM     12  O   UNL     1      48.657   4.685  20.599  0.00  0.00    +0.000 OA
ATOM     13  H   UNL     1      51.211   4.982  18.720  0.00  0.00    +0.000 HD
ENDBRANCH   1  11
BRANCH   5  14
ATOM     14  C   UNL     1      46.493   5.224  13.817  0.00  0.00    +0.000 C 
ATOM     15  C   UNL     1      47.628   5.772  12.953  0.00  0.00    +0.000 C 
BRANCH  14  16
ATOM     16  C   UNL     1      45.275   4.896  12.955  0.00  0.00    +0.000 A 
ATOM     17  C   UNL     1      44.028   5.516  13.156  0.00  0.00    +0.000 A 
ATOM     18  C   UNL     1      42.921   5.172  12.377  0.00  0.00    +0.000 A 
ATOM     19  C   UNL     1      43.044   4.203  11.375  0.00  0.00    +0.000 A 
ATOM     20  C   UNL     1      44.276   3.597  11.157  0.00  0.00    +0.000 A 
ATOM     21 CL   UNL     1      44.432   2.405   9.926  0.00  0.00    +0.000 Cl
ATOM     22  C   UNL     1      45.387   3.939  11.933  0.00  0.00    +0.000 A 
ENDBRANCH  14  16
ENDBRANCH   5  14
TORSDOF 3
ENDMDL
MODEL 7
REMARK VINA RESULT:    -5.819      4.548      6.369
REMARK INTER + INTRA:          -7.276
REMARK INTER:                  -7.037
REMARK INTRA:                  -0.239
REMARK UNBOUND:                -0.436
REMARK  Name = 
REMARK  5 active torsions:
REMARK  status: ('A' for Active; 'I' for Inactive)
REMARK    1  A    between atoms: C_1  and  N_2
REMARK    2  A    between atoms: C_3  and  C_5
REMARK    3  A    between atoms: N_9  and  C_10
REMARK    4  A    between atoms: C_10  and  C_11
REMARK    5  A    between atoms: C_10  and  C_12
REMARK                            x       y       z     vdW  Elec       q    Type
REMARK                         _______ _______ _______ _____ _____    ______ ____
ROOT
ATOM      1  C   UNL     1      45.557   4.890  12.027  0.00  0.00    +0.000 A 
ATOM      2  C   UNL     1      46.222   6.053  12.405  0.00  0.00    +0.000 A 
ATOM      3  C   UNL     1      46.990   6.050  13.571  0.00  0.00    +0.000 A 
ATOM      4  C   UNL     1      47.045   4.906  14.368  0.00  0.00    +0.000 A 
ATOM      5  N   UNL     1      47.774   4.979  15.555  0.00  0.00    +0.000 N 
ATOM      6  N   UNL     1      46.393   3.781  14.019  0.00  0.00    +0.000 NA
ATOM      7  C   UNL     1      45.673   3.790  12.863  0.00  0.00    +0.000 A 
ATOM      8  H   UNL     1      48.760   5.114  15.367  0.00  0.00    +0.000 HD
ENDROOT
BRANCH   1  11
ATOM      9  C   UNL     1      44.511   3.996   8.501  0.00  0.00    +0.000 C 
ATOM     10  N   UNL     1      45.252   4.139   9.729  0.00  0.00    +0.000 N 
ATOM     11  C   UNL     1      44.707   4.795  10.815  0.00  0.00    +0.000 C 
ATOM     12  O   UNL     1      43.578   5.268  10.821  0.00  0.00    +0.000 OA
ATOM     13  H   UNL     1      46.122   3.635   9.821  0.00  0.00    +0.000 HD
ENDBRANCH   1  11
BRANCH   5  14
ATOM     14  C   UNL     1      47.489   3.987  16.590  0.00  0.00    +0.000 C 
ATOM     15  C   UNL     1      48.238   2.672  16.375  0.00  0.00    +0.000 C 
BRANCH  14  16
ATOM     16  C   UNL     1      47.852   4.595  17.943  0.00  0.00    +0.000 A 
ATOM     17  C   UNL     1      48.495   3.851  18.950  0.00  0.00    +0.000 A 
ATOM     18  C   UNL     1      48.784   4.421  20.191  0.00  0.00    +0.000 A 
ATOM     19  C   UNL     1      48.438   5.753  20.447  0.00  0.00    +0.000 A 
ATOM     20  C   UNL     1      47.818   6.502  19.454  0.00  0.00    +0.000 A 
ATOM     21 CL   UNL     1      47.391   8.140  19.763  0.00  0.00    +0.000 Cl
ATOM     22  C   UNL     1      47.529   5.936  18.209  0.00  0.00    +0.000 A 
ENDBRANCH  14  16
ENDBRANCH   5  14
TORSDOF 3
ENDMDL
MODEL 8
REMARK VINA RESULT:    -5.657      4.744      6.907
REMARK INTER + INTRA:          -7.086
REMARK INTER:                  -6.537
REMARK INTRA:                  -0.549
REMARK UNBOUND:                -0.436
REMARK  Name = 
REMARK  5 active torsions:
REMARK  status: ('A' for Active; 'I' for Inactive)
REMARK    1  A    between atoms: C_1  and  N_2
REMARK    2  A    between atoms: C_3  and  C_5
REMARK    3  A    between atoms: N_9  and  C_10
REMARK    4  A    between atoms: C_10  and  C_11
REMARK    5  A    between atoms: C_10  and  C_12
REMARK                            x       y       z     vdW  Elec       q    Type
REMARK                         _______ _______ _______ _____ _____    ______ ____
ROOT
ATOM      1  C   UNL     1      45.958   4.845  12.874  0.00  0.00    +0.000 A 
ATOM      2  C   UNL     1      46.006   6.211  12.614  0.00  0.00    +0.000 A 
ATOM      3  C   UNL     1      46.993   6.985  13.226  0.00  0.00    +0.000 A 
ATOM      4  C   UNL     1      47.884   6.399  14.126  0.00  0.00    +0.000 A 
ATOM      5  N   UNL     1      48.808   7.232  14.758  0.00  0.00    +0.000 N 
ATOM      6  N   UNL     1      47.836   5.081  14.396  0.00  0.00    +0.000 NA
ATOM      7  C   UNL     1      46.887   4.333  13.767  0.00  0.00    +0.000 A 
ATOM      8  H   UNL     1      49.460   7.624  14.090  0.00  0.00    +0.000 HD
ENDROOT
BRANCH   1  11
ATOM      9  C   UNL     1      44.098   2.841  10.256  0.00  0.00    +0.000 C 
ATOM     10  N   UNL     1      45.039   3.701  10.928  0.00  0.00    +0.000 N 
ATOM     11  C   UNL     1      44.942   3.938  12.285  0.00  0.00    +0.000 C 
ATOM     12  O   UNL     1      44.088   3.429  13.000  0.00  0.00    +0.000 OA
ATOM     13  H   UNL     1      45.846   4.019  10.411  0.00  0.00    +0.000 HD
ENDBRANCH   1  11
BRANCH   5  14
ATOM     14  C   UNL     1      49.428   6.747  15.990  0.00  0.00    +0.000 C 
ATOM     15  C   UNL     1      50.922   7.057  16.065  0.00  0.00    +0.000 C 
BRANCH  14  16
ATOM     16  C   UNL     1      48.691   7.376  17.171  0.00  0.00    +0.000 A 
ATOM     17  C   UNL     1      48.380   8.748  17.215  0.00  0.00    +0.000 A 
ATOM     18  C   UNL     1      47.737   9.304  18.322  0.00  0.00    +0.000 A 
ATOM     19  C   UNL     1      47.388   8.494  19.408  0.00  0.00    +0.000 A 
ATOM     20  C   UNL     1      47.675   7.135  19.369  0.00  0.00    +0.000 A 
ATOM     21 CL   UNL     1      47.247   6.134  20.702  0.00  0.00    +0.000 Cl
ATOM     22  C   UNL     1      48.316   6.573  18.261  0.00  0.00    +0.000 A 
ENDBRANCH  14  16
ENDBRANCH   5  14
TORSDOF 3
ENDMDL
MODEL 9
REMARK VINA RESULT:    -5.619      4.283      6.716
REMARK INTER + INTRA:          -7.040
REMARK INTER:                  -6.899
REMARK INTRA:                  -0.141
REMARK UNBOUND:                -0.436
REMARK  Name = 
REMARK  5 active torsions:
REMARK  status: ('A' for Active; 'I' for Inactive)
REMARK    1  A    between atoms: C_1  and  N_2
REMARK    2  A    between atoms: C_3  and  C_5
REMARK    3  A    between atoms: N_9  and  C_10
REMARK    4  A    between atoms: C_10  and  C_11
REMARK    5  A    between atoms: C_10  and  C_12
REMARK                            x       y       z     vdW  Elec       q    Type
REMARK                         _______ _______ _______ _____ _____    ______ ____
ROOT
ATOM      1  C   UNL     1      48.522   8.125  13.153  0.00  0.00    +0.000 A 
ATOM      2  C   UNL     1      47.421   8.862  12.725  0.00  0.00    +0.000 A 
ATOM      3  C   UNL     1      46.176   8.237  12.635  0.00  0.00    +0.000 A 
ATOM      4  C   UNL     1      46.055   6.878  12.923  0.00  0.00    +0.000 A 
ATOM      5  N   UNL     1      44.801   6.290  12.754  0.00  0.00    +0.000 N 
ATOM      6  N   UNL     1      47.116   6.152  13.323  0.00  0.00    +0.000 NA
ATOM      7  C   UNL     1      48.317   6.783  13.436  0.00  0.00    +0.000 A 
ATOM      8  H   UNL     1      44.129   6.672  13.408  0.00  0.00    +0.000 HD
ENDROOT
BRANCH   1  11
ATOM      9  C   UNL     1      52.261   8.468  12.681  0.00  0.00    +0.000 C 
ATOM     10  N   UNL     1      50.897   8.005  12.625  0.00  0.00    +0.000 N 
ATOM     11  C   UNL     1      49.887   8.691  13.270  0.00  0.00    +0.000 C 
ATOM     12  O   UNL     1      50.069   9.726  13.898  0.00  0.00    +0.000 OA
ATOM     13  H   UNL     1      50.678   7.247  11.995  0.00  0.00    +0.000 HD
ENDBRANCH   1  11
BRANCH   5  14
ATOM     14  C   UNL     1      44.745   4.836  12.615  0.00  0.00    +0.000 C 
ATOM     15  C   UNL     1      43.408   4.247  13.065  0.00  0.00    +0.000 C 
BRANCH  14  16
ATOM     16  C   UNL     1      45.019   4.487  11.154  0.00  0.00    +0.000 A 
ATOM     17  C   UNL     1      45.499   5.438  10.234  0.00  0.00    +0.000 A 
ATOM     18  C   UNL     1      45.708   5.101   8.896  0.00  0.00    +0.000 A 
ATOM     19  C   UNL     1      45.446   3.800   8.452  0.00  0.00    +0.000 A 
ATOM     20  C   UNL     1      44.989   2.848   9.356  0.00  0.00    +0.000 A 
ATOM     21 CL   UNL     1      44.665   1.246   8.816  0.00  0.00    +0.000 Cl
ATOM     22  C   UNL     1      44.780   3.180  10.697  0.00  0.00    +0.000 A 
ENDBRANCH  14  16
ENDBRANCH   5  14
TORSDOF 3
ENDMDL
