MODEL 1
REMARK VINA RESULT:    -8.671      0.000      0.000
REMARK INTER + INTRA:         -12.974
REMARK INTER:                 -11.712
REMARK INTRA:                  -1.262
REMARK UNBOUND:                -1.262
REMARK  Name = 
REMARK  7 active torsions:
REMARK  status: ('A' for Active; 'I' for Inactive)
REMARK    1  A    between atoms: C_1  and  O_2
REMARK    2  A    between atoms: O_2  and  C_3
REMARK    3  A    between atoms: C_7  and  C_8
REMARK    4  A    between atoms: C_12  and  C_13
REMARK    5  A    between atoms: C_13  and  N_14
REMARK    6  A    between atoms: N_14  and  C_15
REMARK    7  A    between atoms: C_18  and  C_19
REMARK                            x       y       z     vdW  Elec       q    Type
REMARK                         _______ _______ _______ _____ _____    ______ ____
ROOT
ATOM      1  C   UNL     1      43.798   5.009  11.352  0.00  0.00    +0.000 C 
ATOM      2  C   UNL     1      43.006   6.254  11.013  0.00  0.00    +0.000 C 
ATOM      3  C   UNL     1      42.517   5.369  12.109  0.00  0.00    +0.000 C 
ENDROOT
BRANCH   1   8
ATOM      4  C   UNL     1      47.211   6.442  12.483  0.00  0.00    +0.000 A 
ATOM      5  C   UNL     1      47.598   5.471  13.420  0.00  0.00    +0.000 A 
ATOM      6  C   UNL     1      46.765   4.387  13.715  0.00  0.00    +0.000 A 
ATOM      7  C   UNL     1      45.546   4.238  13.058  0.00  0.00    +0.000 A 
ATOM      8  C   UNL     1      45.118   5.169  12.101  0.00  0.00    +0.000 A 
ATOM      9  C   UNL     1      45.962   6.270  11.857  0.00  0.00    +0.000 A 
BRANCH   4  14
ATOM     10  C   UNL     1      50.246   8.499  11.465  0.00  0.00    +0.000 A 
ATOM     11  C   UNL     1      49.674   9.761  11.540  0.00  0.00    +0.000 A 
ATOM     12  N   UNL     1      48.389   9.997  11.887  0.00  0.00    +0.000 NA
ATOM     13  C   UNL     1      47.634   8.909  12.175  0.00  0.00    +0.000 A 
ATOM     14  C   UNL     1      48.087   7.587  12.146  0.00  0.00    +0.000 A 
ATOM     15  C   UNL     1      49.434   7.409  11.779  0.00  0.00    +0.000 A 
BRANCH  10  17
ATOM     16  C   UNL     1      51.957   7.367  10.267  0.00  0.00    +0.000 C 
ATOM     17  O   UNL     1      51.560   8.451  11.099  0.00  0.00    +0.000 OA
ENDBRANCH  10  17
ENDBRANCH   4  14
ENDBRANCH   1   8
BRANCH   1  18
ATOM     18  N   UNL     1      43.685   3.753  10.596  0.00  0.00    +0.000 N 
ATOM     19  H   UNL     1      43.265   2.984  11.104  0.00  0.00    +0.000 HD
BRANCH  18  20
ATOM     20  C   UNL     1      44.521   3.315   9.553  0.00  0.00    +0.000 A 
ATOM     21  C   UNL     1      44.960   2.000   9.385  0.00  0.00    +0.000 A 
ATOM     22  C   UNL     1      45.899   1.679   8.390  0.00  0.00    +0.000 A 
ATOM     23  C   UNL     1      46.426   2.675   7.559  0.00  0.00    +0.000 A 
ATOM     24  C   UNL     1      46.004   3.994   7.725  0.00  0.00    +0.000 A 
ATOM     25  C   UNL     1      45.065   4.301   8.714  0.00  0.00    +0.000 A 
BRANCH  23  26
ATOM     26  C   UNL     1      47.477   2.315   6.572  0.00  0.00    +0.000 C 
ATOM     27  N   UNL     1      47.575   3.079   5.440  0.00  0.00    +0.000 N 
ATOM     28  O   UNL     1      48.228   1.361   6.748  0.00  0.00    +0.000 OA
ATOM     29  H   UNL     1      46.857   3.723   5.148  0.00  0.00    +0.000 HD
ATOM     30  H   UNL     1      48.257   2.787   4.752  0.00  0.00    +0.000 HD
ENDBRANCH  23  26
ENDBRANCH  18  20
ENDBRANCH   1  18
TORSDOF 6
ENDMDL
MODEL 2
REMARK VINA RESULT:    -8.532      2.729      4.126
REMARK INTER + INTRA:         -12.786
REMARK INTER:                 -12.229
REMARK INTRA:                  -0.558
REMARK UNBOUND:                -1.262
REMARK  Name = 
REMARK  7 active torsions:
REMARK  status: ('A' for Active; 'I' for Inactive)
REMARK    1  A    between atoms: C_1  and  O_2
REMARK    2  A    between atoms: O_2  and  C_3
REMARK    3  A    between atoms: C_7  and  C_8
REMARK    4  A    between atoms: C_12  and  C_13
REMARK    5  A    between atoms: C_13  and  N_14
REMARK    6  A    between atoms: N_14  and  C_15
REMARK    7  A    between atoms: C_18  and  C_19
REMARK                            x       y       z     vdW  Elec       q    Type
REMARK                         _______ _______ _______ _____ _____    ______ ____
ROOT
ATOM      1  C   UNL     1      43.844   5.126  11.382  0.00  0.00    +0.000 C 
ATOM      2  C   UNL     1      42.594   5.515  12.142  0.00  0.00    +0.000 C 
ATOM      3  C   UNL     1      43.082   4.110  12.237  0.00  0.00    +0.000 C 
ENDROOT
BRANCH   1   8
ATOM      4  C   UNL     1      46.958   5.512  13.648  0.00  0.00    +0.000 A 
ATOM      5  C   UNL     1      47.659   6.509  12.951  0.00  0.00    +0.000 A 
ATOM      6  C   UNL     1      47.162   7.030  11.751  0.00  0.00    +0.000 A 
ATOM      7  C   UNL     1      45.943   6.586  11.245  0.00  0.00    +0.000 A 
ATOM      8  C   UNL     1      45.194   5.605  11.908  0.00  0.00    +0.000 A 
ATOM      9  C   UNL     1      45.741   5.072  13.092  0.00  0.00    +0.000 A 
BRANCH   4  14
ATOM     10  C   UNL     1      48.744   5.178  16.991  0.00  0.00    +0.000 A 
ATOM     11  C   UNL     1      48.378   3.874  17.291  0.00  0.00    +0.000 A 
ATOM     12  N   UNL     1      47.598   3.100  16.503  0.00  0.00    +0.000 NA
ATOM     13  C   UNL     1      47.161   3.663  15.351  0.00  0.00    +0.000 A 
ATOM     14  C   UNL     1      47.460   4.960  14.926  0.00  0.00    +0.000 A 
ATOM     15  C   UNL     1      48.278   5.713  15.791  0.00  0.00    +0.000 A 
BRANCH  10  17
ATOM     16  C   UNL     1      50.043   5.017  18.973  0.00  0.00    +0.000 C 
ATOM     17  O   UNL     1      49.539   5.809  17.905  0.00  0.00    +0.000 OA
ENDBRANCH  10  17
ENDBRANCH   4  14
ENDBRANCH   1   8
BRANCH   1  18
ATOM     18  N   UNL     1      43.843   4.788   9.951  0.00  0.00    +0.000 N 
ATOM     19  H   UNL     1      42.924   4.726   9.527  0.00  0.00    +0.000 HD
BRANCH  18  20
ATOM     20  C   UNL     1      44.805   4.032   9.258  0.00  0.00    +0.000 A 
ATOM     21  C   UNL     1      45.683   4.546   8.302  0.00  0.00    +0.000 A 
ATOM     22  C   UNL     1      46.523   3.692   7.566  0.00  0.00    +0.000 A 
ATOM     23  C   UNL     1      46.482   2.307   7.765  0.00  0.00    +0.000 A 
ATOM     24  C   UNL     1      45.601   1.780   8.709  0.00  0.00    +0.000 A 
ATOM     25  C   UNL     1      44.774   2.639   9.440  0.00  0.00    +0.000 A 
BRANCH  23  26
ATOM     26  C   UNL     1      47.324   1.426   6.914  0.00  0.00    +0.000 C 
ATOM     27  N   UNL     1      48.290   2.019   6.146  0.00  0.00    +0.000 N 
ATOM     28  O   UNL     1      47.161   0.212   6.883  0.00  0.00    +0.000 OA
ATOM     29  H   UNL     1      48.320   3.011   5.970  0.00  0.00    +0.000 HD
ATOM     30  H   UNL     1      48.816   1.413   5.531  0.00  0.00    +0.000 HD
ENDBRANCH  23  26
ENDBRANCH  18  20
ENDBRANCH   1  18
TORSDOF 6
ENDMDL
MODEL 3
REMARK VINA RESULT:    -7.278      3.006      7.365
REMARK INTER + INTRA:         -11.093
REMARK INTER:                 -10.007
REMARK INTRA:                  -1.086
REMARK UNBOUND:                -1.262
REMARK  Name = 
REMARK  7 active torsions:
REMARK  status: ('A' for Active; 'I' for Inactive)
REMARK    1  A    between atoms: C_1  and  O_2
REMARK    2  A    between atoms: O_2  and  C_3
REMARK    3  A    between atoms: C_7  and  C_8
REMARK    4  A    between atoms: C_12  and  C_13
REMARK    5  A    between atoms: C_13  and  N_14
REMARK    6  A    between atoms: N_14  and  C_15
REMARK    7  A    between atoms: C_18  and  C_19
REMARK                            x       y       z     vdW  Elec       q    Type
REMARK                         _______ _______ _______ _____ _____    ______ ____
ROOT
ATOM      1  C   UNL     1      46.205   7.548  12.481  0.00  0.00    +0.000 C 
ATOM      2  C   UNL     1      45.685   8.841  13.072  0.00  0.00    +0.000 C 
ATOM      3  C   UNL     1      46.415   8.889  11.773  0.00  0.00    +0.000 C 
ENDROOT
BRANCH   1   8
ATOM      4  C   UNL     1      44.744   4.690  10.319  0.00  0.00    +0.000 A 
ATOM      5  C   UNL     1      43.380   4.805  10.632  0.00  0.00    +0.000 A 
ATOM      6  C   UNL     1      42.933   5.761  11.549  0.00  0.00    +0.000 A 
ATOM      7  C   UNL     1      43.835   6.638  12.146  0.00  0.00    +0.000 A 
ATOM      8  C   UNL     1      45.205   6.579  11.857  0.00  0.00    +0.000 A 
ATOM      9  C   UNL     1      45.629   5.578  10.960  0.00  0.00    +0.000 A 
BRANCH   4  14
ATOM     10  C   UNL     1      46.269   3.130   7.201  0.00  0.00    +0.000 A 
ATOM     11  C   UNL     1      46.120   1.794   7.545  0.00  0.00    +0.000 A 
ATOM     12  N   UNL     1      45.572   1.361   8.703  0.00  0.00    +0.000 NA
ATOM     13  C   UNL     1      45.150   2.318   9.564  0.00  0.00    +0.000 A 
ATOM     14  C   UNL     1      45.234   3.695   9.339  0.00  0.00    +0.000 A 
ATOM     15  C   UNL     1      45.813   4.080   8.115  0.00  0.00    +0.000 A 
BRANCH  10  17
ATOM     16  C   UNL     1      47.815   2.450   5.531  0.00  0.00    +0.000 C 
ATOM     17  O   UNL     1      46.843   3.382   5.989  0.00  0.00    +0.000 OA
ENDBRANCH  10  17
ENDBRANCH   4  14
ENDBRANCH   1   8
BRANCH   1  18
ATOM     18  N   UNL     1      47.466   6.920  12.905  0.00  0.00    +0.000 N 
ATOM     19  H   UNL     1      48.121   6.727  12.156  0.00  0.00    +0.000 HD
BRANCH  18  20
ATOM     20  C   UNL     1      47.662   6.084  14.019  0.00  0.00    +0.000 A 
ATOM     21  C   UNL     1      46.995   4.877  14.235  0.00  0.00    +0.000 A 
ATOM     22  C   UNL     1      47.158   4.173  15.440  0.00  0.00    +0.000 A 
ATOM     23  C   UNL     1      47.980   4.677  16.455  0.00  0.00    +0.000 A 
ATOM     24  C   UNL     1      48.643   5.888  16.256  0.00  0.00    +0.000 A 
ATOM     25  C   UNL     1      48.478   6.577  15.051  0.00  0.00    +0.000 A 
BRANCH  23  26
ATOM     26  C   UNL     1      48.067   3.949  17.748  0.00  0.00    +0.000 C 
ATOM     27  N   UNL     1      47.158   2.951  17.978  0.00  0.00    +0.000 N 
ATOM     28  O   UNL     1      48.912   4.230  18.591  0.00  0.00    +0.000 OA
ATOM     29  H   UNL     1      46.323   2.830  17.426  0.00  0.00    +0.000 HD
ATOM     30  H   UNL     1      47.194   2.504  18.885  0.00  0.00    +0.000 HD
ENDBRANCH  23  26
ENDBRANCH  18  20
ENDBRANCH   1  18
TORSDOF 6
ENDMDL
MODEL 4
REMARK VINA RESULT:    -6.940      3.260      7.555
REMARK INTER + INTRA:         -10.636
REMARK INTER:                 -10.407
REMARK INTRA:                  -0.229
REMARK UNBOUND:                -1.262
REMARK  Name = 
REMARK  7 active torsions:
REMARK  status: ('A' for Active; 'I' for Inactive)
REMARK    1  A    between atoms: C_1  and  O_2
REMARK    2  A    between atoms: O_2  and  C_3
REMARK    3  A    between atoms: C_7  and  C_8
REMARK    4  A    between atoms: C_12  and  C_13
REMARK    5  A    between atoms: C_13  and  N_14
REMARK    6  A    between atoms: N_14  and  C_15
REMARK    7  A    between atoms: C_18  and  C_19
REMARK                            x       y       z     vdW  Elec       q    Type
REMARK                         _______ _______ _______ _____ _____    ______ ____
ROOT
ATOM      1  C   UNL     1      48.586   8.034  12.639  0.00  0.00    +0.000 C 
ATOM      2  C   UNL     1      49.475   8.887  11.758  0.00  0.00    +0.000 C 
ATOM      3  C   UNL     1      49.692   7.412  11.782  0.00  0.00    +0.000 C 
ENDROOT
BRANCH   1   8
ATOM      4  C   UNL     1      45.480   6.356  11.054  0.00  0.00    +0.000 A 
ATOM      5  C   UNL     1      44.502   7.329  11.315  0.00  0.00    +0.000 A 
ATOM      6  C   UNL     1      44.821   8.495  12.019  0.00  0.00    +0.000 A 
ATOM      7  C   UNL     1      46.127   8.722  12.447  0.00  0.00    +0.000 A 
ATOM      8  C   UNL     1      47.145   7.792  12.200  0.00  0.00    +0.000 A 
ATOM      9  C   UNL     1      46.783   6.609  11.524  0.00  0.00    +0.000 A 
BRANCH   4  14
ATOM     10  C   UNL     1      45.379   3.721   8.310  0.00  0.00    +0.000 A 
ATOM     11  C   UNL     1      44.533   2.812   8.929  0.00  0.00    +0.000 A 
ATOM     12  N   UNL     1      44.000   2.980  10.160  0.00  0.00    +0.000 NA
ATOM     13  C   UNL     1      44.332   4.123  10.808  0.00  0.00    +0.000 A 
ATOM     14  C   UNL     1      45.165   5.123  10.298  0.00  0.00    +0.000 A 
ATOM     15  C   UNL     1      45.686   4.888   9.011  0.00  0.00    +0.000 A 
BRANCH  10  17
ATOM     16  C   UNL     1      46.910   2.474   6.990  0.00  0.00    +0.000 C 
ATOM     17  O   UNL     1      45.820   3.386   7.063  0.00  0.00    +0.000 OA
ENDBRANCH  10  17
ENDBRANCH   4  14
ENDBRANCH   1   8
BRANCH   1  18
ATOM     18  N   UNL     1      48.812   7.862  14.082  0.00  0.00    +0.000 N 
ATOM     19  H   UNL     1      49.578   8.406  14.463  0.00  0.00    +0.000 HD
BRANCH  18  20
ATOM     20  C   UNL     1      48.529   6.720  14.852  0.00  0.00    +0.000 A 
ATOM     21  C   UNL     1      47.694   5.676  14.450  0.00  0.00    +0.000 A 
ATOM     22  C   UNL     1      47.365   4.637  15.338  0.00  0.00    +0.000 A 
ATOM     23  C   UNL     1      47.855   4.639  16.650  0.00  0.00    +0.000 A 
ATOM     24  C   UNL     1      48.681   5.682  17.066  0.00  0.00    +0.000 A 
ATOM     25  C   UNL     1      49.007   6.707  16.174  0.00  0.00    +0.000 A 
BRANCH  23  26
ATOM     26  C   UNL     1      47.423   3.569  17.587  0.00  0.00    +0.000 C 
ATOM     27  N   UNL     1      48.229   3.300  18.660  0.00  0.00    +0.000 N 
ATOM     28  O   UNL     1      46.389   2.935  17.408  0.00  0.00    +0.000 OA
ATOM     29  H   UNL     1      49.178   3.631  18.731  0.00  0.00    +0.000 HD
ATOM     30  H   UNL     1      47.950   2.531  19.256  0.00  0.00    +0.000 HD
ENDBRANCH  23  26
ENDBRANCH  18  20
ENDBRANCH   1  18
TORSDOF 6
ENDMDL
MODEL 5
REMARK VINA RESULT:    -6.687      5.416      8.641
REMARK INTER + INTRA:         -10.295
REMARK INTER:                  -9.666
REMARK INTRA:                  -0.628
REMARK UNBOUND:                -1.262
REMARK  Name = 
REMARK  7 active torsions:
REMARK  status: ('A' for Active; 'I' for Inactive)
REMARK    1  A    between atoms: C_1  and  O_2
REMARK    2  A    between atoms: O_2  and  C_3
REMARK    3  A    between atoms: C_7  and  C_8
REMARK    4  A    between atoms: C_12  and  C_13
REMARK    5  A    between atoms: C_13  and  N_14
REMARK    6  A    between atoms: N_14  and  C_15
REMARK    7  A    between atoms: C_18  and  C_19
REMARK                            x       y       z     vdW  Elec       q    Type
REMARK                         _______ _______ _______ _____ _____    ______ ____
ROOT
ATOM      1  C   UNL     1      48.166   4.516  16.977  0.00  0.00    +0.000 C 
ATOM      2  C   UNL     1      47.243   3.421  17.470  0.00  0.00    +0.000 C 
ATOM      3  C   UNL     1      47.181   4.759  18.124  0.00  0.00    +0.000 C 
ENDROOT
BRANCH   1   8
ATOM      4  C   UNL     1      46.416   5.353  13.628  0.00  0.00    +0.000 A 
ATOM      5  C   UNL     1      47.279   6.342  13.130  0.00  0.00    +0.000 A 
ATOM      6  C   UNL     1      48.389   6.763  13.868  0.00  0.00    +0.000 A 
ATOM      7  C   UNL     1      48.674   6.184  15.102  0.00  0.00    +0.000 A 
ATOM      8  C   UNL     1      47.856   5.181  15.640  0.00  0.00    +0.000 A 
ATOM      9  C   UNL     1      46.723   4.808  14.890  0.00  0.00    +0.000 A 
BRANCH   4  14
ATOM     10  C   UNL     1      44.226   3.390  11.214  0.00  0.00    +0.000 A 
ATOM     11  C   UNL     1      43.030   4.058  11.431  0.00  0.00    +0.000 A 
ATOM     12  N   UNL     1      42.875   5.085  12.297  0.00  0.00    +0.000 NA
ATOM     13  C   UNL     1      43.980   5.464  12.983  0.00  0.00    +0.000 A 
ATOM     14  C   UNL     1      45.245   4.883  12.855  0.00  0.00    +0.000 A 
ATOM     15  C   UNL     1      45.339   3.820  11.936  0.00  0.00    +0.000 A 
BRANCH  10  17
ATOM     16  C   UNL     1      44.875   2.600   9.070  0.00  0.00    +0.000 C 
ATOM     17  O   UNL     1      44.196   2.376  10.300  0.00  0.00    +0.000 OA
ENDBRANCH  10  17
ENDBRANCH   4  14
ENDBRANCH   1   8
BRANCH   1  18
ATOM     18  N   UNL     1      49.572   4.630  17.394  0.00  0.00    +0.000 N 
ATOM     19  H   UNL     1      49.984   5.547  17.263  0.00  0.00    +0.000 HD
BRANCH  18  20
ATOM     20  C   UNL     1      50.535   3.606  17.412  0.00  0.00    +0.000 A 
ATOM     21  C   UNL     1      50.266   2.256  17.173  0.00  0.00    +0.000 A 
ATOM     22  C   UNL     1      51.267   1.284  17.341  0.00  0.00    +0.000 A 
ATOM     23  C   UNL     1      52.550   1.649  17.767  0.00  0.00    +0.000 A 
ATOM     24  C   UNL     1      52.828   2.992  18.019  0.00  0.00    +0.000 A 
ATOM     25  C   UNL     1      51.826   3.951  17.844  0.00  0.00    +0.000 A 
BRANCH  23  26
ATOM     26  C   UNL     1      53.562   0.588  18.012  0.00  0.00    +0.000 C 
ATOM     27  N   UNL     1      53.811  -0.299  16.999  0.00  0.00    +0.000 N 
ATOM     28  O   UNL     1      54.150   0.493  19.083  0.00  0.00    +0.000 OA
ATOM     29  H   UNL     1      53.210  -0.399  16.196  0.00  0.00    +0.000 HD
ATOM     30  H   UNL     1      54.460  -1.048  17.201  0.00  0.00    +0.000 HD
ENDBRANCH  23  26
ENDBRANCH  18  20
ENDBRANCH   1  18
TORSDOF 6
ENDMDL
MODEL 6
REMARK VINA RESULT:    -6.561      5.606      8.674
REMARK INTER + INTRA:         -10.125
REMARK INTER:                  -9.032
REMARK INTRA:                  -1.093
REMARK UNBOUND:                -1.262
REMARK  Name = 
REMARK  7 active torsions:
REMARK  status: ('A' for Active; 'I' for Inactive)
REMARK    1  A    between atoms: C_1  and  O_2
REMARK    2  A    between atoms: O_2  and  C_3
REMARK    3  A    between atoms: C_7  and  C_8
REMARK    4  A    between atoms: C_12  and  C_13
REMARK    5  A    between atoms: C_13  and  N_14
REMARK    6  A    between atoms: N_14  and  C_15
REMARK    7  A    between atoms: C_18  and  C_19
REMARK                            x       y       z     vdW  Elec       q    Type
REMARK                         _______ _______ _______ _____ _____    ______ ____
ROOT
ATOM      1  C   UNL     1      48.939   5.740  17.704  0.00  0.00    +0.000 C 
ATOM      2  C   UNL     1      47.640   5.215  18.278  0.00  0.00    +0.000 C 
ATOM      3  C   UNL     1      48.131   6.552  18.720  0.00  0.00    +0.000 C 
ENDROOT
BRANCH   1   8
ATOM      4  C   UNL     1      47.934   6.237  14.000  0.00  0.00    +0.000 A 
ATOM      5  C   UNL     1      48.962   7.090  13.568  0.00  0.00    +0.000 A 
ATOM      6  C   UNL     1      49.948   7.531  14.457  0.00  0.00    +0.000 A 
ATOM      7  C   UNL     1      49.941   7.104  15.782  0.00  0.00    +0.000 A 
ATOM      8  C   UNL     1      48.948   6.239  16.263  0.00  0.00    +0.000 A 
ATOM      9  C   UNL     1      47.947   5.846  15.353  0.00  0.00    +0.000 A 
BRANCH   4  14
ATOM     10  C   UNL     1      45.198   4.110  12.429  0.00  0.00    +0.000 A 
ATOM     11  C   UNL     1      44.965   4.877  11.297  0.00  0.00    +0.000 A 
ATOM     12  N   UNL     1      45.616   6.025  11.005  0.00  0.00    +0.000 NA
ATOM     13  C   UNL     1      46.553   6.428  11.897  0.00  0.00    +0.000 A 
ATOM     14  C   UNL     1      46.891   5.748  13.071  0.00  0.00    +0.000 A 
ATOM     15  C   UNL     1      46.177   4.558  13.315  0.00  0.00    +0.000 A 
BRANCH  10  17
ATOM     16  C   UNL     1      43.325   2.848  11.692  0.00  0.00    +0.000 C 
ATOM     17  O   UNL     1      44.446   2.978  12.558  0.00  0.00    +0.000 OA
ENDBRANCH  10  17
ENDBRANCH   4  14
ENDBRANCH   1   8
BRANCH   1  18
ATOM     18  N   UNL     1      50.261   5.340  18.210  0.00  0.00    +0.000 N 
ATOM     19  H   UNL     1      50.891   6.107  18.414  0.00  0.00    +0.000 HD
BRANCH  18  20
ATOM     20  C   UNL     1      50.944   4.141  17.937  0.00  0.00    +0.000 A 
ATOM     21  C   UNL     1      50.346   2.978  17.447  0.00  0.00    +0.000 A 
ATOM     22  C   UNL     1      51.083   1.788  17.328  0.00  0.00    +0.000 A 
ATOM     23  C   UNL     1      52.428   1.740  17.715  0.00  0.00    +0.000 A 
ATOM     24  C   UNL     1      53.033   2.892  18.217  0.00  0.00    +0.000 A 
ATOM     25  C   UNL     1      52.292   4.072  18.325  0.00  0.00    +0.000 A 
BRANCH  23  26
ATOM     26  C   UNL     1      53.155   0.445  17.652  0.00  0.00    +0.000 C 
ATOM     27  N   UNL     1      52.716  -0.571  18.458  0.00  0.00    +0.000 N 
ATOM     28  O   UNL     1      54.123   0.285  16.917  0.00  0.00    +0.000 OA
ATOM     29  H   UNL     1      52.078  -0.427  19.226  0.00  0.00    +0.000 HD
ATOM     30  H   UNL     1      53.256  -1.426  18.445  0.00  0.00    +0.000 HD
ENDBRANCH  23  26
ENDBRANCH  18  20
ENDBRANCH   1  18
TORSDOF 6
ENDMDL
MODEL 7
REMARK VINA RESULT:    -6.434      3.675      8.454
REMARK INTER + INTRA:          -9.953
REMARK INTER:                  -8.729
REMARK INTRA:                  -1.224
REMARK UNBOUND:                -1.262
REMARK  Name = 
REMARK  7 active torsions:
REMARK  status: ('A' for Active; 'I' for Inactive)
REMARK    1  A    between atoms: C_1  and  O_2
REMARK    2  A    between atoms: O_2  and  C_3
REMARK    3  A    between atoms: C_7  and  C_8
REMARK    4  A    between atoms: C_12  and  C_13
REMARK    5  A    between atoms: C_13  and  N_14
REMARK    6  A    between atoms: N_14  and  C_15
REMARK    7  A    between atoms: C_18  and  C_19
REMARK                            x       y       z     vdW  Elec       q    Type
REMARK                         _______ _______ _______ _____ _____    ______ ____
ROOT
ATOM      1  C   UNL     1      49.235   7.911  12.720  0.00  0.00    +0.000 C 
ATOM      2  C   UNL     1      50.006   9.075  12.135  0.00  0.00    +0.000 C 
ATOM      3  C   UNL     1      50.101   7.745  11.469  0.00  0.00    +0.000 C 
ENDROOT
BRANCH   1   8
ATOM      4  C   UNL     1      45.657   6.558  12.128  0.00  0.00    +0.000 A 
ATOM      5  C   UNL     1      44.929   7.758  12.113  0.00  0.00    +0.000 A 
ATOM      6  C   UNL     1      45.566   8.986  12.324  0.00  0.00    +0.000 A 
ATOM      7  C   UNL     1      46.944   9.038  12.522  0.00  0.00    +0.000 A 
ATOM      8  C   UNL     1      47.722   7.872  12.530  0.00  0.00    +0.000 A 
ATOM      9  C   UNL     1      47.044   6.649  12.356  0.00  0.00    +0.000 A 
BRANCH   4  14
ATOM     10  C   UNL     1      44.347   3.426  10.409  0.00  0.00    +0.000 A 
ATOM     11  C   UNL     1      43.759   2.818  11.509  0.00  0.00    +0.000 A 
ATOM     12  N   UNL     1      43.758   3.336  12.758  0.00  0.00    +0.000 NA
ATOM     13  C   UNL     1      44.380   4.530  12.914  0.00  0.00    +0.000 A 
ATOM     14  C   UNL     1      45.004   5.251  11.892  0.00  0.00    +0.000 A 
ATOM     15  C   UNL     1      44.968   4.658  10.616  0.00  0.00    +0.000 A 
BRANCH  10  17
ATOM     16  C   UNL     1      45.296   1.848   8.909  0.00  0.00    +0.000 C 
ATOM     17  O   UNL     1      44.249   2.758   9.223  0.00  0.00    +0.000 OA
ENDBRANCH  10  17
ENDBRANCH   4  14
ENDBRANCH   1   8
BRANCH   1  18
ATOM     18  N   UNL     1      49.718   7.119  13.862  0.00  0.00    +0.000 N 
ATOM     19  H   UNL     1      50.191   6.257  13.615  0.00  0.00    +0.000 HD
BRANCH  18  20
ATOM     20  C   UNL     1      49.170   7.080  15.157  0.00  0.00    +0.000 A 
ATOM     21  C   UNL     1      49.202   8.138  16.066  0.00  0.00    +0.000 A 
ATOM     22  C   UNL     1      48.746   7.966  17.385  0.00  0.00    +0.000 A 
ATOM     23  C   UNL     1      48.267   6.723  17.816  0.00  0.00    +0.000 A 
ATOM     24  C   UNL     1      48.241   5.655  16.920  0.00  0.00    +0.000 A 
ATOM     25  C   UNL     1      48.691   5.839  15.609  0.00  0.00    +0.000 A 
BRANCH  23  26
ATOM     26  C   UNL     1      47.868   6.553  19.238  0.00  0.00    +0.000 C 
ATOM     27  N   UNL     1      47.551   5.291  19.663  0.00  0.00    +0.000 N 
ATOM     28  O   UNL     1      47.810   7.504  20.009  0.00  0.00    +0.000 OA
ATOM     29  H   UNL     1      47.373   4.526  19.031  0.00  0.00    +0.000 HD
ATOM     30  H   UNL     1      47.227   5.201  20.617  0.00  0.00    +0.000 HD
ENDBRANCH  23  26
ENDBRANCH  18  20
ENDBRANCH   1  18
TORSDOF 6
ENDMDL
MODEL 8
REMARK VINA RESULT:    -6.358      3.971      6.282
REMARK INTER + INTRA:          -9.851
REMARK INTER:                  -8.741
REMARK INTRA:                  -1.110
REMARK UNBOUND:                -1.262
REMARK  Name = 
REMARK  7 active torsions:
REMARK  status: ('A' for Active; 'I' for Inactive)
REMARK    1  A    between atoms: C_1  and  O_2
REMARK    2  A    between atoms: O_2  and  C_3
REMARK    3  A    between atoms: C_7  and  C_8
REMARK    4  A    between atoms: C_12  and  C_13
REMARK    5  A    between atoms: C_13  and  N_14
REMARK    6  A    between atoms: N_14  and  C_15
REMARK    7  A    between atoms: C_18  and  C_19
REMARK                            x       y       z     vdW  Elec       q    Type
REMARK                         _______ _______ _______ _____ _____    ______ ____
ROOT
ATOM      1  C   UNL     1      48.240   8.144  12.562  0.00  0.00    +0.000 C 
ATOM      2  C   UNL     1      49.402   7.743  11.679  0.00  0.00    +0.000 C 
ATOM      3  C   UNL     1      49.070   9.190  11.813  0.00  0.00    +0.000 C 
ENDROOT
BRANCH   1   8
ATOM      4  C   UNL     1      48.848   6.711  16.105  0.00  0.00    +0.000 A 
ATOM      5  C   UNL     1      48.689   7.870  16.881  0.00  0.00    +0.000 A 
ATOM      6  C   UNL     1      48.425   9.104  16.279  0.00  0.00    +0.000 A 
ATOM      7  C   UNL     1      48.284   9.197  14.897  0.00  0.00    +0.000 A 
ATOM      8  C   UNL     1      48.416   8.068  14.076  0.00  0.00    +0.000 A 
ATOM      9  C   UNL     1      48.723   6.848  14.709  0.00  0.00    +0.000 A 
BRANCH   4  14
ATOM     10  C   UNL     1      50.633   3.775  17.741  0.00  0.00    +0.000 A 
ATOM     11  C   UNL     1      49.549   2.917  17.862  0.00  0.00    +0.000 A 
ATOM     12  N   UNL     1      48.292   3.214  17.463  0.00  0.00    +0.000 NA
ATOM     13  C   UNL     1      48.109   4.438  16.912  0.00  0.00    +0.000 A 
ATOM     14  C   UNL     1      49.113   5.393  16.725  0.00  0.00    +0.000 A 
ATOM     15  C   UNL     1      50.399   5.021  17.160  0.00  0.00    +0.000 A 
BRANCH  10  17
ATOM     16  C   UNL     1      52.210   2.000  17.780  0.00  0.00    +0.000 C 
ATOM     17  O   UNL     1      51.831   3.305  18.197  0.00  0.00    +0.000 OA
ENDBRANCH  10  17
ENDBRANCH   4  14
ENDBRANCH   1   8
BRANCH   1  18
ATOM     18  N   UNL     1      46.839   8.098  12.117  0.00  0.00    +0.000 N 
ATOM     19  H   UNL     1      46.303   8.938  12.304  0.00  0.00    +0.000 HD
BRANCH  18  20
ATOM     20  C   UNL     1      46.026   6.957  11.999  0.00  0.00    +0.000 A 
ATOM     21  C   UNL     1      45.374   6.331  13.064  0.00  0.00    +0.000 A 
ATOM     22  C   UNL     1      44.688   5.119  12.873  0.00  0.00    +0.000 A 
ATOM     23  C   UNL     1      44.661   4.506  11.614  0.00  0.00    +0.000 A 
ATOM     24  C   UNL     1      45.318   5.116  10.545  0.00  0.00    +0.000 A 
ATOM     25  C   UNL     1      45.992   6.324  10.745  0.00  0.00    +0.000 A 
BRANCH  23  26
ATOM     26  C   UNL     1      43.996   3.185  11.464  0.00  0.00    +0.000 C 
ATOM     27  N   UNL     1      43.735   2.473  12.603  0.00  0.00    +0.000 N 
ATOM     28  O   UNL     1      43.698   2.734  10.364  0.00  0.00    +0.000 OA
ATOM     29  H   UNL     1      44.148   2.692  13.496  0.00  0.00    +0.000 HD
ATOM     30  H   UNL     1      43.334   1.552  12.481  0.00  0.00    +0.000 HD
ENDBRANCH  23  26
ENDBRANCH  18  20
ENDBRANCH   1  18
TORSDOF 6
ENDMDL
MODEL 9
REMARK VINA RESULT:    -6.170      2.609      7.534
REMARK INTER + INTRA:          -9.596
REMARK INTER:                  -8.631
REMARK INTRA:                  -0.965
REMARK UNBOUND:                -1.262
REMARK  Name = 
REMARK  7 active torsions:
REMARK  status: ('A' for Active; 'I' for Inactive)
REMARK    1  A    between atoms: C_1  and  O_2
REMARK    2  A    between atoms: O_2  and  C_3
REMARK    3  A    between atoms: C_7  and  C_8
REMARK    4  A    between atoms: C_12  and  C_13
REMARK    5  A    between atoms: C_13  and  N_14
REMARK    6  A    between atoms: N_14  and  C_15
REMARK    7  A    between atoms: C_18  and  C_19
REMARK                            x       y       z     vdW  Elec       q    Type
REMARK                         _______ _______ _______ _____ _____    ______ ____
ROOT
ATOM      1  C   UNL     1      45.922   7.798  12.011  0.00  0.00    +0.000 C 
ATOM      2  C   UNL     1      45.323   8.899  12.861  0.00  0.00    +0.000 C 
ATOM      3  C   UNL     1      45.663   9.194  11.439  0.00  0.00    +0.000 C 
ENDROOT
BRANCH   1   8
ATOM      4  C   UNL     1      44.686   4.628  10.166  0.00  0.00    +0.000 A 
ATOM      5  C   UNL     1      43.345   4.598  10.581  0.00  0.00    +0.000 A 
ATOM      6  C   UNL     1      42.847   5.558  11.468  0.00  0.00    +0.000 A 
ATOM      7  C   UNL     1      43.670   6.582  11.930  0.00  0.00    +0.000 A 
ATOM      8  C   UNL     1      45.012   6.670  11.536  0.00  0.00    +0.000 A 
ATOM      9  C   UNL     1      45.494   5.664  10.674  0.00  0.00    +0.000 A 
BRANCH   4  14
ATOM     10  C   UNL     1      46.289   3.055   7.095  0.00  0.00    +0.000 A 
ATOM     11  C   UNL     1      46.210   1.724   7.481  0.00  0.00    +0.000 A 
ATOM     12  N   UNL     1      45.687   1.298   8.652  0.00  0.00    +0.000 NA
ATOM     13  C   UNL     1      45.216   2.258   9.484  0.00  0.00    +0.000 A 
ATOM     14  C   UNL     1      45.227   3.630   9.217  0.00  0.00    +0.000 A 
ATOM     15  C   UNL     1      45.784   4.007   7.980  0.00  0.00    +0.000 A 
BRANCH  10  17
ATOM     16  C   UNL     1      47.885   2.419   5.454  0.00  0.00    +0.000 C 
ATOM     17  O   UNL     1      46.849   3.299   5.874  0.00  0.00    +0.000 OA
ENDBRANCH  10  17
ENDBRANCH   4  14
ENDBRANCH   1   8
BRANCH   1  18
ATOM     18  N   UNL     1      47.350   7.446  12.042  0.00  0.00    +0.000 N 
ATOM     19  H   UNL     1      47.646   6.798  11.321  0.00  0.00    +0.000 HD
BRANCH  18  20
ATOM     20  C   UNL     1      48.191   7.417  13.168  0.00  0.00    +0.000 A 
ATOM     21  C   UNL     1      49.403   8.102  13.274  0.00  0.00    +0.000 A 
ATOM     22  C   UNL     1      50.241   7.911  14.386  0.00  0.00    +0.000 A 
ATOM     23  C   UNL     1      49.884   7.016  15.402  0.00  0.00    +0.000 A 
ATOM     24  C   UNL     1      48.681   6.318  15.302  0.00  0.00    +0.000 A 
ATOM     25  C   UNL     1      47.852   6.520  14.195  0.00  0.00    +0.000 A 
BRANCH  23  26
ATOM     26  C   UNL     1      50.829   6.777  16.523  0.00  0.00    +0.000 C 
ATOM     27  N   UNL     1      50.454   7.195  17.772  0.00  0.00    +0.000 N 
ATOM     28  O   UNL     1      51.915   6.235  16.347  0.00  0.00    +0.000 OA
ATOM     29  H   UNL     1      49.687   7.829  17.932  0.00  0.00    +0.000 HD
ATOM     30  H   UNL     1      51.132   7.076  18.513  0.00  0.00    +0.000 HD
ENDBRANCH  23  26
ENDBRANCH  18  20
ENDBRANCH   1  18
TORSDOF 6
ENDMDL
