MODEL 1
REMARK VINA RESULT:    -8.528      0.000      0.000
REMARK INTER + INTRA:         -12.519
REMARK INTER:                 -11.769
REMARK INTRA:                  -0.750
REMARK UNBOUND:                -0.750
REMARK  Name = 
REMARK  7 active torsions:
REMARK  status: ('A' for Active; 'I' for Inactive)
REMARK    1  A    between atoms: N_1  and  C_2
REMARK    2  A    between atoms: C_2  and  C_3
REMARK    3  A    between atoms: C_2  and  C_17
REMARK    4  A    between atoms: C_3  and  N_4
REMARK    5  A    between atoms: C_5  and  C_7
REMARK    6  A    between atoms: C_20  and  C_21
REMARK    7  A    between atoms: C_21  and  N_22
REMARK                            x       y       z     vdW  Elec       q    Type
REMARK                         _______ _______ _______ _____ _____    ______ ____
ROOT
ATOM      1  C   UNL     1      48.384   6.654  14.236  0.00  0.00    +0.000 C 
ENDROOT
BRANCH   1   2
ATOM      2  C   UNL     1      47.353   5.927  13.373  0.00  0.00    +0.000 A 
ATOM      3  C   UNL     1      46.920   4.628  13.699  0.00  0.00    +0.000 A 
ATOM      4  C   UNL     1      45.959   3.963  12.926  0.00  0.00    +0.000 A 
ATOM      5  C   UNL     1      45.392   4.582  11.805  0.00  0.00    +0.000 A 
ATOM      6  C   UNL     1      45.772   5.891  11.506  0.00  0.00    +0.000 A 
ATOM      7  C   UNL     1      46.734   6.552  12.279  0.00  0.00    +0.000 A 
BRANCH   5   8
ATOM      8  C   UNL     1      44.364   3.873  10.962  0.00  0.00    +0.000 C 
BRANCH   8   9
ATOM      9  N   UNL     1      44.988   3.057   9.947  0.00  0.00    +0.000 N 
ATOM     10  C   UNL     1      45.302   3.605   8.732  0.00  0.00    +0.000 C 
ATOM     11  O   UNL     1      44.993   4.754   8.427  0.00  0.00    +0.000 OA
ATOM     12  N   UNL     1      45.996   2.775   7.884  0.00  0.00    +0.000 N 
ATOM     13  C   UNL     1      46.302   1.366   8.046  0.00  0.00    +0.000 C 
ATOM     14  C   UNL     1      47.536   1.187   7.182  0.00  0.00    +0.000 C 
ATOM     15  C   UNL     1      47.260   2.099   5.992  0.00  0.00    +0.000 C 
ATOM     16  C   UNL     1      46.415   3.234   6.570  0.00  0.00    +0.000 C 
ATOM     17  H   UNL     1      45.621   2.357  10.291  0.00  0.00    +0.000 HD
ENDBRANCH   8   9
ENDBRANCH   5   8
ENDBRANCH   1   2
BRANCH   1  18
ATOM     18  N   UNL     1      48.358   8.119  14.005  0.00  0.00    +0.000 NA
ATOM     19  H   UNL     1      47.461   8.346  13.576  0.00  0.00    +0.000 HD
ATOM     20  H   UNL     1      49.066   8.347  13.309  0.00  0.00    +0.000 HD
ENDBRANCH   1  18
BRANCH   1  21
ATOM     21  C   UNL     1      48.233   6.391  15.765  0.00  0.00    +0.000 C 
BRANCH  21  22
ATOM     22  N   UNL     1      49.398   5.748  16.353  0.00  0.00    +0.000 N 
ATOM     23  C   UNL     1      49.271   4.844  17.381  0.00  0.00    +0.000 C 
ATOM     24  O   UNL     1      48.173   4.479  17.791  0.00  0.00    +0.000 OA
ATOM     25  H   UNL     1      50.307   6.151  16.149  0.00  0.00    +0.000 HD
BRANCH  23  26
ATOM     26  C   UNL     1      50.516   4.304  17.940  0.00  0.00    +0.000 A 
ATOM     27  C   UNL     1      51.298   5.099  18.766  0.00  0.00    +0.000 A 
ATOM     28  S   UNL     1      52.695   4.314  19.348  0.00  0.00    +0.000 S 
ATOM     29  C   UNL     1      52.334   2.902  18.470  0.00  0.00    +0.000 A 
ATOM     30  N   UNL     1      53.161   1.826  18.507  0.00  0.00    +0.000 NA
ATOM     31  C   UNL     1      52.789   0.838  17.765  0.00  0.00    +0.000 A 
ATOM     32  N   UNL     1      51.653   0.825  16.996  0.00  0.00    +0.000 N 
ATOM     33  C   UNL     1      50.754   1.864  16.979  0.00  0.00    +0.000 A 
ATOM     34  O   UNL     1      49.697   1.779  16.362  0.00  0.00    +0.000 OA
ATOM     35  C   UNL     1      51.145   3.015  17.766  0.00  0.00    +0.000 A 
ATOM     36  H   UNL     1      51.407   0.010  16.455  0.00  0.00    +0.000 HD
ENDBRANCH  23  26
ENDBRANCH  21  22
ENDBRANCH   1  21
TORSDOF 7
ENDMDL
MODEL 2
REMARK VINA RESULT:    -8.101      3.553      9.802
REMARK INTER + INTRA:         -11.928
REMARK INTER:                 -11.045
REMARK INTRA:                  -0.883
REMARK UNBOUND:                -0.750
REMARK  Name = 
REMARK  7 active torsions:
REMARK  status: ('A' for Active; 'I' for Inactive)
REMARK    1  A    between atoms: N_1  and  C_2
REMARK    2  A    between atoms: C_2  and  C_3
REMARK    3  A    between atoms: C_2  and  C_17
REMARK    4  A    between atoms: C_3  and  N_4
REMARK    5  A    between atoms: C_5  and  C_7
REMARK    6  A    between atoms: C_20  and  C_21
REMARK    7  A    between atoms: C_21  and  N_22
REMARK                            x       y       z     vdW  Elec       q    Type
REMARK                         _______ _______ _______ _____ _____    ______ ____
ROOT
ATOM      1  C   UNL     1      48.054   3.351  16.731  0.00  0.00    +0.000 C 
ENDROOT
BRANCH   1   2
ATOM      2  C   UNL     1      49.479   3.038  17.185  0.00  0.00    +0.000 A 
ATOM      3  C   UNL     1      50.053   1.774  16.956  0.00  0.00    +0.000 A 
ATOM      4  C   UNL     1      51.366   1.485  17.351  0.00  0.00    +0.000 A 
ATOM      5  C   UNL     1      52.153   2.459  17.978  0.00  0.00    +0.000 A 
ATOM      6  C   UNL     1      51.613   3.734  18.159  0.00  0.00    +0.000 A 
ATOM      7  C   UNL     1      50.300   4.018  17.766  0.00  0.00    +0.000 A 
BRANCH   5   8
ATOM      8  C   UNL     1      53.564   2.158  18.413  0.00  0.00    +0.000 C 
BRANCH   8   9
ATOM      9  N   UNL     1      54.121   1.056  17.665  0.00  0.00    +0.000 N 
ATOM     10  C   UNL     1      54.534  -0.073  18.321  0.00  0.00    +0.000 C 
ATOM     11  O   UNL     1      54.535  -0.160  19.547  0.00  0.00    +0.000 OA
ATOM     12  N   UNL     1      54.940  -1.102  17.506  0.00  0.00    +0.000 N 
ATOM     13  C   UNL     1      55.129  -1.096  16.067  0.00  0.00    +0.000 C 
ATOM     14  C   UNL     1      54.961  -2.558  15.698  0.00  0.00    +0.000 C 
ATOM     15  C   UNL     1      55.616  -3.286  16.868  0.00  0.00    +0.000 C 
ATOM     16  C   UNL     1      55.382  -2.368  18.068  0.00  0.00    +0.000 C 
ATOM     17  H   UNL     1      53.724   0.915  16.753  0.00  0.00    +0.000 HD
ENDBRANCH   8   9
ENDBRANCH   5   8
ENDBRANCH   1   2
BRANCH   1  18
ATOM     18  N   UNL     1      47.054   2.970  17.758  0.00  0.00    +0.000 NA
ATOM     19  H   UNL     1      47.112   1.959  17.883  0.00  0.00    +0.000 HD
ATOM     20  H   UNL     1      46.123   3.152  17.383  0.00  0.00    +0.000 HD
ENDBRANCH   1  18
BRANCH   1  21
ATOM     21  C   UNL     1      47.823   4.843  16.345  0.00  0.00    +0.000 C 
BRANCH  21  22
ATOM     22  N   UNL     1      46.920   5.010  15.217  0.00  0.00    +0.000 N 
ATOM     23  C   UNL     1      47.299   5.712  14.097  0.00  0.00    +0.000 C 
ATOM     24  O   UNL     1      48.436   6.156  13.965  0.00  0.00    +0.000 OA
ATOM     25  H   UNL     1      45.939   4.800  15.369  0.00  0.00    +0.000 HD
BRANCH  23  26
ATOM     26  C   UNL     1      46.288   5.871  13.046  0.00  0.00    +0.000 A 
ATOM     27  C   UNL     1      45.939   7.144  12.617  0.00  0.00    +0.000 A 
ATOM     28  S   UNL     1      44.769   7.152  11.377  0.00  0.00    +0.000 S 
ATOM     29  C   UNL     1      44.644   5.455  11.410  0.00  0.00    +0.000 A 
ATOM     30  N   UNL     1      43.779   4.803  10.592  0.00  0.00    +0.000 NA
ATOM     31  C   UNL     1      43.756   3.522  10.747  0.00  0.00    +0.000 A 
ATOM     32  N   UNL     1      44.534   2.832  11.641  0.00  0.00    +0.000 N 
ATOM     33  C   UNL     1      45.470   3.443  12.440  0.00  0.00    +0.000 A 
ATOM     34  O   UNL     1      46.222   2.786  13.154  0.00  0.00    +0.000 OA
ATOM     35  C   UNL     1      45.507   4.886  12.333  0.00  0.00    +0.000 A 
ATOM     36  H   UNL     1      44.485   1.825  11.697  0.00  0.00    +0.000 HD
ENDBRANCH  23  26
ENDBRANCH  21  22
ENDBRANCH   1  21
TORSDOF 7
ENDMDL
MODEL 3
REMARK VINA RESULT:    -7.882      3.039      4.410
REMARK INTER + INTRA:         -11.627
REMARK INTER:                 -11.155
REMARK INTRA:                  -0.472
REMARK UNBOUND:                -0.750
REMARK  Name = 
REMARK  7 active torsions:
REMARK  status: ('A' for Active; 'I' for Inactive)
REMARK    1  A    between atoms: N_1  and  C_2
REMARK    2  A    between atoms: C_2  and  C_3
REMARK    3  A    between atoms: C_2  and  C_17
REMARK    4  A    between atoms: C_3  and  N_4
REMARK    5  A    between atoms: C_5  and  C_7
REMARK    6  A    between atoms: C_20  and  C_21
REMARK    7  A    between atoms: C_21  and  N_22
REMARK                            x       y       z     vdW  Elec       q    Type
REMARK                         _______ _______ _______ _____ _____    ______ ____
ROOT
ATOM      1  C   UNL     1      47.650   7.571  13.598  0.00  0.00    +0.000 C 
ENDROOT
BRANCH   1   2
ATOM      2  C   UNL     1      46.728   6.569  12.904  0.00  0.00    +0.000 A 
ATOM      3  C   UNL     1      45.930   6.952  11.810  0.00  0.00    +0.000 A 
ATOM      4  C   UNL     1      45.098   6.035  11.155  0.00  0.00    +0.000 A 
ATOM      5  C   UNL     1      45.046   4.698  11.568  0.00  0.00    +0.000 A 
ATOM      6  C   UNL     1      45.876   4.293  12.615  0.00  0.00    +0.000 A 
ATOM      7  C   UNL     1      46.704   5.213  13.269  0.00  0.00    +0.000 A 
BRANCH   5   8
ATOM      8  C   UNL     1      44.150   3.704  10.875  0.00  0.00    +0.000 C 
BRANCH   8   9
ATOM      9  N   UNL     1      44.874   2.943   9.885  0.00  0.00    +0.000 N 
ATOM     10  C   UNL     1      45.141   3.498   8.662  0.00  0.00    +0.000 C 
ATOM     11  O   UNL     1      44.709   4.599   8.329  0.00  0.00    +0.000 OA
ATOM     12  N   UNL     1      45.933   2.734   7.839  0.00  0.00    +0.000 N 
ATOM     13  C   UNL     1      46.392   1.372   8.034  0.00  0.00    +0.000 C 
ATOM     14  C   UNL     1      47.650   1.314   7.188  0.00  0.00    +0.000 C 
ATOM     15  C   UNL     1      47.289   2.166   5.975  0.00  0.00    +0.000 C 
ATOM     16  C   UNL     1      46.315   3.211   6.520  0.00  0.00    +0.000 C 
ATOM     17  H   UNL     1      45.576   2.325  10.251  0.00  0.00    +0.000 HD
ENDBRANCH   8   9
ENDBRANCH   5   8
ENDBRANCH   1   2
BRANCH   1  18
ATOM     18  N   UNL     1      46.883   8.583  14.366  0.00  0.00    +0.000 NA
ATOM     19  H   UNL     1      46.334   8.086  15.067  0.00  0.00    +0.000 HD
ATOM     20  H   UNL     1      46.207   9.017  13.738  0.00  0.00    +0.000 HD
ENDBRANCH   1  18
BRANCH   1  21
ATOM     21  C   UNL     1      48.697   6.918  14.550  0.00  0.00    +0.000 C 
BRANCH  21  22
ATOM     22  N   UNL     1      48.388   7.107  15.959  0.00  0.00    +0.000 N 
ATOM     23  C   UNL     1      48.789   6.196  16.906  0.00  0.00    +0.000 C 
ATOM     24  O   UNL     1      49.492   5.231  16.620  0.00  0.00    +0.000 OA
ATOM     25  H   UNL     1      47.679   7.795  16.193  0.00  0.00    +0.000 HD
BRANCH  23  26
ATOM     26  C   UNL     1      48.369   6.455  18.288  0.00  0.00    +0.000 A 
ATOM     27  C   UNL     1      48.315   5.406  19.196  0.00  0.00    +0.000 A 
ATOM     28  S   UNL     1      47.831   5.880  20.760  0.00  0.00    +0.000 S 
ATOM     29  C   UNL     1      47.621   7.494  20.265  0.00  0.00    +0.000 A 
ATOM     30  N   UNL     1      47.185   8.440  21.137  0.00  0.00    +0.000 NA
ATOM     31  C   UNL     1      47.032   9.613  20.621  0.00  0.00    +0.000 A 
ATOM     32  N   UNL     1      47.288   9.929  19.312  0.00  0.00    +0.000 N 
ATOM     33  C   UNL     1      47.792   9.020  18.412  0.00  0.00    +0.000 A 
ATOM     34  O   UNL     1      48.108   9.360  17.276  0.00  0.00    +0.000 OA
ATOM     35  C   UNL     1      47.946   7.677  18.931  0.00  0.00    +0.000 A 
ATOM     36  H   UNL     1      47.169  10.873  18.976  0.00  0.00    +0.000 HD
ENDBRANCH  23  26
ENDBRANCH  21  22
ENDBRANCH   1  21
TORSDOF 7
ENDMDL
MODEL 4
REMARK VINA RESULT:    -7.573      3.633      4.385
REMARK INTER + INTRA:         -11.200
REMARK INTER:                 -10.363
REMARK INTRA:                  -0.837
REMARK UNBOUND:                -0.750
REMARK  Name = 
REMARK  7 active torsions:
REMARK  status: ('A' for Active; 'I' for Inactive)
REMARK    1  A    between atoms: N_1  and  C_2
REMARK    2  A    between atoms: C_2  and  C_3
REMARK    3  A    between atoms: C_2  and  C_17
REMARK    4  A    between atoms: C_3  and  N_4
REMARK    5  A    between atoms: C_5  and  C_7
REMARK    6  A    between atoms: C_20  and  C_21
REMARK    7  A    between atoms: C_21  and  N_22
REMARK                            x       y       z     vdW  Elec       q    Type
REMARK                         _______ _______ _______ _____ _____    ______ ____
ROOT
ATOM      1  C   UNL     1      48.248   7.282  13.671  0.00  0.00    +0.000 C 
ENDROOT
BRANCH   1   2
ATOM      2  C   UNL     1      47.180   6.514  12.893  0.00  0.00    +0.000 A 
ATOM      3  C   UNL     1      46.886   5.171  13.193  0.00  0.00    +0.000 A 
ATOM      4  C   UNL     1      45.894   4.467  12.498  0.00  0.00    +0.000 A 
ATOM      5  C   UNL     1      45.154   5.089  11.485  0.00  0.00    +0.000 A 
ATOM      6  C   UNL     1      45.397   6.438  11.218  0.00  0.00    +0.000 A 
ATOM      7  C   UNL     1      46.391   7.138  11.912  0.00  0.00    +0.000 A 
BRANCH   5   8
ATOM      8  C   UNL     1      44.090   4.339  10.726  0.00  0.00    +0.000 C 
BRANCH   8   9
ATOM      9  N   UNL     1      44.669   3.361   9.837  0.00  0.00    +0.000 N 
ATOM     10  C   UNL     1      45.239   3.764   8.659  0.00  0.00    +0.000 C 
ATOM     11  O   UNL     1      45.202   4.930   8.274  0.00  0.00    +0.000 OA
ATOM     12  N   UNL     1      45.862   2.769   7.945  0.00  0.00    +0.000 N 
ATOM     13  C   UNL     1      45.864   1.340   8.197  0.00  0.00    +0.000 C 
ATOM     14  C   UNL     1      47.141   0.879   7.520  0.00  0.00    +0.000 C 
ATOM     15  C   UNL     1      47.204   1.753   6.271  0.00  0.00    +0.000 C 
ATOM     16  C   UNL     1      46.529   3.060   6.686  0.00  0.00    +0.000 C 
ATOM     17  H   UNL     1      45.103   2.576  10.290  0.00  0.00    +0.000 HD
ENDBRANCH   8   9
ENDBRANCH   5   8
ENDBRANCH   1   2
BRANCH   1  18
ATOM     18  N   UNL     1      49.520   7.374  12.914  0.00  0.00    +0.000 NA
ATOM     19  H   UNL     1      50.090   6.568  13.171  0.00  0.00    +0.000 HD
ATOM     20  H   UNL     1      50.030   8.193  13.242  0.00  0.00    +0.000 HD
ENDBRANCH   1  18
BRANCH   1  21
ATOM     21  C   UNL     1      47.817   8.719  14.093  0.00  0.00    +0.000 C 
BRANCH  21  22
ATOM     22  N   UNL     1      47.512   8.833  15.511  0.00  0.00    +0.000 N 
ATOM     23  C   UNL     1      48.381   9.449  16.380  0.00  0.00    +0.000 C 
ATOM     24  O   UNL     1      49.407   9.999  15.990  0.00  0.00    +0.000 OA
ATOM     25  H   UNL     1      46.765   8.252  15.876  0.00  0.00    +0.000 HD
BRANCH  23  26
ATOM     26  C   UNL     1      48.001   9.453  17.797  0.00  0.00    +0.000 A 
ATOM     27  C   UNL     1      47.697  10.654  18.423  0.00  0.00    +0.000 A 
ATOM     28  S   UNL     1      47.255  10.481  20.059  0.00  0.00    +0.000 S 
ATOM     29  C   UNL     1      47.508   8.799  20.007  0.00  0.00    +0.000 A 
ATOM     30  N   UNL     1      47.327   8.031  21.112  0.00  0.00    +0.000 NA
ATOM     31  C   UNL     1      47.592   6.779  20.943  0.00  0.00    +0.000 A 
ATOM     32  N   UNL     1      48.010   6.223  19.762  0.00  0.00    +0.000 N 
ATOM     33  C   UNL     1      48.143   6.950  18.603  0.00  0.00    +0.000 A 
ATOM     34  O   UNL     1      48.419   6.405  17.539  0.00  0.00    +0.000 OA
ATOM     35  C   UNL     1      47.895   8.370  18.748  0.00  0.00    +0.000 A 
ATOM     36  H   UNL     1      48.179   5.231  19.690  0.00  0.00    +0.000 HD
ENDBRANCH  23  26
ENDBRANCH  21  22
ENDBRANCH   1  21
TORSDOF 7
ENDMDL
MODEL 5
REMARK VINA RESULT:    -7.314      2.564      3.131
REMARK INTER + INTRA:         -10.843
REMARK INTER:                  -9.678
REMARK INTRA:                  -1.165
REMARK UNBOUND:                -0.750
REMARK  Name = 
REMARK  7 active torsions:
REMARK  status: ('A' for Active; 'I' for Inactive)
REMARK    1  A    between atoms: N_1  and  C_2
REMARK    2  A    between atoms: C_2  and  C_3
REMARK    3  A    between atoms: C_2  and  C_17
REMARK    4  A    between atoms: C_3  and  N_4
REMARK    5  A    between atoms: C_5  and  C_7
REMARK    6  A    between atoms: C_20  and  C_21
REMARK    7  A    between atoms: C_21  and  N_22
REMARK                            x       y       z     vdW  Elec       q    Type
REMARK                         _______ _______ _______ _____ _____    ______ ____
ROOT
ATOM      1  C   UNL     1      48.633   9.222  13.776  0.00  0.00    +0.000 C 
ENDROOT
BRANCH   1   2
ATOM      2  C   UNL     1      47.645   8.342  13.012  0.00  0.00    +0.000 A 
ATOM      3  C   UNL     1      46.257   8.482  13.194  0.00  0.00    +0.000 A 
ATOM      4  C   UNL     1      45.343   7.693  12.482  0.00  0.00    +0.000 A 
ATOM      5  C   UNL     1      45.791   6.745  11.554  0.00  0.00    +0.000 A 
ATOM      6  C   UNL     1      47.164   6.637  11.324  0.00  0.00    +0.000 A 
ATOM      7  C   UNL     1      48.074   7.424  12.039  0.00  0.00    +0.000 A 
BRANCH   5   8
ATOM      8  C   UNL     1      44.818   5.885  10.788  0.00  0.00    +0.000 C 
BRANCH   8   9
ATOM      9  N   UNL     1      45.469   5.200   9.696  0.00  0.00    +0.000 N 
ATOM     10  C   UNL     1      45.448   3.831   9.643  0.00  0.00    +0.000 C 
ATOM     11  O   UNL     1      44.970   3.144  10.542  0.00  0.00    +0.000 OA
ATOM     12  N   UNL     1      45.995   3.287   8.506  0.00  0.00    +0.000 N 
ATOM     13  C   UNL     1      46.717   3.956   7.440  0.00  0.00    +0.000 C 
ATOM     14  C   UNL     1      46.512   3.026   6.258  0.00  0.00    +0.000 C 
ATOM     15  C   UNL     1      46.569   1.641   6.895  0.00  0.00    +0.000 C 
ATOM     16  C   UNL     1      46.018   1.847   8.306  0.00  0.00    +0.000 C 
ATOM     17  H   UNL     1      45.435   5.676   8.812  0.00  0.00    +0.000 HD
ENDBRANCH   8   9
ENDBRANCH   5   8
ENDBRANCH   1   2
BRANCH   1  18
ATOM     18  N   UNL     1      48.021   9.805  14.996  0.00  0.00    +0.000 NA
ATOM     19  H   UNL     1      48.769  10.238  15.537  0.00  0.00    +0.000 HD
ATOM     20  H   UNL     1      47.665   9.042  15.571  0.00  0.00    +0.000 HD
ENDBRANCH   1  18
BRANCH   1  21
ATOM     21  C   UNL     1      49.950   8.495  14.183  0.00  0.00    +0.000 C 
BRANCH  21  22
ATOM     22  N   UNL     1      49.735   7.397  15.112  0.00  0.00    +0.000 N 
ATOM     23  C   UNL     1      49.819   7.585  16.471  0.00  0.00    +0.000 C 
ATOM     24  O   UNL     1      49.997   8.696  16.962  0.00  0.00    +0.000 OA
ATOM     25  H   UNL     1      49.752   6.455  14.734  0.00  0.00    +0.000 HD
BRANCH  23  26
ATOM     26  C   UNL     1      49.646   6.395  17.312  0.00  0.00    +0.000 A 
ATOM     27  C   UNL     1      50.409   6.251  18.463  0.00  0.00    +0.000 A 
ATOM     28  S   UNL     1      50.068   4.828  19.336  0.00  0.00    +0.000 S 
ATOM     29  C   UNL     1      48.929   4.324  18.177  0.00  0.00    +0.000 A 
ATOM     30  N   UNL     1      48.271   3.144  18.312  0.00  0.00    +0.000 NA
ATOM     31  C   UNL     1      47.465   2.866  17.343  0.00  0.00    +0.000 A 
ATOM     32  N   UNL     1      47.248   3.671  16.255  0.00  0.00    +0.000 N 
ATOM     33  C   UNL     1      47.840   4.903  16.110  0.00  0.00    +0.000 A 
ATOM     34  O   UNL     1      47.546   5.644  15.177  0.00  0.00    +0.000 OA
ATOM     35  C   UNL     1      48.786   5.245  17.152  0.00  0.00    +0.000 A 
ATOM     36  H   UNL     1      46.585   3.406  15.541  0.00  0.00    +0.000 HD
ENDBRANCH  23  26
ENDBRANCH  21  22
ENDBRANCH   1  21
TORSDOF 7
ENDMDL
MODEL 6
REMARK VINA RESULT:    -7.261      2.449      3.040
REMARK INTER + INTRA:         -10.770
REMARK INTER:                  -9.886
REMARK INTRA:                  -0.884
REMARK UNBOUND:                -0.750
REMARK  Name = 
REMARK  7 active torsions:
REMARK  status: ('A' for Active; 'I' for Inactive)
REMARK    1  A    between atoms: N_1  and  C_2
REMARK    2  A    between atoms: C_2  and  C_3
REMARK    3  A    between atoms: C_2  and  C_17
REMARK    4  A    between atoms: C_3  and  N_4
REMARK    5  A    between atoms: C_5  and  C_7
REMARK    6  A    between atoms: C_20  and  C_21
REMARK    7  A    between atoms: C_21  and  N_22
REMARK                            x       y       z     vdW  Elec       q    Type
REMARK                         _______ _______ _______ _____ _____    ______ ____
ROOT
ATOM      1  C   UNL     1      47.718   6.877  14.155  0.00  0.00    +0.000 C 
ENDROOT
BRANCH   1   2
ATOM      2  C   UNL     1      46.762   6.052  13.296  0.00  0.00    +0.000 A 
ATOM      3  C   UNL     1      46.077   6.629  12.211  0.00  0.00    +0.000 A 
ATOM      4  C   UNL     1      45.215   5.874  11.405  0.00  0.00    +0.000 A 
ATOM      5  C   UNL     1      45.018   4.510  11.653  0.00  0.00    +0.000 A 
ATOM      6  C   UNL     1      45.736   3.914  12.691  0.00  0.00    +0.000 A 
ATOM      7  C   UNL     1      46.595   4.671  13.496  0.00  0.00    +0.000 A 
BRANCH   5   8
ATOM      8  C   UNL     1      44.087   3.690  10.797  0.00  0.00    +0.000 C 
BRANCH   8   9
ATOM      9  N   UNL     1      44.815   2.930   9.808  0.00  0.00    +0.000 N 
ATOM     10  C   UNL     1      45.213   3.533   8.644  0.00  0.00    +0.000 C 
ATOM     11  O   UNL     1      44.898   4.685   8.358  0.00  0.00    +0.000 OA
ATOM     12  N   UNL     1      45.995   2.754   7.827  0.00  0.00    +0.000 N 
ATOM     13  C   UNL     1      46.325   1.347   7.961  0.00  0.00    +0.000 C 
ATOM     14  C   UNL     1      47.630   1.232   7.196  0.00  0.00    +0.000 C 
ATOM     15  C   UNL     1      47.428   2.184   6.022  0.00  0.00    +0.000 C 
ATOM     16  C   UNL     1      46.508   3.275   6.570  0.00  0.00    +0.000 C 
ATOM     17  H   UNL     1      45.435   2.232  10.177  0.00  0.00    +0.000 HD
ENDBRANCH   8   9
ENDBRANCH   5   8
ENDBRANCH   1   2
BRANCH   1  18
ATOM     18  N   UNL     1      48.036   6.195  15.434  0.00  0.00    +0.000 NA
ATOM     19  H   UNL     1      48.815   5.562  15.259  0.00  0.00    +0.000 HD
ATOM     20  H   UNL     1      47.245   5.603  15.686  0.00  0.00    +0.000 HD
ENDBRANCH   1  18
BRANCH   1  21
ATOM     21  C   UNL     1      49.056   7.244  13.445  0.00  0.00    +0.000 C 
BRANCH  21  22
ATOM     22  N   UNL     1      50.222   7.083  14.301  0.00  0.00    +0.000 N 
ATOM     23  C   UNL     1      50.753   8.147  14.991  0.00  0.00    +0.000 C 
ATOM     24  O   UNL     1      50.222   9.254  14.983  0.00  0.00    +0.000 OA
ATOM     25  H   UNL     1      50.765   6.233  14.194  0.00  0.00    +0.000 HD
BRANCH  23  26
ATOM     26  C   UNL     1      51.965   7.884  15.774  0.00  0.00    +0.000 A 
ATOM     27  C   UNL     1      53.027   8.776  15.715  0.00  0.00    +0.000 A 
ATOM     28  S   UNL     1      54.346   8.336  16.699  0.00  0.00    +0.000 S 
ATOM     29  C   UNL     1      53.568   6.907  17.197  0.00  0.00    +0.000 A 
ATOM     30  N   UNL     1      54.179   6.039  18.045  0.00  0.00    +0.000 NA
ATOM     31  C   UNL     1      53.494   4.978  18.310  0.00  0.00    +0.000 A 
ATOM     32  N   UNL     1      52.245   4.712  17.811  0.00  0.00    +0.000 N 
ATOM     33  C   UNL     1      51.563   5.591  17.003  0.00  0.00    +0.000 A 
ATOM     34  O   UNL     1      50.406   5.370  16.659  0.00  0.00    +0.000 OA
ATOM     35  C   UNL     1      52.304   6.781  16.644  0.00  0.00    +0.000 A 
ATOM     36  H   UNL     1      51.752   3.872  18.076  0.00  0.00    +0.000 HD
ENDBRANCH  23  26
ENDBRANCH  21  22
ENDBRANCH   1  21
TORSDOF 7
ENDMDL
MODEL 7
REMARK VINA RESULT:    -7.216      4.691      6.071
REMARK INTER + INTRA:         -10.707
REMARK INTER:                  -9.670
REMARK INTRA:                  -1.037
REMARK UNBOUND:                -0.750
REMARK  Name = 
REMARK  7 active torsions:
REMARK  status: ('A' for Active; 'I' for Inactive)
REMARK    1  A    between atoms: N_1  and  C_2
REMARK    2  A    between atoms: C_2  and  C_3
REMARK    3  A    between atoms: C_2  and  C_17
REMARK    4  A    between atoms: C_3  and  N_4
REMARK    5  A    between atoms: C_5  and  C_7
REMARK    6  A    between atoms: C_20  and  C_21
REMARK    7  A    between atoms: C_21  and  N_22
REMARK                            x       y       z     vdW  Elec       q    Type
REMARK                         _______ _______ _______ _____ _____    ______ ____
ROOT
ATOM      1  C   UNL     1      47.414   7.278  13.912  0.00  0.00    +0.000 C 
ENDROOT
BRANCH   1   2
ATOM      2  C   UNL     1      46.541   6.245  13.200  0.00  0.00    +0.000 A 
ATOM      3  C   UNL     1      45.592   6.635  12.237  0.00  0.00    +0.000 A 
ATOM      4  C   UNL     1      44.803   5.693  11.565  0.00  0.00    +0.000 A 
ATOM      5  C   UNL     1      44.946   4.325  11.827  0.00  0.00    +0.000 A 
ATOM      6  C   UNL     1      45.923   3.922  12.739  0.00  0.00    +0.000 A 
ATOM      7  C   UNL     1      46.708   4.866  13.411  0.00  0.00    +0.000 A 
BRANCH   5   8
ATOM      8  C   UNL     1      44.097   3.303  11.116  0.00  0.00    +0.000 C 
BRANCH   8   9
ATOM      9  N   UNL     1      44.834   2.651  10.059  0.00  0.00    +0.000 N 
ATOM     10  C   UNL     1      44.980   3.273   8.848  0.00  0.00    +0.000 C 
ATOM     11  O   UNL     1      44.430   4.340   8.583  0.00  0.00    +0.000 OA
ATOM     12  N   UNL     1      45.795   2.619   7.955  0.00  0.00    +0.000 N 
ATOM     13  C   UNL     1      46.389   1.300   8.070  0.00  0.00    +0.000 C 
ATOM     14  C   UNL     1      47.598   1.394   7.158  0.00  0.00    +0.000 C 
ATOM     15  C   UNL     1      47.093   2.251   6.002  0.00  0.00    +0.000 C 
ATOM     16  C   UNL     1      46.058   3.178   6.638  0.00  0.00    +0.000 C 
ATOM     17  H   UNL     1      45.610   2.090  10.362  0.00  0.00    +0.000 HD
ENDBRANCH   8   9
ENDBRANCH   5   8
ENDBRANCH   1   2
BRANCH   1  18
ATOM     18  N   UNL     1      48.795   6.780  14.119  0.00  0.00    +0.000 NA
ATOM     19  H   UNL     1      48.922   5.966  13.518  0.00  0.00    +0.000 HD
ATOM     20  H   UNL     1      48.873   6.436  15.075  0.00  0.00    +0.000 HD
ENDBRANCH   1  18
BRANCH   1  21
ATOM     21  C   UNL     1      47.488   8.656  13.187  0.00  0.00    +0.000 C 
BRANCH  21  22
ATOM     22  N   UNL     1      48.825   8.986  12.718  0.00  0.00    +0.000 N 
ATOM     23  C   UNL     1      49.028   9.952  11.762  0.00  0.00    +0.000 C 
ATOM     24  O   UNL     1      48.105  10.633  11.323  0.00  0.00    +0.000 OA
ATOM     25  H   UNL     1      49.571   8.334  12.939  0.00  0.00    +0.000 HD
BRANCH  23  26
ATOM     26  C   UNL     1      50.411  10.159  11.319  0.00  0.00    +0.000 A 
ATOM     27  C   UNL     1      50.888  11.451  11.141  0.00  0.00    +0.000 A 
ATOM     28  S   UNL     1      52.518  11.516  10.647  0.00  0.00    +0.000 S 
ATOM     29  C   UNL     1      52.629   9.819  10.599  0.00  0.00    +0.000 A 
ATOM     30  N   UNL     1      53.779   9.205  10.220  0.00  0.00    +0.000 NA
ATOM     31  C   UNL     1      53.714   7.917  10.190  0.00  0.00    +0.000 A 
ATOM     32  N   UNL     1      52.602   7.184  10.519  0.00  0.00    +0.000 N 
ATOM     33  C   UNL     1      51.438   7.760  10.971  0.00  0.00    +0.000 A 
ATOM     34  O   UNL     1      50.498   7.073  11.356  0.00  0.00    +0.000 OA
ATOM     35  C   UNL     1      51.446   9.208  10.986  0.00  0.00    +0.000 A 
ATOM     36  H   UNL     1      52.623   6.176  10.497  0.00  0.00    +0.000 HD
ENDBRANCH  23  26
ENDBRANCH  21  22
ENDBRANCH   1  21
TORSDOF 7
ENDMDL
MODEL 8
REMARK VINA RESULT:    -7.035      2.745      9.065
REMARK INTER + INTRA:         -10.458
REMARK INTER:                  -9.932
REMARK INTRA:                  -0.526
REMARK UNBOUND:                -0.750
REMARK  Name = 
REMARK  7 active torsions:
REMARK  status: ('A' for Active; 'I' for Inactive)
REMARK    1  A    between atoms: N_1  and  C_2
REMARK    2  A    between atoms: C_2  and  C_3
REMARK    3  A    between atoms: C_2  and  C_17
REMARK    4  A    between atoms: C_3  and  N_4
REMARK    5  A    between atoms: C_5  and  C_7
REMARK    6  A    between atoms: C_20  and  C_21
REMARK    7  A    between atoms: C_21  and  N_22
REMARK                            x       y       z     vdW  Elec       q    Type
REMARK                         _______ _______ _______ _____ _____    ______ ____
ROOT
ATOM      1  C   UNL     1      48.918   7.821  12.641  0.00  0.00    +0.000 C 
ENDROOT
BRANCH   1   2
ATOM      2  C   UNL     1      48.925   7.125  14.001  0.00  0.00    +0.000 A 
ATOM      3  C   UNL     1      47.939   6.179  14.338  0.00  0.00    +0.000 A 
ATOM      4  C   UNL     1      47.950   5.521  15.575  0.00  0.00    +0.000 A 
ATOM      5  C   UNL     1      48.957   5.780  16.513  0.00  0.00    +0.000 A 
ATOM      6  C   UNL     1      49.972   6.675  16.167  0.00  0.00    +0.000 A 
ATOM      7  C   UNL     1      49.956   7.333  14.932  0.00  0.00    +0.000 A 
BRANCH   5   8
ATOM      8  C   UNL     1      48.974   5.084  17.849  0.00  0.00    +0.000 C 
BRANCH   8   9
ATOM      9  N   UNL     1      50.212   4.370  18.054  0.00  0.00    +0.000 N 
ATOM     10  C   UNL     1      50.321   3.067  17.647  0.00  0.00    +0.000 C 
ATOM     11  O   UNL     1      49.371   2.437  17.189  0.00  0.00    +0.000 OA
ATOM     12  N   UNL     1      51.574   2.520  17.784  0.00  0.00    +0.000 N 
ATOM     13  C   UNL     1      52.742   3.085  18.434  0.00  0.00    +0.000 C 
ATOM     14  C   UNL     1      53.890   2.367  17.749  0.00  0.00    +0.000 C 
ATOM     15  C   UNL     1      53.345   0.956  17.550  0.00  0.00    +0.000 C 
ATOM     16  C   UNL     1      51.839   1.151  17.371  0.00  0.00    +0.000 C 
ATOM     17  H   UNL     1      51.044   4.927  17.976  0.00  0.00    +0.000 HD
ENDBRANCH   8   9
ENDBRANCH   5   8
ENDBRANCH   1   2
BRANCH   1  18
ATOM     18  N   UNL     1      49.773   7.112  11.657  0.00  0.00    +0.000 NA
ATOM     19  H   UNL     1      49.331   6.216  11.456  0.00  0.00    +0.000 HD
ATOM     20  H   UNL     1      50.662   6.891  12.105  0.00  0.00    +0.000 HD
ENDBRANCH   1  18
BRANCH   1  21
ATOM     21  C   UNL     1      47.498   7.999  12.024  0.00  0.00    +0.000 C 
BRANCH  21  22
ATOM     22  N   UNL     1      46.818   6.737  11.777  0.00  0.00    +0.000 N 
ATOM     23  C   UNL     1      45.448   6.668  11.694  0.00  0.00    +0.000 C 
ATOM     24  O   UNL     1      44.745   7.674  11.742  0.00  0.00    +0.000 OA
ATOM     25  H   UNL     1      47.357   5.885  11.899  0.00  0.00    +0.000 HD
BRANCH  23  26
ATOM     26  C   UNL     1      44.866   5.335  11.504  0.00  0.00    +0.000 A 
ATOM     27  C   UNL     1      44.137   4.752  12.531  0.00  0.00    +0.000 A 
ATOM     28  S   UNL     1      43.512   3.216  12.140  0.00  0.00    +0.000 S 
ATOM     29  C   UNL     1      44.241   3.250  10.603  0.00  0.00    +0.000 A 
ATOM     30  N   UNL     1      44.117   2.202   9.749  0.00  0.00    +0.000 NA
ATOM     31  C   UNL     1      44.751   2.342   8.634  0.00  0.00    +0.000 A 
ATOM     32  N   UNL     1      45.491   3.444   8.291  0.00  0.00    +0.000 N 
ATOM     33  C   UNL     1      45.590   4.554   9.096  0.00  0.00    +0.000 A 
ATOM     34  O   UNL     1      46.173   5.564   8.716  0.00  0.00    +0.000 OA
ATOM     35  C   UNL     1      44.927   4.432  10.378  0.00  0.00    +0.000 A 
ATOM     36  H   UNL     1      45.946   3.501   7.392  0.00  0.00    +0.000 HD
ENDBRANCH  23  26
ENDBRANCH  21  22
ENDBRANCH   1  21
TORSDOF 7
ENDMDL
MODEL 9
REMARK VINA RESULT:    -6.882      1.716      2.432
REMARK INTER + INTRA:         -10.247
REMARK INTER:                  -9.533
REMARK INTRA:                  -0.714
REMARK UNBOUND:                -0.750
REMARK  Name = 
REMARK  7 active torsions:
REMARK  status: ('A' for Active; 'I' for Inactive)
REMARK    1  A    between atoms: N_1  and  C_2
REMARK    2  A    between atoms: C_2  and  C_3
REMARK    3  A    between atoms: C_2  and  C_17
REMARK    4  A    between atoms: C_3  and  N_4
REMARK    5  A    between atoms: C_5  and  C_7
REMARK    6  A    between atoms: C_20  and  C_21
REMARK    7  A    between atoms: C_21  and  N_22
REMARK                            x       y       z     vdW  Elec       q    Type
REMARK                         _______ _______ _______ _____ _____    ______ ____
ROOT
ATOM      1  C   UNL     1      49.386   7.890  15.428  0.00  0.00    +0.000 C 
ENDROOT
BRANCH   1   2
ATOM      2  C   UNL     1      48.254   7.753  14.411  0.00  0.00    +0.000 A 
ATOM      3  C   UNL     1      47.936   6.507  13.840  0.00  0.00    +0.000 A 
ATOM      4  C   UNL     1      46.886   6.370  12.923  0.00  0.00    +0.000 A 
ATOM      5  C   UNL     1      46.110   7.476  12.555  0.00  0.00    +0.000 A 
ATOM      6  C   UNL     1      46.380   8.706  13.158  0.00  0.00    +0.000 A 
ATOM      7  C   UNL     1      47.432   8.841  14.072  0.00  0.00    +0.000 A 
BRANCH   5   8
ATOM      8  C   UNL     1      44.983   7.342  11.564  0.00  0.00    +0.000 C 
BRANCH   8   9
ATOM      9  N   UNL     1      45.226   6.264  10.635  0.00  0.00    +0.000 N 
ATOM     10  C   UNL     1      44.646   5.041  10.845  0.00  0.00    +0.000 C 
ATOM     11  O   UNL     1      43.989   4.787  11.851  0.00  0.00    +0.000 OA
ATOM     12  N   UNL     1      44.849   4.123   9.842  0.00  0.00    +0.000 N 
ATOM     13  C   UNL     1      45.710   4.229   8.679  0.00  0.00    +0.000 C 
ATOM     14  C   UNL     1      45.069   3.269   7.695  0.00  0.00    +0.000 C 
ATOM     15  C   UNL     1      44.598   2.124   8.587  0.00  0.00    +0.000 C 
ATOM     16  C   UNL     1      44.271   2.791   9.923  0.00  0.00    +0.000 C 
ATOM     17  H   UNL     1      45.331   6.542   9.676  0.00  0.00    +0.000 HD
ENDBRANCH   8   9
ENDBRANCH   5   8
ENDBRANCH   1   2
BRANCH   1  18
ATOM     18  N   UNL     1      49.729   9.310  15.682  0.00  0.00    +0.000 NA
ATOM     19  H   UNL     1      49.947   9.739  14.782  0.00  0.00    +0.000 HD
ATOM     20  H   UNL     1      50.592   9.341  16.223  0.00  0.00    +0.000 HD
ENDBRANCH   1  18
BRANCH   1  21
ATOM     21  C   UNL     1      49.100   7.198  16.795  0.00  0.00    +0.000 C 
BRANCH  21  22
ATOM     22  N   UNL     1      50.047   6.139  17.111  0.00  0.00    +0.000 N 
ATOM     23  C   UNL     1      50.466   5.919  18.401  0.00  0.00    +0.000 C 
ATOM     24  O   UNL     1      50.002   6.546  19.349  0.00  0.00    +0.000 OA
ATOM     25  H   UNL     1      50.560   5.726  16.339  0.00  0.00    +0.000 HD
BRANCH  23  26
ATOM     26  C   UNL     1      51.469   4.866  18.596  0.00  0.00    +0.000 A 
ATOM     27  C   UNL     1      52.631   5.148  19.301  0.00  0.00    +0.000 A 
ATOM     28  S   UNL     1      53.678   3.812  19.456  0.00  0.00    +0.000 S 
ATOM     29  C   UNL     1      52.641   2.823  18.538  0.00  0.00    +0.000 A 
ATOM     30  N   UNL     1      52.966   1.532  18.268  0.00  0.00    +0.000 NA
ATOM     31  C   UNL     1      52.111   0.908  17.530  0.00  0.00    +0.000 A 
ATOM     32  N   UNL     1      50.951   1.457  17.047  0.00  0.00    +0.000 N 
ATOM     33  C   UNL     1      50.550   2.737  17.350  0.00  0.00    +0.000 A 
ATOM     34  O   UNL     1      49.458   3.162  16.988  0.00  0.00    +0.000 OA
ATOM     35  C   UNL     1      51.495   3.494  18.144  0.00  0.00    +0.000 A 
ATOM     36  H   UNL     1      50.312   0.907  16.493  0.00  0.00    +0.000 HD
ENDBRANCH  23  26
ENDBRANCH  21  22
ENDBRANCH   1  21
TORSDOF 7
ENDMDL
