MODEL 1
REMARK VINA RESULT:    -8.996      0.000      0.000
REMARK INTER + INTRA:         -15.388
REMARK INTER:                 -14.255
REMARK INTRA:                  -1.133
REMARK UNBOUND:                -1.133
REMARK  Name = 
REMARK  11 active torsions:
REMARK  status: ('A' for Active; 'I' for Inactive)
REMARK    1  A    between atoms: N_1  and  C_2
REMARK    2  A    between atoms: C_2  and  C_3
REMARK    3  A    between atoms: C_3  and  N_4
REMARK    4  A    between atoms: C_3  and  C_22
REMARK    5  A    between atoms: N_4  and  C_5
REMARK    6  A    between atoms: C_5  and  C_6
REMARK    7  A    between atoms: C_9  and  C_10
REMARK    8  A    between atoms: C_10  and  C_11
REMARK    9  A    between atoms: C_11  and  C_12
REMARK   10  A    between atoms: C_12  and  O_13
REMARK   11  A    between atoms: C_12  and  C_14
REMARK                            x       y       z     vdW  Elec       q    Type
REMARK                         _______ _______ _______ _____ _____    ______ ____
ROOT
ATOM      1  N   UNL     1      48.096   6.051  16.164  0.00  0.00    +0.000 NA
ATOM      2  H   UNL     1      48.651   6.688  16.734  0.00  0.00    +0.000 HD
ENDROOT
BRANCH   1   3
ATOM      3  C   UNL     1      48.252   4.695  16.730  0.00  0.00    +0.000 C 
BRANCH   3   4
ATOM      4  C   UNL     1      49.621   4.612  17.388  0.00  0.00    +0.000 A 
ATOM      5  C   UNL     1      50.232   5.620  18.119  0.00  0.00    +0.000 A 
ATOM      6  S   UNL     1      51.752   5.167  18.754  0.00  0.00    +0.000 S 
ATOM      7  C   UNL     1      51.628   3.599  18.101  0.00  0.00    +0.000 A 
ATOM      8  N   UNL     1      52.594   2.668  18.296  0.00  0.00    +0.000 NA
ATOM      9  C   UNL     1      52.337   1.518  17.758  0.00  0.00    +0.000 A 
ATOM     10  N   UNL     1      51.209   1.217  17.040  0.00  0.00    +0.000 N 
ATOM     11  C   UNL     1      50.204   2.128  16.811  0.00  0.00    +0.000 A 
ATOM     12  O   UNL     1      49.201   1.832  16.169  0.00  0.00    +0.000 OA
ATOM     13  C   UNL     1      50.444   3.434  17.399  0.00  0.00    +0.000 A 
ATOM     14  H   UNL     1      51.071   0.297  16.653  0.00  0.00    +0.000 HD
ENDBRANCH   3   4
BRANCH   3  15
ATOM     15  C   UNL     1      47.127   4.295  17.739  0.00  0.00    +0.000 C 
BRANCH  15  16
ATOM     16  N   UNL     1      46.740   2.878  17.678  0.00  0.00    +0.000 NA
ATOM     17  H   UNL     1      47.262   2.344  18.367  0.00  0.00    +0.000 HD
ATOM     18  H   UNL     1      46.979   2.521  16.753  0.00  0.00    +0.000 HD
ENDBRANCH  15  16
ENDBRANCH   3  15
ENDBRANCH   1   3
BRANCH   1  19
ATOM     19  C   UNL     1      48.589   6.120  14.790  0.00  0.00    +0.000 C 
BRANCH  19  20
ATOM     20  C   UNL     1      47.494   5.861  13.788  0.00  0.00    +0.000 A 
ATOM     21  C   UNL     1      47.373   6.630  12.623  0.00  0.00    +0.000 A 
ATOM     22  C   UNL     1      46.367   6.356  11.697  0.00  0.00    +0.000 A 
ATOM     23  C   UNL     1      45.480   5.294  11.906  0.00  0.00    +0.000 A 
ATOM     24  C   UNL     1      45.599   4.526  13.068  0.00  0.00    +0.000 A 
ATOM     25  C   UNL     1      46.592   4.809  14.002  0.00  0.00    +0.000 A 
BRANCH  23  26
ATOM     26  C   UNL     1      44.404   4.971  10.901  0.00  0.00    +0.000 C 
BRANCH  26  27
ATOM     27  C   UNL     1      44.988   4.614   9.532  0.00  0.00    +0.000 C 
BRANCH  27  28
ATOM     28  C   UNL     1      44.673   3.165   9.156  0.00  0.00    +0.000 C 
BRANCH  28  29
ATOM     29  C   UNL     1      45.715   2.611   8.202  0.00  0.00    +0.000 A 
ATOM     30  C   UNL     1      46.223   3.404   7.176  0.00  0.00    +0.000 A 
ATOM     31  C   UNL     1      47.154   2.853   6.299  0.00  0.00    +0.000 A 
ATOM     32  C   UNL     1      47.557   1.536   6.473  0.00  0.00    +0.000 A 
ATOM     33  C   UNL     1      47.010   0.817   7.523  0.00  0.00    +0.000 A 
ATOM     34  N   UNL     1      46.094   1.317   8.382  0.00  0.00    +0.000 NA
ENDBRANCH  28  29
BRANCH  28  35
ATOM     35  O   UNL     1      44.658   2.373  10.346  0.00  0.00    +0.000 OA
ATOM     36  H   UNL     1      44.772   1.453  10.035  0.00  0.00    +0.000 HD
ENDBRANCH  28  35
ENDBRANCH  27  28
ENDBRANCH  26  27
ENDBRANCH  23  26
ENDBRANCH  19  20
ENDBRANCH   1  19
TORSDOF 11
ENDMDL
MODEL 2
REMARK VINA RESULT:    -7.979      1.847      2.350
REMARK INTER + INTRA:         -13.777
REMARK INTER:                 -12.398
REMARK INTRA:                  -1.380
REMARK UNBOUND:                -1.133
REMARK  Name = 
REMARK  11 active torsions:
REMARK  status: ('A' for Active; 'I' for Inactive)
REMARK    1  A    between atoms: N_1  and  C_2
REMARK    2  A    between atoms: C_2  and  C_3
REMARK    3  A    between atoms: C_3  and  N_4
REMARK    4  A    between atoms: C_3  and  C_22
REMARK    5  A    between atoms: N_4  and  C_5
REMARK    6  A    between atoms: C_5  and  C_6
REMARK    7  A    between atoms: C_9  and  C_10
REMARK    8  A    between atoms: C_10  and  C_11
REMARK    9  A    between atoms: C_11  and  C_12
REMARK   10  A    between atoms: C_12  and  O_13
REMARK   11  A    between atoms: C_12  and  C_14
REMARK                            x       y       z     vdW  Elec       q    Type
REMARK                         _______ _______ _______ _____ _____    ______ ____
ROOT
ATOM      1  N   UNL     1      47.523   5.295  16.191  0.00  0.00    +0.000 NA
ATOM      2  H   UNL     1      47.564   6.187  16.682  0.00  0.00    +0.000 HD
ENDROOT
BRANCH   1   3
ATOM      3  C   UNL     1      48.535   4.406  16.798  0.00  0.00    +0.000 C 
BRANCH   3   4
ATOM      4  C   UNL     1      48.796   4.887  18.217  0.00  0.00    +0.000 A 
ATOM      5  C   UNL     1      47.877   5.519  19.042  0.00  0.00    +0.000 A 
ATOM      6  S   UNL     1      48.497   5.880  20.592  0.00  0.00    +0.000 S 
ATOM      7  C   UNL     1      50.002   5.175  20.224  0.00  0.00    +0.000 A 
ATOM      8  N   UNL     1      51.005   5.118  21.135  0.00  0.00    +0.000 NA
ATOM      9  C   UNL     1      52.075   4.526  20.709  0.00  0.00    +0.000 A 
ATOM     10  N   UNL     1      52.236   3.993  19.457  0.00  0.00    +0.000 N 
ATOM     11  C   UNL     1      51.252   4.030  18.496  0.00  0.00    +0.000 A 
ATOM     12  O   UNL     1      51.419   3.541  17.384  0.00  0.00    +0.000 OA
ATOM     13  C   UNL     1      50.028   4.681  18.928  0.00  0.00    +0.000 A 
ATOM     14  H   UNL     1      53.097   3.541  19.193  0.00  0.00    +0.000 HD
ENDBRANCH   3   4
BRANCH   3  15
ATOM     15  C   UNL     1      48.139   2.893  16.788  0.00  0.00    +0.000 C 
BRANCH  15  16
ATOM     16  N   UNL     1      49.044   2.039  16.006  0.00  0.00    +0.000 NA
ATOM     17  H   UNL     1      49.539   1.400  16.621  0.00  0.00    +0.000 HD
ATOM     18  H   UNL     1      49.734   2.638  15.551  0.00  0.00    +0.000 HD
ENDBRANCH  15  16
ENDBRANCH   3  15
ENDBRANCH   1   3
BRANCH   1  19
ATOM     19  C   UNL     1      47.800   5.538  14.777  0.00  0.00    +0.000 C 
BRANCH  19  20
ATOM     20  C   UNL     1      46.678   5.054  13.895  0.00  0.00    +0.000 A 
ATOM     21  C   UNL     1      45.747   5.943  13.343  0.00  0.00    +0.000 A 
ATOM     22  C   UNL     1      44.732   5.475  12.509  0.00  0.00    +0.000 A 
ATOM     23  C   UNL     1      44.645   4.115  12.191  0.00  0.00    +0.000 A 
ATOM     24  C   UNL     1      45.573   3.226  12.742  0.00  0.00    +0.000 A 
ATOM     25  C   UNL     1      46.576   3.689  13.589  0.00  0.00    +0.000 A 
BRANCH  23  26
ATOM     26  C   UNL     1      43.568   3.600  11.271  0.00  0.00    +0.000 C 
BRANCH  26  27
ATOM     27  C   UNL     1      44.151   2.834  10.081  0.00  0.00    +0.000 C 
BRANCH  27  28
ATOM     28  C   UNL     1      44.800   3.785   9.075  0.00  0.00    +0.000 C 
BRANCH  28  29
ATOM     29  C   UNL     1      45.718   3.033   8.129  0.00  0.00    +0.000 A 
ATOM     30  C   UNL     1      46.023   1.694   8.359  0.00  0.00    +0.000 A 
ATOM     31  C   UNL     1      46.895   1.044   7.489  0.00  0.00    +0.000 A 
ATOM     32  C   UNL     1      47.429   1.741   6.413  0.00  0.00    +0.000 A 
ATOM     33  C   UNL     1      47.069   3.068   6.250  0.00  0.00    +0.000 A 
ATOM     34  N   UNL     1      46.238   3.732   7.084  0.00  0.00    +0.000 NA
ENDBRANCH  28  29
BRANCH  28  35
ATOM     35  O   UNL     1      43.772   4.429   8.319  0.00  0.00    +0.000 OA
ATOM     36  H   UNL     1      43.828   4.028   7.429  0.00  0.00    +0.000 HD
ENDBRANCH  28  35
ENDBRANCH  27  28
ENDBRANCH  26  27
ENDBRANCH  23  26
ENDBRANCH  19  20
ENDBRANCH   1  19
TORSDOF 11
ENDMDL
MODEL 3
REMARK VINA RESULT:    -7.953      1.666      2.229
REMARK INTER + INTRA:         -13.735
REMARK INTER:                 -12.566
REMARK INTRA:                  -1.169
REMARK UNBOUND:                -1.133
REMARK  Name = 
REMARK  11 active torsions:
REMARK  status: ('A' for Active; 'I' for Inactive)
REMARK    1  A    between atoms: N_1  and  C_2
REMARK    2  A    between atoms: C_2  and  C_3
REMARK    3  A    between atoms: C_3  and  N_4
REMARK    4  A    between atoms: C_3  and  C_22
REMARK    5  A    between atoms: N_4  and  C_5
REMARK    6  A    between atoms: C_5  and  C_6
REMARK    7  A    between atoms: C_9  and  C_10
REMARK    8  A    between atoms: C_10  and  C_11
REMARK    9  A    between atoms: C_11  and  C_12
REMARK   10  A    between atoms: C_12  and  O_13
REMARK   11  A    between atoms: C_12  and  C_14
REMARK                            x       y       z     vdW  Elec       q    Type
REMARK                         _______ _______ _______ _____ _____    ______ ____
ROOT
ATOM      1  N   UNL     1      48.388   6.086  15.106  0.00  0.00    +0.000 NA
ATOM      2  H   UNL     1      47.420   5.938  15.391  0.00  0.00    +0.000 HD
ENDROOT
BRANCH   1   3
ATOM      3  C   UNL     1      48.987   7.051  16.050  0.00  0.00    +0.000 C 
BRANCH   3   4
ATOM      4  C   UNL     1      50.438   6.653  16.274  0.00  0.00    +0.000 A 
ATOM      5  C   UNL     1      51.550   7.337  15.805  0.00  0.00    +0.000 A 
ATOM      6  S   UNL     1      53.029   6.631  16.285  0.00  0.00    +0.000 S 
ATOM      7  C   UNL     1      52.234   5.408  17.163  0.00  0.00    +0.000 A 
ATOM      8  N   UNL     1      52.921   4.466  17.854  0.00  0.00    +0.000 NA
ATOM      9  C   UNL     1      52.171   3.624  18.491  0.00  0.00    +0.000 A 
ATOM     10  N   UNL     1      50.800   3.635  18.494  0.00  0.00    +0.000 N 
ATOM     11  C   UNL     1      50.058   4.566  17.805  0.00  0.00    +0.000 A 
ATOM     12  O   UNL     1      48.831   4.558  17.829  0.00  0.00    +0.000 OA
ATOM     13  C   UNL     1      50.856   5.537  17.078  0.00  0.00    +0.000 A 
ATOM     14  H   UNL     1      50.278   2.950  19.018  0.00  0.00    +0.000 HD
ENDBRANCH   3   4
BRANCH   3  15
ATOM     15  C   UNL     1      48.887   8.540  15.584  0.00  0.00    +0.000 C 
BRANCH  15  16
ATOM     16  N   UNL     1      47.575   9.158  15.822  0.00  0.00    +0.000 NA
ATOM     17  H   UNL     1      47.681   9.999  16.382  0.00  0.00    +0.000 HD
ATOM     18  H   UNL     1      47.002   8.498  16.350  0.00  0.00    +0.000 HD
ENDBRANCH  15  16
ENDBRANCH   3  15
ENDBRANCH   1   3
BRANCH   1  19
ATOM     19  C   UNL     1      48.388   6.600  13.738  0.00  0.00    +0.000 C 
BRANCH  19  20
ATOM     20  C   UNL     1      47.190   6.120  12.959  0.00  0.00    +0.000 A 
ATOM     21  C   UNL     1      46.844   6.691  11.727  0.00  0.00    +0.000 A 
ATOM     22  C   UNL     1      45.747   6.213  11.011  0.00  0.00    +0.000 A 
ATOM     23  C   UNL     1      44.991   5.142  11.501  0.00  0.00    +0.000 A 
ATOM     24  C   UNL     1      45.335   4.572  12.731  0.00  0.00    +0.000 A 
ATOM     25  C   UNL     1      46.420   5.059  13.455  0.00  0.00    +0.000 A 
BRANCH  23  26
ATOM     26  C   UNL     1      43.817   4.601  10.726  0.00  0.00    +0.000 C 
BRANCH  26  27
ATOM     27  C   UNL     1      44.206   4.212   9.297  0.00  0.00    +0.000 C 
BRANCH  27  28
ATOM     28  C   UNL     1      44.353   2.697   9.156  0.00  0.00    +0.000 C 
BRANCH  28  29
ATOM     29  C   UNL     1      45.567   2.344   8.316  0.00  0.00    +0.000 A 
ATOM     30  C   UNL     1      46.215   3.323   7.567  0.00  0.00    +0.000 A 
ATOM     31  C   UNL     1      47.305   2.957   6.782  0.00  0.00    +0.000 A 
ATOM     32  C   UNL     1      47.724   1.633   6.771  0.00  0.00    +0.000 A 
ATOM     33  C   UNL     1      47.030   0.722   7.550  0.00  0.00    +0.000 A 
ATOM     34  N   UNL     1      45.959   1.041   8.311  0.00  0.00    +0.000 NA
ENDBRANCH  28  29
BRANCH  28  35
ATOM     35  O   UNL     1      44.501   2.125  10.458  0.00  0.00    +0.000 OA
ATOM     36  H   UNL     1      45.444   1.874  10.514  0.00  0.00    +0.000 HD
ENDBRANCH  28  35
ENDBRANCH  27  28
ENDBRANCH  26  27
ENDBRANCH  23  26
ENDBRANCH  19  20
ENDBRANCH   1  19
TORSDOF 11
ENDMDL
MODEL 4
REMARK VINA RESULT:    -7.826      2.222      2.975
REMARK INTER + INTRA:         -13.534
REMARK INTER:                 -12.482
REMARK INTRA:                  -1.052
REMARK UNBOUND:                -1.133
REMARK  Name = 
REMARK  11 active torsions:
REMARK  status: ('A' for Active; 'I' for Inactive)
REMARK    1  A    between atoms: N_1  and  C_2
REMARK    2  A    between atoms: C_2  and  C_3
REMARK    3  A    between atoms: C_3  and  N_4
REMARK    4  A    between atoms: C_3  and  C_22
REMARK    5  A    between atoms: N_4  and  C_5
REMARK    6  A    between atoms: C_5  and  C_6
REMARK    7  A    between atoms: C_9  and  C_10
REMARK    8  A    between atoms: C_10  and  C_11
REMARK    9  A    between atoms: C_11  and  C_12
REMARK   10  A    between atoms: C_12  and  O_13
REMARK   11  A    between atoms: C_12  and  C_14
REMARK                            x       y       z     vdW  Elec       q    Type
REMARK                         _______ _______ _______ _____ _____    ______ ____
ROOT
ATOM      1  N   UNL     1      47.648   5.483  16.079  0.00  0.00    +0.000 NA
ATOM      2  H   UNL     1      47.749   6.378  16.557  0.00  0.00    +0.000 HD
ENDROOT
BRANCH   1   3
ATOM      3  C   UNL     1      48.680   4.572  16.616  0.00  0.00    +0.000 C 
BRANCH   3   4
ATOM      4  C   UNL     1      49.572   5.370  17.555  0.00  0.00    +0.000 A 
ATOM      5  C   UNL     1      50.937   5.567  17.406  0.00  0.00    +0.000 A 
ATOM      6  S   UNL     1      51.613   6.556  18.624  0.00  0.00    +0.000 S 
ATOM      7  C   UNL     1      50.100   6.780  19.370  0.00  0.00    +0.000 A 
ATOM      8  N   UNL     1      49.957   7.558  20.472  0.00  0.00    +0.000 NA
ATOM      9  C   UNL     1      48.739   7.649  20.902  0.00  0.00    +0.000 A 
ATOM     10  N   UNL     1      47.655   7.029  20.337  0.00  0.00    +0.000 N 
ATOM     11  C   UNL     1      47.749   6.227  19.224  0.00  0.00    +0.000 A 
ATOM     12  O   UNL     1      46.762   5.688  18.733  0.00  0.00    +0.000 OA
ATOM     13  C   UNL     1      49.096   6.097  18.700  0.00  0.00    +0.000 A 
ATOM     14  H   UNL     1      46.731   7.148  20.722  0.00  0.00    +0.000 HD
ENDBRANCH   3   4
BRANCH   3  15
ATOM     15  C   UNL     1      48.101   3.312  17.339  0.00  0.00    +0.000 C 
BRANCH  15  16
ATOM     16  N   UNL     1      46.633   3.244  17.346  0.00  0.00    +0.000 NA
ATOM     17  H   UNL     1      46.322   2.471  17.926  0.00  0.00    +0.000 HD
ATOM     18  H   UNL     1      46.317   3.071  16.391  0.00  0.00    +0.000 HD
ENDBRANCH  15  16
ENDBRANCH   3  15
ENDBRANCH   1   3
BRANCH   1  19
ATOM     19  C   UNL     1      47.823   5.707  14.646  0.00  0.00    +0.000 C 
BRANCH  19  20
ATOM     20  C   UNL     1      46.695   5.111  13.844  0.00  0.00    +0.000 A 
ATOM     21  C   UNL     1      45.670   5.909  13.318  0.00  0.00    +0.000 A 
ATOM     22  C   UNL     1      44.650   5.338  12.557  0.00  0.00    +0.000 A 
ATOM     23  C   UNL     1      44.650   3.965  12.286  0.00  0.00    +0.000 A 
ATOM     24  C   UNL     1      45.671   3.167  12.811  0.00  0.00    +0.000 A 
ATOM     25  C   UNL     1      46.681   3.733  13.585  0.00  0.00    +0.000 A 
BRANCH  23  26
ATOM     26  C   UNL     1      43.567   3.340  11.445  0.00  0.00    +0.000 C 
BRANCH  26  27
ATOM     27  C   UNL     1      44.137   2.632  10.213  0.00  0.00    +0.000 C 
BRANCH  27  28
ATOM     28  C   UNL     1      44.832   3.623   9.277  0.00  0.00    +0.000 C 
BRANCH  28  29
ATOM     29  C   UNL     1      45.709   2.898   8.273  0.00  0.00    +0.000 A 
ATOM     30  C   UNL     1      46.156   3.552   7.127  0.00  0.00    +0.000 A 
ATOM     31  C   UNL     1      46.931   2.847   6.210  0.00  0.00    +0.000 A 
ATOM     32  C   UNL     1      47.247   1.519   6.463  0.00  0.00    +0.000 A 
ATOM     33  C   UNL     1      46.769   0.944   7.629  0.00  0.00    +0.000 A 
ATOM     34  N   UNL     1      46.002   1.596   8.532  0.00  0.00    +0.000 NA
ENDBRANCH  28  29
BRANCH  28  35
ATOM     35  O   UNL     1      43.836   4.371   8.577  0.00  0.00    +0.000 OA
ATOM     36  H   UNL     1      43.807   3.974   7.684  0.00  0.00    +0.000 HD
ENDBRANCH  28  35
ENDBRANCH  27  28
ENDBRANCH  26  27
ENDBRANCH  23  26
ENDBRANCH  19  20
ENDBRANCH   1  19
TORSDOF 11
ENDMDL
MODEL 5
REMARK VINA RESULT:    -7.566      2.694      3.778
REMARK INTER + INTRA:         -13.122
REMARK INTER:                 -11.697
REMARK INTRA:                  -1.425
REMARK UNBOUND:                -1.133
REMARK  Name = 
REMARK  11 active torsions:
REMARK  status: ('A' for Active; 'I' for Inactive)
REMARK    1  A    between atoms: N_1  and  C_2
REMARK    2  A    between atoms: C_2  and  C_3
REMARK    3  A    between atoms: C_3  and  N_4
REMARK    4  A    between atoms: C_3  and  C_22
REMARK    5  A    between atoms: N_4  and  C_5
REMARK    6  A    between atoms: C_5  and  C_6
REMARK    7  A    between atoms: C_9  and  C_10
REMARK    8  A    between atoms: C_10  and  C_11
REMARK    9  A    between atoms: C_11  and  C_12
REMARK   10  A    between atoms: C_12  and  O_13
REMARK   11  A    between atoms: C_12  and  C_14
REMARK                            x       y       z     vdW  Elec       q    Type
REMARK                         _______ _______ _______ _____ _____    ______ ____
ROOT
ATOM      1  N   UNL     1      48.939   6.317  14.577  0.00  0.00    +0.000 NA
ATOM      2  H   UNL     1      48.331   5.537  14.825  0.00  0.00    +0.000 HD
ENDROOT
BRANCH   1   3
ATOM      3  C   UNL     1      49.344   6.982  15.833  0.00  0.00    +0.000 C 
BRANCH   3   4
ATOM      4  C   UNL     1      48.871   6.124  16.996  0.00  0.00    +0.000 A 
ATOM      5  C   UNL     1      48.876   4.737  17.036  0.00  0.00    +0.000 A 
ATOM      6  S   UNL     1      48.317   4.103  18.520  0.00  0.00    +0.000 S 
ATOM      7  C   UNL     1      48.082   5.659  19.169  0.00  0.00    +0.000 A 
ATOM      8  N   UNL     1      47.636   5.842  20.437  0.00  0.00    +0.000 NA
ATOM      9  C   UNL     1      47.537   7.085  20.789  0.00  0.00    +0.000 A 
ATOM     10  N   UNL     1      47.836   8.158  19.989  0.00  0.00    +0.000 N 
ATOM     11  C   UNL     1      48.285   8.023  18.696  0.00  0.00    +0.000 A 
ATOM     12  O   UNL     1      48.550   9.000  18.002  0.00  0.00    +0.000 OA
ATOM     13  C   UNL     1      48.418   6.647  18.256  0.00  0.00    +0.000 A 
ATOM     14  H   UNL     1      47.739   9.101  20.331  0.00  0.00    +0.000 HD
ENDBRANCH   3   4
BRANCH   3  15
ATOM     15  C   UNL     1      50.879   7.261  15.937  0.00  0.00    +0.000 C 
BRANCH  15  16
ATOM     16  N   UNL     1      51.216   8.539  16.580  0.00  0.00    +0.000 NA
ATOM     17  H   UNL     1      52.206   8.737  16.466  0.00  0.00    +0.000 HD
ATOM     18  H   UNL     1      51.024   8.454  17.579  0.00  0.00    +0.000 HD
ENDBRANCH  15  16
ENDBRANCH   3  15
ENDBRANCH   1   3
BRANCH   1  19
ATOM     19  C   UNL     1      48.192   7.221  13.706  0.00  0.00    +0.000 C 
BRANCH  19  20
ATOM     20  C   UNL     1      47.084   6.507  12.976  0.00  0.00    +0.000 A 
ATOM     21  C   UNL     1      46.454   5.381  13.524  0.00  0.00    +0.000 A 
ATOM     22  C   UNL     1      45.413   4.752  12.841  0.00  0.00    +0.000 A 
ATOM     23  C   UNL     1      44.966   5.251  11.613  0.00  0.00    +0.000 A 
ATOM     24  C   UNL     1      45.593   6.374  11.064  0.00  0.00    +0.000 A 
ATOM     25  C   UNL     1      46.645   6.993  11.736  0.00  0.00    +0.000 A 
BRANCH  23  26
ATOM     26  C   UNL     1      43.826   4.595  10.877  0.00  0.00    +0.000 C 
BRANCH  26  27
ATOM     27  C   UNL     1      44.197   4.257   9.431  0.00  0.00    +0.000 C 
BRANCH  27  28
ATOM     28  C   UNL     1      44.367   2.749   9.240  0.00  0.00    +0.000 C 
BRANCH  28  29
ATOM     29  C   UNL     1      45.550   2.445   8.340  0.00  0.00    +0.000 A 
ATOM     30  C   UNL     1      46.090   3.437   7.526  0.00  0.00    +0.000 A 
ATOM     31  C   UNL     1      47.154   3.114   6.688  0.00  0.00    +0.000 A 
ATOM     32  C   UNL     1      47.654   1.819   6.690  0.00  0.00    +0.000 A 
ATOM     33  C   UNL     1      47.066   0.892   7.535  0.00  0.00    +0.000 A 
ATOM     34  N   UNL     1      46.023   1.169   8.349  0.00  0.00    +0.000 NA
ENDBRANCH  28  29
BRANCH  28  35
ATOM     35  O   UNL     1      44.582   2.145  10.518  0.00  0.00    +0.000 OA
ATOM     36  H   UNL     1      45.017   2.838  11.052  0.00  0.00    +0.000 HD
ENDBRANCH  28  35
ENDBRANCH  27  28
ENDBRANCH  26  27
ENDBRANCH  23  26
ENDBRANCH  19  20
ENDBRANCH   1  19
TORSDOF 11
ENDMDL
MODEL 6
REMARK VINA RESULT:    -7.213      2.731      3.851
REMARK INTER + INTRA:         -12.563
REMARK INTER:                 -11.402
REMARK INTRA:                  -1.161
REMARK UNBOUND:                -1.133
REMARK  Name = 
REMARK  11 active torsions:
REMARK  status: ('A' for Active; 'I' for Inactive)
REMARK    1  A    between atoms: N_1  and  C_2
REMARK    2  A    between atoms: C_2  and  C_3
REMARK    3  A    between atoms: C_3  and  N_4
REMARK    4  A    between atoms: C_3  and  C_22
REMARK    5  A    between atoms: N_4  and  C_5
REMARK    6  A    between atoms: C_5  and  C_6
REMARK    7  A    between atoms: C_9  and  C_10
REMARK    8  A    between atoms: C_10  and  C_11
REMARK    9  A    between atoms: C_11  and  C_12
REMARK   10  A    between atoms: C_12  and  O_13
REMARK   11  A    between atoms: C_12  and  C_14
REMARK                            x       y       z     vdW  Elec       q    Type
REMARK                         _______ _______ _______ _____ _____    ______ ____
ROOT
ATOM      1  N   UNL     1      48.510   8.086  13.960  0.00  0.00    +0.000 NA
ATOM      2  H   UNL     1      48.338   7.261  14.534  0.00  0.00    +0.000 HD
ENDROOT
BRANCH   1   3
ATOM      3  C   UNL     1      49.297   9.037  14.772  0.00  0.00    +0.000 C 
BRANCH   3   4
ATOM      4  C   UNL     1      48.788   8.971  16.203  0.00  0.00    +0.000 A 
ATOM      5  C   UNL     1      48.315  10.042  16.947  0.00  0.00    +0.000 A 
ATOM      6  S   UNL     1      47.779   9.596  18.507  0.00  0.00    +0.000 S 
ATOM      7  C   UNL     1      48.130   7.954  18.228  0.00  0.00    +0.000 A 
ATOM      8  N   UNL     1      47.882   7.004  19.163  0.00  0.00    +0.000 NA
ATOM      9  C   UNL     1      48.179   5.800  18.786  0.00  0.00    +0.000 A 
ATOM     10  N   UNL     1      48.706   5.463  17.566  0.00  0.00    +0.000 N 
ATOM     11  C   UNL     1      48.981   6.390  16.589  0.00  0.00    +0.000 A 
ATOM     12  O   UNL     1      49.448   6.062  15.503  0.00  0.00    +0.000 OA
ATOM     13  C   UNL     1      48.660   7.756  16.962  0.00  0.00    +0.000 A 
ATOM     14  H   UNL     1      48.910   4.503  17.338  0.00  0.00    +0.000 HD
ENDBRANCH   3   4
BRANCH   3  15
ATOM     15  C   UNL     1      50.840   8.789  14.720  0.00  0.00    +0.000 C 
BRANCH  15  16
ATOM     16  N   UNL     1      51.254   7.774  13.742  0.00  0.00    +0.000 NA
ATOM     17  H   UNL     1      51.367   6.874  14.199  0.00  0.00    +0.000 HD
ATOM     18  H   UNL     1      52.160   8.049  13.359  0.00  0.00    +0.000 HD
ENDBRANCH  15  16
ENDBRANCH   3  15
ENDBRANCH   1   3
BRANCH   1  19
ATOM     19  C   UNL     1      47.219   8.651  13.572  0.00  0.00    +0.000 C 
BRANCH  19  20
ATOM     20  C   UNL     1      46.348   7.634  12.880  0.00  0.00    +0.000 A 
ATOM     21  C   UNL     1      46.552   6.259  13.053  0.00  0.00    +0.000 A 
ATOM     22  C   UNL     1      45.717   5.336  12.424  0.00  0.00    +0.000 A 
ATOM     23  C   UNL     1      44.649   5.771  11.631  0.00  0.00    +0.000 A 
ATOM     24  C   UNL     1      44.444   7.143  11.457  0.00  0.00    +0.000 A 
ATOM     25  C   UNL     1      45.288   8.066  12.071  0.00  0.00    +0.000 A 
BRANCH  23  26
ATOM     26  C   UNL     1      43.724   4.784  10.965  0.00  0.00    +0.000 C 
BRANCH  26  27
ATOM     27  C   UNL     1      44.234   4.366   9.584  0.00  0.00    +0.000 C 
BRANCH  27  28
ATOM     28  C   UNL     1      44.505   2.861   9.526  0.00  0.00    +0.000 C 
BRANCH  28  29
ATOM     29  C   UNL     1      45.554   2.537   8.479  0.00  0.00    +0.000 A 
ATOM     30  C   UNL     1      45.990   3.518   7.591  0.00  0.00    +0.000 A 
ATOM     31  C   UNL     1      46.929   3.177   6.622  0.00  0.00    +0.000 A 
ATOM     32  C   UNL     1      47.413   1.876   6.569  0.00  0.00    +0.000 A 
ATOM     33  C   UNL     1      46.935   0.963   7.493  0.00  0.00    +0.000 A 
ATOM     34  N   UNL     1      46.012   1.257   8.437  0.00  0.00    +0.000 NA
ENDBRANCH  28  29
BRANCH  28  35
ATOM     35  O   UNL     1      44.969   2.428  10.806  0.00  0.00    +0.000 OA
ATOM     36  H   UNL     1      44.487   2.985  11.449  0.00  0.00    +0.000 HD
ENDBRANCH  28  35
ENDBRANCH  27  28
ENDBRANCH  26  27
ENDBRANCH  23  26
ENDBRANCH  19  20
ENDBRANCH   1  19
TORSDOF 11
ENDMDL
MODEL 7
REMARK VINA RESULT:    -7.012      3.066      3.910
REMARK INTER + INTRA:         -12.245
REMARK INTER:                 -11.175
REMARK INTRA:                  -1.070
REMARK UNBOUND:                -1.133
REMARK  Name = 
REMARK  11 active torsions:
REMARK  status: ('A' for Active; 'I' for Inactive)
REMARK    1  A    between atoms: N_1  and  C_2
REMARK    2  A    between atoms: C_2  and  C_3
REMARK    3  A    between atoms: C_3  and  N_4
REMARK    4  A    between atoms: C_3  and  C_22
REMARK    5  A    between atoms: N_4  and  C_5
REMARK    6  A    between atoms: C_5  and  C_6
REMARK    7  A    between atoms: C_9  and  C_10
REMARK    8  A    between atoms: C_10  and  C_11
REMARK    9  A    between atoms: C_11  and  C_12
REMARK   10  A    between atoms: C_12  and  O_13
REMARK   11  A    between atoms: C_12  and  C_14
REMARK                            x       y       z     vdW  Elec       q    Type
REMARK                         _______ _______ _______ _____ _____    ______ ____
ROOT
ATOM      1  N   UNL     1      49.378   6.660  13.933  0.00  0.00    +0.000 NA
ATOM      2  H   UNL     1      50.076   5.918  13.979  0.00  0.00    +0.000 HD
ENDROOT
BRANCH   1   3
ATOM      3  C   UNL     1      49.954   7.855  14.583  0.00  0.00    +0.000 C 
BRANCH   3   4
ATOM      4  C   UNL     1      50.428   7.455  15.971  0.00  0.00    +0.000 A 
ATOM      5  C   UNL     1      51.553   6.695  16.257  0.00  0.00    +0.000 A 
ATOM      6  S   UNL     1      51.812   6.476  17.932  0.00  0.00    +0.000 S 
ATOM      7  C   UNL     1      50.449   7.417  18.330  0.00  0.00    +0.000 A 
ATOM      8  N   UNL     1      50.104   7.660  19.618  0.00  0.00    +0.000 NA
ATOM      9  C   UNL     1      49.059   8.415  19.753  0.00  0.00    +0.000 A 
ATOM     10  N   UNL     1      48.328   8.941  18.719  0.00  0.00    +0.000 N 
ATOM     11  C   UNL     1      48.635   8.718  17.397  0.00  0.00    +0.000 A 
ATOM     12  O   UNL     1      47.967   9.206  16.490  0.00  0.00    +0.000 OA
ATOM     13  C   UNL     1      49.803   7.880  17.194  0.00  0.00    +0.000 A 
ATOM     14  H   UNL     1      47.527   9.526  18.897  0.00  0.00    +0.000 HD
ENDBRANCH   3   4
BRANCH   3  15
ATOM     15  C   UNL     1      51.112   8.522  13.772  0.00  0.00    +0.000 C 
BRANCH  15  16
ATOM     16  N   UNL     1      51.416   7.856  12.498  0.00  0.00    +0.000 NA
ATOM     17  H   UNL     1      52.129   8.375  11.993  0.00  0.00    +0.000 HD
ATOM     18  H   UNL     1      50.568   7.850  11.930  0.00  0.00    +0.000 HD
ENDBRANCH  15  16
ENDBRANCH   3  15
ENDBRANCH   1   3
BRANCH   1  19
ATOM     19  C   UNL     1      48.175   6.200  14.622  0.00  0.00    +0.000 C 
BRANCH  19  20
ATOM     20  C   UNL     1      47.076   5.844  13.655  0.00  0.00    +0.000 A 
ATOM     21  C   UNL     1      46.678   6.728  12.643  0.00  0.00    +0.000 A 
ATOM     22  C   UNL     1      45.676   6.366  11.743  0.00  0.00    +0.000 A 
ATOM     23  C   UNL     1      45.072   5.106  11.821  0.00  0.00    +0.000 A 
ATOM     24  C   UNL     1      45.468   4.223  12.830  0.00  0.00    +0.000 A 
ATOM     25  C   UNL     1      46.456   4.589  13.741  0.00  0.00    +0.000 A 
BRANCH  23  26
ATOM     26  C   UNL     1      44.006   4.694  10.839  0.00  0.00    +0.000 C 
BRANCH  26  27
ATOM     27  C   UNL     1      44.584   4.423   9.448  0.00  0.00    +0.000 C 
BRANCH  27  28
ATOM     28  C   UNL     1      44.446   2.947   9.069  0.00  0.00    +0.000 C 
BRANCH  28  29
ATOM     29  C   UNL     1      45.569   2.517   8.143  0.00  0.00    +0.000 A 
ATOM     30  C   UNL     1      46.004   3.359   7.123  0.00  0.00    +0.000 A 
ATOM     31  C   UNL     1      47.013   2.918   6.272  0.00  0.00    +0.000 A 
ATOM     32  C   UNL     1      47.566   1.659   6.465  0.00  0.00    +0.000 A 
ATOM     33  C   UNL     1      47.082   0.885   7.507  0.00  0.00    +0.000 A 
ATOM     34  N   UNL     1      46.093   1.277   8.341  0.00  0.00    +0.000 NA
ENDBRANCH  28  29
BRANCH  28  35
ATOM     35  O   UNL     1      44.492   2.159  10.260  0.00  0.00    +0.000 OA
ATOM     36  H   UNL     1      43.822   1.460  10.122  0.00  0.00    +0.000 HD
ENDBRANCH  28  35
ENDBRANCH  27  28
ENDBRANCH  26  27
ENDBRANCH  23  26
ENDBRANCH  19  20
ENDBRANCH   1  19
TORSDOF 11
ENDMDL
MODEL 8
REMARK VINA RESULT:    -6.990      3.691      4.631
REMARK INTER + INTRA:         -12.210
REMARK INTER:                 -10.914
REMARK INTRA:                  -1.296
REMARK UNBOUND:                -1.133
REMARK  Name = 
REMARK  11 active torsions:
REMARK  status: ('A' for Active; 'I' for Inactive)
REMARK    1  A    between atoms: N_1  and  C_2
REMARK    2  A    between atoms: C_2  and  C_3
REMARK    3  A    between atoms: C_3  and  N_4
REMARK    4  A    between atoms: C_3  and  C_22
REMARK    5  A    between atoms: N_4  and  C_5
REMARK    6  A    between atoms: C_5  and  C_6
REMARK    7  A    between atoms: C_9  and  C_10
REMARK    8  A    between atoms: C_10  and  C_11
REMARK    9  A    between atoms: C_11  and  C_12
REMARK   10  A    between atoms: C_12  and  O_13
REMARK   11  A    between atoms: C_12  and  C_14
REMARK                            x       y       z     vdW  Elec       q    Type
REMARK                         _______ _______ _______ _____ _____    ______ ____
ROOT
ATOM      1  N   UNL     1      49.021   6.577  13.458  0.00  0.00    +0.000 NA
ATOM      2  H   UNL     1      49.879   6.183  13.843  0.00  0.00    +0.000 HD
ENDROOT
BRANCH   1   3
ATOM      3  C   UNL     1      49.192   8.044  13.401  0.00  0.00    +0.000 C 
BRANCH   3   4
ATOM      4  C   UNL     1      50.623   8.336  12.977  0.00  0.00    +0.000 A 
ATOM      5  C   UNL     1      51.019   8.827  11.741  0.00  0.00    +0.000 A 
ATOM      6  S   UNL     1      52.704   9.082  11.624  0.00  0.00    +0.000 S 
ATOM      7  C   UNL     1      52.955   8.577  13.231  0.00  0.00    +0.000 A 
ATOM      8  N   UNL     1      54.190   8.576  13.792  0.00  0.00    +0.000 NA
ATOM      9  C   UNL     1      54.209   8.191  15.028  0.00  0.00    +0.000 A 
ATOM     10  N   UNL     1      53.111   7.803  15.750  0.00  0.00    +0.000 N 
ATOM     11  C   UNL     1      51.840   7.781  15.225  0.00  0.00    +0.000 A 
ATOM     12  O   UNL     1      50.872   7.434  15.894  0.00  0.00    +0.000 OA
ATOM     13  C   UNL     1      51.765   8.210  13.840  0.00  0.00    +0.000 A 
ATOM     14  H   UNL     1      53.198   7.519  16.713  0.00  0.00    +0.000 HD
ENDBRANCH   3   4
BRANCH   3  15
ATOM     15  C   UNL     1      48.175   8.765  12.458  0.00  0.00    +0.000 C 
BRANCH  15  16
ATOM     16  N   UNL     1      47.224   9.641  13.157  0.00  0.00    +0.000 NA
ATOM     17  H   UNL     1      46.550   9.084  13.673  0.00  0.00    +0.000 HD
ATOM     18  H   UNL     1      46.716  10.183  12.457  0.00  0.00    +0.000 HD
ENDBRANCH  15  16
ENDBRANCH   3  15
ENDBRANCH   1   3
BRANCH   1  19
ATOM     19  C   UNL     1      47.912   6.198  14.329  0.00  0.00    +0.000 C 
BRANCH  19  20
ATOM     20  C   UNL     1      46.838   5.453  13.578  0.00  0.00    +0.000 A 
ATOM     21  C   UNL     1      46.857   4.056  13.471  0.00  0.00    +0.000 A 
ATOM     22  C   UNL     1      45.839   3.387  12.793  0.00  0.00    +0.000 A 
ATOM     23  C   UNL     1      44.772   4.098  12.231  0.00  0.00    +0.000 A 
ATOM     24  C   UNL     1      44.752   5.492  12.337  0.00  0.00    +0.000 A 
ATOM     25  C   UNL     1      45.777   6.164  12.999  0.00  0.00    +0.000 A 
BRANCH  23  26
ATOM     26  C   UNL     1      43.653   3.384  11.517  0.00  0.00    +0.000 C 
BRANCH  26  27
ATOM     27  C   UNL     1      44.143   2.672  10.254  0.00  0.00    +0.000 C 
BRANCH  27  28
ATOM     28  C   UNL     1      44.844   3.646   9.306  0.00  0.00    +0.000 C 
BRANCH  28  29
ATOM     29  C   UNL     1      45.741   2.906   8.330  0.00  0.00    +0.000 A 
ATOM     30  C   UNL     1      46.277   3.565   7.227  0.00  0.00    +0.000 A 
ATOM     31  C   UNL     1      47.069   2.846   6.335  0.00  0.00    +0.000 A 
ATOM     32  C   UNL     1      47.310   1.499   6.570  0.00  0.00    +0.000 A 
ATOM     33  C   UNL     1      46.745   0.920   7.694  0.00  0.00    +0.000 A 
ATOM     34  N   UNL     1      45.960   1.585   8.571  0.00  0.00    +0.000 NA
ENDBRANCH  28  29
BRANCH  28  35
ATOM     35  O   UNL     1      43.853   4.371   8.574  0.00  0.00    +0.000 OA
ATOM     36  H   UNL     1      43.400   4.920   9.245  0.00  0.00    +0.000 HD
ENDBRANCH  28  35
ENDBRANCH  27  28
ENDBRANCH  26  27
ENDBRANCH  23  26
ENDBRANCH  19  20
ENDBRANCH   1  19
TORSDOF 11
ENDMDL
MODEL 9
REMARK VINA RESULT:    -6.975      3.290      8.857
REMARK INTER + INTRA:         -12.186
REMARK INTER:                 -10.453
REMARK INTRA:                  -1.733
REMARK UNBOUND:                -1.133
REMARK  Name = 
REMARK  11 active torsions:
REMARK  status: ('A' for Active; 'I' for Inactive)
REMARK    1  A    between atoms: N_1  and  C_2
REMARK    2  A    between atoms: C_2  and  C_3
REMARK    3  A    between atoms: C_3  and  N_4
REMARK    4  A    between atoms: C_3  and  C_22
REMARK    5  A    between atoms: N_4  and  C_5
REMARK    6  A    between atoms: C_5  and  C_6
REMARK    7  A    between atoms: C_9  and  C_10
REMARK    8  A    between atoms: C_10  and  C_11
REMARK    9  A    between atoms: C_11  and  C_12
REMARK   10  A    between atoms: C_12  and  O_13
REMARK   11  A    between atoms: C_12  and  C_14
REMARK                            x       y       z     vdW  Elec       q    Type
REMARK                         _______ _______ _______ _____ _____    ______ ____
ROOT
ATOM      1  N   UNL     1      47.130   6.849  11.652  0.00  0.00    +0.000 NA
ATOM      2  H   UNL     1      47.609   6.606  10.786  0.00  0.00    +0.000 HD
ENDROOT
BRANCH   1   3
ATOM      3  C   UNL     1      45.701   7.041  11.331  0.00  0.00    +0.000 C 
BRANCH   3   4
ATOM      4  C   UNL     1      44.983   5.720  11.561  0.00  0.00    +0.000 A 
ATOM      5  C   UNL     1      44.252   5.379  12.689  0.00  0.00    +0.000 A 
ATOM      6  S   UNL     1      43.541   3.828  12.589  0.00  0.00    +0.000 S 
ATOM      7  C   UNL     1      44.161   3.575  11.024  0.00  0.00    +0.000 A 
ATOM      8  N   UNL     1      43.903   2.439  10.331  0.00  0.00    +0.000 NA
ATOM      9  C   UNL     1      44.423   2.412   9.145  0.00  0.00    +0.000 A 
ATOM     10  N   UNL     1      45.181   3.413   8.593  0.00  0.00    +0.000 N 
ATOM     11  C   UNL     1      45.474   4.581   9.258  0.00  0.00    +0.000 A 
ATOM     12  O   UNL     1      46.151   5.464   8.740  0.00  0.00    +0.000 OA
ATOM     13  C   UNL     1      44.909   4.661  10.592  0.00  0.00    +0.000 A 
ATOM     14  H   UNL     1      45.551   3.327   7.660  0.00  0.00    +0.000 HD
ENDBRANCH   3   4
BRANCH   3  15
ATOM     15  C   UNL     1      45.018   8.191  12.141  0.00  0.00    +0.000 C 
BRANCH  15  16
ATOM     16  N   UNL     1      44.021   8.955  11.377  0.00  0.00    +0.000 NA
ATOM     17  H   UNL     1      44.279   8.980  10.394  0.00  0.00    +0.000 HD
ATOM     18  H   UNL     1      44.018   9.915  11.726  0.00  0.00    +0.000 HD
ENDBRANCH  15  16
ENDBRANCH   3  15
ENDBRANCH   1   3
BRANCH   1  19
ATOM     19  C   UNL     1      47.732   8.072  12.179  0.00  0.00    +0.000 C 
BRANCH  19  20
ATOM     20  C   UNL     1      48.079   7.941  13.640  0.00  0.00    +0.000 A 
ATOM     21  C   UNL     1      48.543   6.732  14.175  0.00  0.00    +0.000 A 
ATOM     22  C   UNL     1      48.882   6.642  15.525  0.00  0.00    +0.000 A 
ATOM     23  C   UNL     1      48.788   7.763  16.358  0.00  0.00    +0.000 A 
ATOM     24  C   UNL     1      48.324   8.970  15.825  0.00  0.00    +0.000 A 
ATOM     25  C   UNL     1      47.968   9.057  14.481  0.00  0.00    +0.000 A 
BRANCH  23  26
ATOM     26  C   UNL     1      49.175   7.685  17.812  0.00  0.00    +0.000 C 
BRANCH  26  27
ATOM     27  C   UNL     1      47.966   7.410  18.711  0.00  0.00    +0.000 C 
BRANCH  27  28
ATOM     28  C   UNL     1      48.144   6.107  19.494  0.00  0.00    +0.000 C 
BRANCH  28  29
ATOM     29  C   UNL     1      48.186   4.913  18.559  0.00  0.00    +0.000 A 
ATOM     30  C   UNL     1      49.359   4.177  18.408  0.00  0.00    +0.000 A 
ATOM     31  C   UNL     1      49.372   3.108  17.517  0.00  0.00    +0.000 A 
ATOM     32  C   UNL     1      48.218   2.796  16.810  0.00  0.00    +0.000 A 
ATOM     33  C   UNL     1      47.091   3.572  17.023  0.00  0.00    +0.000 A 
ATOM     34  N   UNL     1      47.050   4.626  17.869  0.00  0.00    +0.000 NA
ENDBRANCH  28  29
BRANCH  28  35
ATOM     35  O   UNL     1      49.369   6.173  20.227  0.00  0.00    +0.000 OA
ATOM     36  H   UNL     1      49.791   5.302  20.087  0.00  0.00    +0.000 HD
ENDBRANCH  28  35
ENDBRANCH  27  28
ENDBRANCH  26  27
ENDBRANCH  23  26
ENDBRANCH  19  20
ENDBRANCH   1  19
TORSDOF 11
ENDMDL
