MODEL 1
REMARK VINA RESULT:    -7.615      0.000      0.000
REMARK INTER + INTRA:         -12.084
REMARK INTER:                 -10.731
REMARK INTRA:                  -1.354
REMARK UNBOUND:                -1.354
REMARK  Name = 
REMARK  8 active torsions:
REMARK  status: ('A' for Active; 'I' for Inactive)
REMARK    1  A    between atoms: C_1  and  O_2
REMARK    2  A    between atoms: O_2  and  C_3
REMARK    3  A    between atoms: C_10  and  C_11
REMARK    4  A    between atoms: N_13  and  C_14
REMARK    5  A    between atoms: C_14  and  C_15
REMARK    6  A    between atoms: C_18  and  N_19
REMARK    7  A    between atoms: N_19  and  C_20
REMARK    8  A    between atoms: C_20  and  C_21
REMARK                            x       y       z     vdW  Elec       q    Type
REMARK                         _______ _______ _______ _____ _____    ______ ____
ROOT
ATOM      1  C   UNL     1      47.816   8.726  14.088  0.00  0.00    +0.000 C 
ENDROOT
BRANCH   1   2
ATOM      2  C   UNL     1      47.024   8.062  12.993  0.00  0.00    +0.000 A 
ATOM      3  C   UNL     1      45.656   8.322  12.869  0.00  0.00    +0.000 A 
ATOM      4  C   UNL     1      44.876   7.617  11.948  0.00  0.00    +0.000 A 
ATOM      5  C   UNL     1      45.426   6.635  11.123  0.00  0.00    +0.000 A 
ATOM      6  C   UNL     1      46.806   6.396  11.241  0.00  0.00    +0.000 A 
ATOM      7  C   UNL     1      47.597   7.100  12.156  0.00  0.00    +0.000 A 
BRANCH   5   8
ATOM      8  N   UNL     1      44.663   5.767  10.343  0.00  0.00    +0.000 N 
ATOM      9  H   UNL     1      43.668   5.869  10.517  0.00  0.00    +0.000 HD
BRANCH   8  10
ATOM     10  C   UNL     1      45.062   4.378  10.111  0.00  0.00    +0.000 C 
BRANCH  10  11
ATOM     11  C   UNL     1      44.503   3.857   8.762  0.00  0.00    +0.000 C 
ATOM     12  C   UNL     1      44.439   2.333   8.658  0.00  0.00    +0.000 C 
ATOM     13  C   UNL     1      45.846   1.750   8.676  0.00  0.00    +0.000 C 
ATOM     14  C   UNL     1      46.664   2.362   7.547  0.00  0.00    +0.000 C 
ATOM     15  C   UNL     1      46.576   3.886   7.524  0.00  0.00    +0.000 C 
ATOM     16  O   UNL     1      45.238   4.369   7.637  0.00  0.00    +0.000 OA
ENDBRANCH  10  11
ENDBRANCH   8  10
ENDBRANCH   5   8
ENDBRANCH   1   2
BRANCH   1  19
ATOM     17  C   UNL     1      49.265   7.171  15.362  0.00  0.00    +0.000 C 
ATOM     18  O   UNL     1      50.236   7.413  14.652  0.00  0.00    +0.000 OA
ATOM     19  N   UNL     1      48.061   7.784  15.155  0.00  0.00    +0.000 N 
ATOM     20  H   UNL     1      47.260   7.503  15.698  0.00  0.00    +0.000 HD
BRANCH  17  28
ATOM     21  C   UNL     1      47.408   4.407  16.253  0.00  0.00    +0.000 A 
ATOM     22  N   UNL     1      46.868   3.310  16.823  0.00  0.00    +0.000 NA
ATOM     23  C   UNL     1      47.420   2.852  17.949  0.00  0.00    +0.000 A 
ATOM     24  N   UNL     1      48.467   3.358  18.592  0.00  0.00    +0.000 NA
ATOM     25  C   UNL     1      48.979   4.445  17.990  0.00  0.00    +0.000 A 
ATOM     26  S   UNL     1      50.326   5.223  18.668  0.00  0.00    +0.000 S 
ATOM     27  C   UNL     1      50.348   6.381  17.426  0.00  0.00    +0.000 A 
ATOM     28  C   UNL     1      49.346   6.211  16.477  0.00  0.00    +0.000 A 
ATOM     29  C   UNL     1      48.527   5.045  16.817  0.00  0.00    +0.000 A 
BRANCH  21  31
ATOM     30  C   UNL     1      46.964   3.892  14.013  0.00  0.00    +0.000 C 
ATOM     31  O   UNL     1      46.869   4.850  15.063  0.00  0.00    +0.000 OA
ENDBRANCH  21  31
ENDBRANCH  17  28
ENDBRANCH   1  19
TORSDOF 7
ENDMDL
MODEL 2
REMARK VINA RESULT:    -7.058      1.772      2.402
REMARK INTER + INTRA:         -11.299
REMARK INTER:                  -9.591
REMARK INTRA:                  -1.708
REMARK UNBOUND:                -1.354
REMARK  Name = 
REMARK  8 active torsions:
REMARK  status: ('A' for Active; 'I' for Inactive)
REMARK    1  A    between atoms: C_1  and  O_2
REMARK    2  A    between atoms: O_2  and  C_3
REMARK    3  A    between atoms: C_10  and  C_11
REMARK    4  A    between atoms: N_13  and  C_14
REMARK    5  A    between atoms: C_14  and  C_15
REMARK    6  A    between atoms: C_18  and  N_19
REMARK    7  A    between atoms: N_19  and  C_20
REMARK    8  A    between atoms: C_20  and  C_21
REMARK                            x       y       z     vdW  Elec       q    Type
REMARK                         _______ _______ _______ _____ _____    ______ ____
ROOT
ATOM      1  C   UNL     1      48.493   8.775  14.461  0.00  0.00    +0.000 C 
ENDROOT
BRANCH   1   2
ATOM      2  C   UNL     1      47.561   8.344  13.358  0.00  0.00    +0.000 A 
ATOM      3  C   UNL     1      46.271   8.877  13.291  0.00  0.00    +0.000 A 
ATOM      4  C   UNL     1      45.348   8.394  12.360  0.00  0.00    +0.000 A 
ATOM      5  C   UNL     1      45.673   7.370  11.469  0.00  0.00    +0.000 A 
ATOM      6  C   UNL     1      46.979   6.855  11.531  0.00  0.00    +0.000 A 
ATOM      7  C   UNL     1      47.913   7.336  12.456  0.00  0.00    +0.000 A 
BRANCH   5   8
ATOM      8  N   UNL     1      44.736   6.715  10.670  0.00  0.00    +0.000 N 
ATOM      9  H   UNL     1      43.800   7.089  10.792  0.00  0.00    +0.000 HD
BRANCH   8  10
ATOM     10  C   UNL     1      44.751   5.264  10.487  0.00  0.00    +0.000 C 
BRANCH  10  11
ATOM     11  C   UNL     1      43.333   4.665  10.668  0.00  0.00    +0.000 C 
ATOM     12  C   UNL     1      42.502   5.342  11.759  0.00  0.00    +0.000 C 
ATOM     13  C   UNL     1      43.136   5.100  13.122  0.00  0.00    +0.000 C 
ATOM     14  C   UNL     1      43.272   3.602  13.360  0.00  0.00    +0.000 C 
ATOM     15  C   UNL     1      43.929   2.883  12.184  0.00  0.00    +0.000 C 
ATOM     16  O   UNL     1      43.370   3.250  10.923  0.00  0.00    +0.000 OA
ENDBRANCH  10  11
ENDBRANCH   8  10
ENDBRANCH   5   8
ENDBRANCH   1   2
BRANCH   1  19
ATOM     17  C   UNL     1      49.708   7.008  15.702  0.00  0.00    +0.000 C 
ATOM     18  O   UNL     1      50.747   7.215  15.084  0.00  0.00    +0.000 OA
ATOM     19  N   UNL     1      48.578   7.738  15.462  0.00  0.00    +0.000 N 
ATOM     20  H   UNL     1      47.717   7.489  15.925  0.00  0.00    +0.000 HD
BRANCH  17  28
ATOM     21  C   UNL     1      47.519   4.408  16.283  0.00  0.00    +0.000 A 
ATOM     22  N   UNL     1      46.835   3.338  16.738  0.00  0.00    +0.000 NA
ATOM     23  C   UNL     1      47.272   2.739  17.847  0.00  0.00    +0.000 A 
ATOM     24  N   UNL     1      48.330   3.077  18.577  0.00  0.00    +0.000 NA
ATOM     25  C   UNL     1      48.988   4.142  18.088  0.00  0.00    +0.000 A 
ATOM     26  S   UNL     1      50.372   4.713  18.888  0.00  0.00    +0.000 S 
ATOM     27  C   UNL     1      50.585   5.950  17.745  0.00  0.00    +0.000 A 
ATOM     28  C   UNL     1      49.624   5.964  16.740  0.00  0.00    +0.000 A 
ATOM     29  C   UNL     1      48.668   4.874  16.947  0.00  0.00    +0.000 A 
BRANCH  21  31
ATOM     30  C   UNL     1      46.995   4.076  14.026  0.00  0.00    +0.000 C 
ATOM     31  O   UNL     1      47.096   4.996  15.109  0.00  0.00    +0.000 OA
ENDBRANCH  21  31
ENDBRANCH  17  28
ENDBRANCH   1  19
TORSDOF 7
ENDMDL
MODEL 3
REMARK VINA RESULT:    -6.570      4.063      8.881
REMARK INTER + INTRA:         -10.612
REMARK INTER:                  -9.790
REMARK INTRA:                  -0.822
REMARK UNBOUND:                -1.354
REMARK  Name = 
REMARK  8 active torsions:
REMARK  status: ('A' for Active; 'I' for Inactive)
REMARK    1  A    between atoms: C_1  and  O_2
REMARK    2  A    between atoms: O_2  and  C_3
REMARK    3  A    between atoms: C_10  and  C_11
REMARK    4  A    between atoms: N_13  and  C_14
REMARK    5  A    between atoms: C_14  and  C_15
REMARK    6  A    between atoms: C_18  and  N_19
REMARK    7  A    between atoms: N_19  and  C_20
REMARK    8  A    between atoms: C_20  and  C_21
REMARK                            x       y       z     vdW  Elec       q    Type
REMARK                         _______ _______ _______ _____ _____    ______ ____
ROOT
ATOM      1  C   UNL     1      47.112   3.445  16.913  0.00  0.00    +0.000 C 
ENDROOT
BRANCH   1   2
ATOM      2  C   UNL     1      48.574   3.555  17.259  0.00  0.00    +0.000 A 
ATOM      3  C   UNL     1      49.437   2.493  16.974  0.00  0.00    +0.000 A 
ATOM      4  C   UNL     1      50.766   2.518  17.407  0.00  0.00    +0.000 A 
ATOM      5  C   UNL     1      51.279   3.593  18.133  0.00  0.00    +0.000 A 
ATOM      6  C   UNL     1      50.409   4.665  18.396  0.00  0.00    +0.000 A 
ATOM      7  C   UNL     1      49.079   4.652  17.964  0.00  0.00    +0.000 A 
BRANCH   5   8
ATOM      8  N   UNL     1      52.525   3.575  18.761  0.00  0.00    +0.000 N 
ATOM      9  H   UNL     1      52.643   4.354  19.401  0.00  0.00    +0.000 HD
BRANCH   8  10
ATOM     10  C   UNL     1      53.753   3.237  18.040  0.00  0.00    +0.000 C 
BRANCH  10  11
ATOM     11  C   UNL     1      54.485   2.050  18.716  0.00  0.00    +0.000 C 
ATOM     12  C   UNL     1      55.762   1.611  17.998  0.00  0.00    +0.000 C 
ATOM     13  C   UNL     1      55.419   1.045  16.626  0.00  0.00    +0.000 C 
ATOM     14  C   UNL     1      54.432  -0.104  16.783  0.00  0.00    +0.000 C 
ATOM     15  C   UNL     1      53.242   0.266  17.665  0.00  0.00    +0.000 C 
ATOM     16  O   UNL     1      53.628   0.906  18.881  0.00  0.00    +0.000 OA
ENDBRANCH  10  11
ENDBRANCH   8  10
ENDBRANCH   5   8
ENDBRANCH   1   2
BRANCH   1  19
ATOM     17  C   UNL     1      46.913   4.269  14.585  0.00  0.00    +0.000 C 
ATOM     18  O   UNL     1      47.333   3.214  14.121  0.00  0.00    +0.000 OA
ATOM     19  N   UNL     1      46.765   4.446  15.932  0.00  0.00    +0.000 N 
ATOM     20  H   UNL     1      46.499   5.351  16.288  0.00  0.00    +0.000 HD
BRANCH  17  28
ATOM     21  C   UNL     1      44.154   4.952  12.635  0.00  0.00    +0.000 A 
ATOM     22  N   UNL     1      43.217   5.465  11.811  0.00  0.00    +0.000 NA
ATOM     23  C   UNL     1      43.461   6.646  11.241  0.00  0.00    +0.000 A 
ATOM     24  N   UNL     1      44.545   7.401  11.392  0.00  0.00    +0.000 NA
ATOM     25  C   UNL     1      45.450   6.859  12.225  0.00  0.00    +0.000 A 
ATOM     26  S   UNL     1      46.897   7.688  12.544  0.00  0.00    +0.000 S 
ATOM     27  C   UNL     1      47.432   6.457  13.585  0.00  0.00    +0.000 A 
ATOM     28  C   UNL     1      46.540   5.399  13.715  0.00  0.00    +0.000 A 
ATOM     29  C   UNL     1      45.349   5.645  12.899  0.00  0.00    +0.000 A 
BRANCH  21  31
ATOM     30  C   UNL     1      43.582   2.699  12.354  0.00  0.00    +0.000 C 
ATOM     31  O   UNL     1      43.879   3.755  13.263  0.00  0.00    +0.000 OA
ENDBRANCH  21  31
ENDBRANCH  17  28
ENDBRANCH   1  19
TORSDOF 7
ENDMDL
MODEL 4
REMARK VINA RESULT:    -6.533      1.736      1.948
REMARK INTER + INTRA:         -10.560
REMARK INTER:                  -9.577
REMARK INTRA:                  -0.983
REMARK UNBOUND:                -1.354
REMARK  Name = 
REMARK  8 active torsions:
REMARK  status: ('A' for Active; 'I' for Inactive)
REMARK    1  A    between atoms: C_1  and  O_2
REMARK    2  A    between atoms: O_2  and  C_3
REMARK    3  A    between atoms: C_10  and  C_11
REMARK    4  A    between atoms: N_13  and  C_14
REMARK    5  A    between atoms: C_14  and  C_15
REMARK    6  A    between atoms: C_18  and  N_19
REMARK    7  A    between atoms: N_19  and  C_20
REMARK    8  A    between atoms: C_20  and  C_21
REMARK                            x       y       z     vdW  Elec       q    Type
REMARK                         _______ _______ _______ _____ _____    ______ ____
ROOT
ATOM      1  C   UNL     1      47.312   8.992  13.680  0.00  0.00    +0.000 C 
ENDROOT
BRANCH   1   2
ATOM      2  C   UNL     1      46.666   7.795  13.034  0.00  0.00    +0.000 A 
ATOM      3  C   UNL     1      45.502   7.957  12.277  0.00  0.00    +0.000 A 
ATOM      4  C   UNL     1      44.812   6.847  11.782  0.00  0.00    +0.000 A 
ATOM      5  C   UNL     1      45.253   5.545  12.020  0.00  0.00    +0.000 A 
ATOM      6  C   UNL     1      46.436   5.393  12.764  0.00  0.00    +0.000 A 
ATOM      7  C   UNL     1      47.137   6.498  13.260  0.00  0.00    +0.000 A 
BRANCH   5   8
ATOM      8  N   UNL     1      44.497   4.409  11.729  0.00  0.00    +0.000 N 
ATOM      9  H   UNL     1      43.939   4.107  12.521  0.00  0.00    +0.000 HD
BRANCH   8  10
ATOM     10  C   UNL     1      45.041   3.293  10.955  0.00  0.00    +0.000 C 
BRANCH  10  11
ATOM     11  C   UNL     1      44.224   3.066   9.658  0.00  0.00    +0.000 C 
ATOM     12  C   UNL     1      44.518   1.740   8.955  0.00  0.00    +0.000 C 
ATOM     13  C   UNL     1      45.952   1.728   8.444  0.00  0.00    +0.000 C 
ATOM     14  C   UNL     1      46.173   2.920   7.522  0.00  0.00    +0.000 C 
ATOM     15  C   UNL     1      45.699   4.232   8.142  0.00  0.00    +0.000 C 
ATOM     16  O   UNL     1      44.395   4.139   8.715  0.00  0.00    +0.000 OA
ENDBRANCH  10  11
ENDBRANCH   8  10
ENDBRANCH   5   8
ENDBRANCH   1   2
BRANCH   1  19
ATOM     17  C   UNL     1      48.680   8.355  15.645  0.00  0.00    +0.000 C 
ATOM     18  O   UNL     1      49.688   8.211  14.962  0.00  0.00    +0.000 OA
ATOM     19  N   UNL     1      47.494   8.747  15.091  0.00  0.00    +0.000 N 
ATOM     20  H   UNL     1      46.663   8.774  15.662  0.00  0.00    +0.000 HD
BRANCH  17  28
ATOM     21  C   UNL     1      48.484   5.514  17.588  0.00  0.00    +0.000 A 
ATOM     22  N   UNL     1      48.431   4.589  18.569  0.00  0.00    +0.000 NA
ATOM     23  C   UNL     1      48.485   5.012  19.833  0.00  0.00    +0.000 A 
ATOM     24  N   UNL     1      48.590   6.268  20.255  0.00  0.00    +0.000 NA
ATOM     25  C   UNL     1      48.648   7.158  19.249  0.00  0.00    +0.000 A 
ATOM     26  S   UNL     1      48.789   8.813  19.599  0.00  0.00    +0.000 S 
ATOM     27  C   UNL     1      48.800   9.213  17.949  0.00  0.00    +0.000 A 
ATOM     28  C   UNL     1      48.695   8.117  17.100  0.00  0.00    +0.000 A 
ATOM     29  C   UNL     1      48.607   6.883  17.884  0.00  0.00    +0.000 A 
BRANCH  21  31
ATOM     30  C   UNL     1      47.571   3.998  16.055  0.00  0.00    +0.000 C 
ATOM     31  O   UNL     1      48.479   5.073  16.281  0.00  0.00    +0.000 OA
ENDBRANCH  21  31
ENDBRANCH  17  28
ENDBRANCH   1  19
TORSDOF 7
ENDMDL
MODEL 5
REMARK VINA RESULT:    -6.430      2.341      3.543
REMARK INTER + INTRA:         -10.415
REMARK INTER:                  -9.368
REMARK INTRA:                  -1.047
REMARK UNBOUND:                -1.354
REMARK  Name = 
REMARK  8 active torsions:
REMARK  status: ('A' for Active; 'I' for Inactive)
REMARK    1  A    between atoms: C_1  and  O_2
REMARK    2  A    between atoms: O_2  and  C_3
REMARK    3  A    between atoms: C_10  and  C_11
REMARK    4  A    between atoms: N_13  and  C_14
REMARK    5  A    between atoms: C_14  and  C_15
REMARK    6  A    between atoms: C_18  and  N_19
REMARK    7  A    between atoms: N_19  and  C_20
REMARK    8  A    between atoms: C_20  and  C_21
REMARK                            x       y       z     vdW  Elec       q    Type
REMARK                         _______ _______ _______ _____ _____    ______ ____
ROOT
ATOM      1  C   UNL     1      46.802   4.434  14.913  0.00  0.00    +0.000 C 
ENDROOT
BRANCH   1   2
ATOM      2  C   UNL     1      46.232   4.741  13.552  0.00  0.00    +0.000 A 
ATOM      3  C   UNL     1      45.400   3.812  12.921  0.00  0.00    +0.000 A 
ATOM      4  C   UNL     1      44.970   4.016  11.607  0.00  0.00    +0.000 A 
ATOM      5  C   UNL     1      45.350   5.145  10.880  0.00  0.00    +0.000 A 
ATOM      6  C   UNL     1      46.170   6.083  11.530  0.00  0.00    +0.000 A 
ATOM      7  C   UNL     1      46.602   5.890  12.847  0.00  0.00    +0.000 A 
BRANCH   5   8
ATOM      8  N   UNL     1      45.123   5.293   9.511  0.00  0.00    +0.000 N 
ATOM      9  H   UNL     1      44.155   5.118   9.262  0.00  0.00    +0.000 HD
BRANCH   8  10
ATOM     10  C   UNL     1      46.068   4.798   8.510  0.00  0.00    +0.000 C 
BRANCH  10  11
ATOM     11  C   UNL     1      45.367   3.846   7.507  0.00  0.00    +0.000 C 
ATOM     12  C   UNL     1      44.714   2.624   8.154  0.00  0.00    +0.000 C 
ATOM     13  C   UNL     1      45.781   1.726   8.766  0.00  0.00    +0.000 C 
ATOM     14  C   UNL     1      46.788   1.330   7.694  0.00  0.00    +0.000 C 
ATOM     15  C   UNL     1      47.303   2.532   6.906  0.00  0.00    +0.000 C 
ATOM     16  O   UNL     1      46.258   3.401   6.469  0.00  0.00    +0.000 OA
ENDBRANCH  10  11
ENDBRANCH   8  10
ENDBRANCH   5   8
ENDBRANCH   1   2
BRANCH   1  19
ATOM     17  C   UNL     1      48.652   5.428  16.228  0.00  0.00    +0.000 C 
ATOM     18  O   UNL     1      49.022   4.331  16.634  0.00  0.00    +0.000 OA
ATOM     19  N   UNL     1      47.590   5.551  15.377  0.00  0.00    +0.000 N 
ATOM     20  H   UNL     1      47.256   6.470  15.127  0.00  0.00    +0.000 HD
BRANCH  17  28
ATOM     21  C   UNL     1      49.178   6.968  19.267  0.00  0.00    +0.000 A 
ATOM     22  N   UNL     1      49.523   7.768  20.297  0.00  0.00    +0.000 NA
ATOM     23  C   UNL     1      50.204   8.883  20.023  0.00  0.00    +0.000 A 
ATOM     24  N   UNL     1      50.594   9.311  18.827  0.00  0.00    +0.000 NA
ATOM     25  C   UNL     1      50.238   8.484  17.830  0.00  0.00    +0.000 A 
ATOM     26  S   UNL     1      50.659   8.867  16.231  0.00  0.00    +0.000 S 
ATOM     27  C   UNL     1      49.917   7.457  15.643  0.00  0.00    +0.000 A 
ATOM     28  C   UNL     1      49.336   6.670  16.631  0.00  0.00    +0.000 A 
ATOM     29  C   UNL     1      49.534   7.287  17.944  0.00  0.00    +0.000 A 
BRANCH  21  31
ATOM     30  C   UNL     1      47.101   5.910  19.490  0.00  0.00    +0.000 C 
ATOM     31  O   UNL     1      48.519   5.791  19.555  0.00  0.00    +0.000 OA
ENDBRANCH  21  31
ENDBRANCH  17  28
ENDBRANCH   1  19
TORSDOF 7
ENDMDL
MODEL 6
REMARK VINA RESULT:    -6.107      2.514      3.518
REMARK INTER + INTRA:          -9.960
REMARK INTER:                  -8.931
REMARK INTRA:                  -1.029
REMARK UNBOUND:                -1.354
REMARK  Name = 
REMARK  8 active torsions:
REMARK  status: ('A' for Active; 'I' for Inactive)
REMARK    1  A    between atoms: C_1  and  O_2
REMARK    2  A    between atoms: O_2  and  C_3
REMARK    3  A    between atoms: C_10  and  C_11
REMARK    4  A    between atoms: N_13  and  C_14
REMARK    5  A    between atoms: C_14  and  C_15
REMARK    6  A    between atoms: C_18  and  N_19
REMARK    7  A    between atoms: N_19  and  C_20
REMARK    8  A    between atoms: C_20  and  C_21
REMARK                            x       y       z     vdW  Elec       q    Type
REMARK                         _______ _______ _______ _____ _____    ______ ____
ROOT
ATOM      1  C   UNL     1      48.739   7.227  14.067  0.00  0.00    +0.000 C 
ENDROOT
BRANCH   1   2
ATOM      2  C   UNL     1      47.579   6.649  13.298  0.00  0.00    +0.000 A 
ATOM      3  C   UNL     1      46.786   5.656  13.879  0.00  0.00    +0.000 A 
ATOM      4  C   UNL     1      45.791   5.013  13.138  0.00  0.00    +0.000 A 
ATOM      5  C   UNL     1      45.552   5.334  11.801  0.00  0.00    +0.000 A 
ATOM      6  C   UNL     1      46.340   6.348  11.232  0.00  0.00    +0.000 A 
ATOM      7  C   UNL     1      47.335   7.002  11.968  0.00  0.00    +0.000 A 
BRANCH   5   8
ATOM      8  N   UNL     1      44.722   4.586  10.965  0.00  0.00    +0.000 N 
ATOM      9  H   UNL     1      43.761   4.572  11.291  0.00  0.00    +0.000 HD
BRANCH   8  10
ATOM     10  C   UNL     1      45.147   3.311  10.388  0.00  0.00    +0.000 C 
BRANCH  10  11
ATOM     11  C   UNL     1      44.526   3.100   8.984  0.00  0.00    +0.000 C 
ATOM     12  C   UNL     1      44.758   1.707   8.398  0.00  0.00    +0.000 C 
ATOM     13  C   UNL     1      46.243   1.493   8.135  0.00  0.00    +0.000 C 
ATOM     14  C   UNL     1      46.758   2.590   7.211  0.00  0.00    +0.000 C 
ATOM     15  C   UNL     1      46.361   3.985   7.687  0.00  0.00    +0.000 C 
ATOM     16  O   UNL     1      44.981   4.083   8.037  0.00  0.00    +0.000 OA
ENDBRANCH  10  11
ENDBRANCH   8  10
ENDBRANCH   5   8
ENDBRANCH   1   2
BRANCH   1  19
ATOM     17  C   UNL     1      48.993   6.577  16.445  0.00  0.00    +0.000 C 
ATOM     18  O   UNL     1      49.890   5.782  16.185  0.00  0.00    +0.000 OA
ATOM     19  N   UNL     1      48.399   7.324  15.466  0.00  0.00    +0.000 N 
ATOM     20  H   UNL     1      47.608   7.906  15.696  0.00  0.00    +0.000 HD
BRANCH  17  28
ATOM     21  C   UNL     1      48.963   9.280  18.585  0.00  0.00    +0.000 A 
ATOM     22  N   UNL     1      48.823  10.152  19.605  0.00  0.00    +0.000 NA
ATOM     23  C   UNL     1      48.264   9.711  20.734  0.00  0.00    +0.000 A 
ATOM     24  N   UNL     1      47.816   8.485  20.981  0.00  0.00    +0.000 NA
ATOM     25  C   UNL     1      47.967   7.649  19.940  0.00  0.00    +0.000 A 
ATOM     26  S   UNL     1      47.444   6.040  20.073  0.00  0.00    +0.000 S 
ATOM     27  C   UNL     1      47.942   5.693  18.487  0.00  0.00    +0.000 A 
ATOM     28  C   UNL     1      48.513   6.774  17.824  0.00  0.00    +0.000 A 
ATOM     29  C   UNL     1      48.523   7.949  18.698  0.00  0.00    +0.000 A 
BRANCH  21  31
ATOM     30  C   UNL     1      48.687  10.746  16.780  0.00  0.00    +0.000 C 
ATOM     31  O   UNL     1      49.493   9.748  17.401  0.00  0.00    +0.000 OA
ENDBRANCH  21  31
ENDBRANCH  17  28
ENDBRANCH   1  19
TORSDOF 7
ENDMDL
MODEL 7
REMARK VINA RESULT:    -6.082      2.483      4.065
REMARK INTER + INTRA:          -9.924
REMARK INTER:                  -9.592
REMARK INTRA:                  -0.332
REMARK UNBOUND:                -1.354
REMARK  Name = 
REMARK  8 active torsions:
REMARK  status: ('A' for Active; 'I' for Inactive)
REMARK    1  A    between atoms: C_1  and  O_2
REMARK    2  A    between atoms: O_2  and  C_3
REMARK    3  A    between atoms: C_10  and  C_11
REMARK    4  A    between atoms: N_13  and  C_14
REMARK    5  A    between atoms: C_14  and  C_15
REMARK    6  A    between atoms: C_18  and  N_19
REMARK    7  A    between atoms: N_19  and  C_20
REMARK    8  A    between atoms: C_20  and  C_21
REMARK                            x       y       z     vdW  Elec       q    Type
REMARK                         _______ _______ _______ _____ _____    ______ ____
ROOT
ATOM      1  C   UNL     1      46.203   4.297  13.941  0.00  0.00    +0.000 C 
ENDROOT
BRANCH   1   2
ATOM      2  C   UNL     1      45.452   4.397  12.639  0.00  0.00    +0.000 A 
ATOM      3  C   UNL     1      44.593   3.364  12.251  0.00  0.00    +0.000 A 
ATOM      4  C   UNL     1      43.992   3.373  10.989  0.00  0.00    +0.000 A 
ATOM      5  C   UNL     1      44.222   4.402  10.075  0.00  0.00    +0.000 A 
ATOM      6  C   UNL     1      45.070   5.445  10.483  0.00  0.00    +0.000 A 
ATOM      7  C   UNL     1      45.673   5.449  11.745  0.00  0.00    +0.000 A 
BRANCH   5   8
ATOM      8  N   UNL     1      43.817   4.353   8.741  0.00  0.00    +0.000 N 
ATOM      9  H   UNL     1      42.813   4.236   8.649  0.00  0.00    +0.000 HD
BRANCH   8  10
ATOM     10  C   UNL     1      44.573   3.618   7.727  0.00  0.00    +0.000 C 
BRANCH  10  11
ATOM     11  C   UNL     1      46.070   3.517   8.115  0.00  0.00    +0.000 C 
ATOM     12  C   UNL     1      47.035   3.753   6.952  0.00  0.00    +0.000 C 
ATOM     13  C   UNL     1      46.889   2.643   5.920  0.00  0.00    +0.000 C 
ATOM     14  C   UNL     1      47.124   1.294   6.588  0.00  0.00    +0.000 C 
ATOM     15  C   UNL     1      46.305   1.126   7.865  0.00  0.00    +0.000 C 
ATOM     16  O   UNL     1      46.386   2.257   8.732  0.00  0.00    +0.000 OA
ENDBRANCH  10  11
ENDBRANCH   8  10
ENDBRANCH   5   8
ENDBRANCH   1   2
BRANCH   1  19
ATOM     17  C   UNL     1      47.885   5.641  15.167  0.00  0.00    +0.000 C 
ATOM     18  O   UNL     1      47.810   4.924  16.160  0.00  0.00    +0.000 OA
ATOM     19  N   UNL     1      47.144   5.387  14.047  0.00  0.00    +0.000 N 
ATOM     20  H   UNL     1      47.162   6.041  13.280  0.00  0.00    +0.000 HD
BRANCH  17  28
ATOM     21  C   UNL     1      50.946   6.335  16.592  0.00  0.00    +0.000 A 
ATOM     22  N   UNL     1      52.116   6.860  17.012  0.00  0.00    +0.000 NA
ATOM     23  C   UNL     1      52.424   8.098  16.620  0.00  0.00    +0.000 A 
ATOM     24  N   UNL     1      51.699   8.897  15.843  0.00  0.00    +0.000 NA
ATOM     25  C   UNL     1      50.547   8.335  15.441  0.00  0.00    +0.000 A 
ATOM     26  S   UNL     1      49.494   9.209  14.436  0.00  0.00    +0.000 S 
ATOM     27  C   UNL     1      48.387   7.922  14.390  0.00  0.00    +0.000 A 
ATOM     28  C   UNL     1      48.781   6.811  15.128  0.00  0.00    +0.000 A 
ATOM     29  C   UNL     1      50.080   7.061  15.755  0.00  0.00    +0.000 A 
BRANCH  21  31
ATOM     30  C   UNL     1      51.760   4.349  17.527  0.00  0.00    +0.000 C 
ATOM     31  O   UNL     1      50.651   5.038  16.956  0.00  0.00    +0.000 OA
ENDBRANCH  21  31
ENDBRANCH  17  28
ENDBRANCH   1  19
TORSDOF 7
ENDMDL
MODEL 8
REMARK VINA RESULT:    -5.867      3.566      5.625
REMARK INTER + INTRA:          -9.622
REMARK INTER:                  -8.352
REMARK INTRA:                  -1.270
REMARK UNBOUND:                -1.354
REMARK  Name = 
REMARK  8 active torsions:
REMARK  status: ('A' for Active; 'I' for Inactive)
REMARK    1  A    between atoms: C_1  and  O_2
REMARK    2  A    between atoms: O_2  and  C_3
REMARK    3  A    between atoms: C_10  and  C_11
REMARK    4  A    between atoms: N_13  and  C_14
REMARK    5  A    between atoms: C_14  and  C_15
REMARK    6  A    between atoms: C_18  and  N_19
REMARK    7  A    between atoms: N_19  and  C_20
REMARK    8  A    between atoms: C_20  and  C_21
REMARK                            x       y       z     vdW  Elec       q    Type
REMARK                         _______ _______ _______ _____ _____    ______ ____
ROOT
ATOM      1  C   UNL     1      48.569   3.217  18.075  0.00  0.00    +0.000 C 
ENDROOT
BRANCH   1   2
ATOM      2  C   UNL     1      48.270   4.002  16.824  0.00  0.00    +0.000 A 
ATOM      3  C   UNL     1      48.715   5.321  16.709  0.00  0.00    +0.000 A 
ATOM      4  C   UNL     1      48.335   6.110  15.619  0.00  0.00    +0.000 A 
ATOM      5  C   UNL     1      47.505   5.615  14.612  0.00  0.00    +0.000 A 
ATOM      6  C   UNL     1      47.079   4.281  14.727  0.00  0.00    +0.000 A 
ATOM      7  C   UNL     1      47.458   3.482  15.811  0.00  0.00    +0.000 A 
BRANCH   5   8
ATOM      8  N   UNL     1      46.933   6.415  13.622  0.00  0.00    +0.000 N 
ATOM      9  H   UNL     1      46.281   7.092  14.005  0.00  0.00    +0.000 HD
BRANCH   8  10
ATOM     10  C   UNL     1      46.497   5.867  12.337  0.00  0.00    +0.000 C 
BRANCH  10  11
ATOM     11  C   UNL     1      45.027   6.256  12.037  0.00  0.00    +0.000 C 
ATOM     12  C   UNL     1      44.007   5.640  12.996  0.00  0.00    +0.000 C 
ATOM     13  C   UNL     1      43.985   4.127  12.832  0.00  0.00    +0.000 C 
ATOM     14  C   UNL     1      43.681   3.778  11.380  0.00  0.00    +0.000 C 
ATOM     15  C   UNL     1      44.569   4.541  10.400  0.00  0.00    +0.000 C 
ATOM     16  O   UNL     1      44.646   5.936  10.687  0.00  0.00    +0.000 OA
ENDBRANCH  10  11
ENDBRANCH   8  10
ENDBRANCH   5   8
ENDBRANCH   1   2
BRANCH   1  19
ATOM     17  C   UNL     1      50.718   2.189  17.393  0.00  0.00    +0.000 C 
ATOM     18  O   UNL     1      50.189   1.567  16.477  0.00  0.00    +0.000 OA
ATOM     19  N   UNL     1      49.994   3.021  18.200  0.00  0.00    +0.000 N 
ATOM     20  H   UNL     1      50.438   3.452  18.996  0.00  0.00    +0.000 HD
BRANCH  17  28
ATOM     21  C   UNL     1      53.228   4.500  17.884  0.00  0.00    +0.000 A 
ATOM     22  N   UNL     1      54.378   5.170  18.109  0.00  0.00    +0.000 NA
ATOM     23  C   UNL     1      55.490   4.458  18.305  0.00  0.00    +0.000 A 
ATOM     24  N   UNL     1      55.604   3.134  18.308  0.00  0.00    +0.000 NA
ATOM     25  C   UNL     1      54.438   2.505  18.088  0.00  0.00    +0.000 A 
ATOM     26  S   UNL     1      54.392   0.808  18.062  0.00  0.00    +0.000 S 
ATOM     27  C   UNL     1      52.721   0.806  17.760  0.00  0.00    +0.000 A 
ATOM     28  C   UNL     1      52.162   2.076  17.669  0.00  0.00    +0.000 A 
ATOM     29  C   UNL     1      53.195   3.094  17.870  0.00  0.00    +0.000 A 
BRANCH  21  31
ATOM     30  C   UNL     1      51.843   6.152  18.799  0.00  0.00    +0.000 C 
ATOM     31  O   UNL     1      52.070   5.234  17.732  0.00  0.00    +0.000 OA
ENDBRANCH  21  31
ENDBRANCH  17  28
ENDBRANCH   1  19
TORSDOF 7
ENDMDL
MODEL 9
REMARK VINA RESULT:    -5.788      2.817      3.792
REMARK INTER + INTRA:          -9.511
REMARK INTER:                  -8.220
REMARK INTRA:                  -1.291
REMARK UNBOUND:                -1.354
REMARK  Name = 
REMARK  8 active torsions:
REMARK  status: ('A' for Active; 'I' for Inactive)
REMARK    1  A    between atoms: C_1  and  O_2
REMARK    2  A    between atoms: O_2  and  C_3
REMARK    3  A    between atoms: C_10  and  C_11
REMARK    4  A    between atoms: N_13  and  C_14
REMARK    5  A    between atoms: C_14  and  C_15
REMARK    6  A    between atoms: C_18  and  N_19
REMARK    7  A    between atoms: N_19  and  C_20
REMARK    8  A    between atoms: C_20  and  C_21
REMARK                            x       y       z     vdW  Elec       q    Type
REMARK                         _______ _______ _______ _____ _____    ______ ____
ROOT
ATOM      1  C   UNL     1      47.845   8.887  12.300  0.00  0.00    +0.000 C 
ENDROOT
BRANCH   1   2
ATOM      2  C   UNL     1      46.907   7.710  12.367  0.00  0.00    +0.000 A 
ATOM      3  C   UNL     1      47.346   6.501  12.914  0.00  0.00    +0.000 A 
ATOM      4  C   UNL     1      46.539   5.361  12.863  0.00  0.00    +0.000 A 
ATOM      5  C   UNL     1      45.276   5.383  12.272  0.00  0.00    +0.000 A 
ATOM      6  C   UNL     1      44.835   6.608  11.743  0.00  0.00    +0.000 A 
ATOM      7  C   UNL     1      45.633   7.757  11.793  0.00  0.00    +0.000 A 
BRANCH   5   8
ATOM      8  N   UNL     1      44.525   4.236  12.012  0.00  0.00    +0.000 N 
ATOM      9  H   UNL     1      44.036   3.903  12.836  0.00  0.00    +0.000 HD
BRANCH   8  10
ATOM     10  C   UNL     1      45.033   3.150  11.173  0.00  0.00    +0.000 C 
BRANCH  10  11
ATOM     11  C   UNL     1      44.179   2.995   9.888  0.00  0.00    +0.000 C 
ATOM     12  C   UNL     1      44.545   1.778   9.037  0.00  0.00    +0.000 C 
ATOM     13  C   UNL     1      45.952   1.938   8.476  0.00  0.00    +0.000 C 
ATOM     14  C   UNL     1      46.037   3.235   7.681  0.00  0.00    +0.000 C 
ATOM     15  C   UNL     1      45.490   4.431   8.456  0.00  0.00    +0.000 C 
ATOM     16  O   UNL     1      44.224   4.171   9.061  0.00  0.00    +0.000 OA
ENDBRANCH  10  11
ENDBRANCH   8  10
ENDBRANCH   5   8
ENDBRANCH   1   2
BRANCH   1  19
ATOM     17  C   UNL     1      50.124   9.423  13.113  0.00  0.00    +0.000 C 
ATOM     18  O   UNL     1      49.975  10.621  12.894  0.00  0.00    +0.000 OA
ATOM     19  N   UNL     1      49.125   8.524  12.862  0.00  0.00    +0.000 N 
ATOM     20  H   UNL     1      49.304   7.538  12.971  0.00  0.00    +0.000 HD
BRANCH  17  28
ATOM     21  C   UNL     1      50.856   7.189  15.635  0.00  0.00    +0.000 A 
ATOM     22  N   UNL     1      51.417   6.368  16.545  0.00  0.00    +0.000 NA
ATOM     23  C   UNL     1      52.749   6.293  16.586  0.00  0.00    +0.000 A 
ATOM     24  N   UNL     1      53.612   6.946  15.815  0.00  0.00    +0.000 NA
ATOM     25  C   UNL     1      53.014   7.748  14.917  0.00  0.00    +0.000 A 
ATOM     26  S   UNL     1      53.962   8.657  13.842  0.00  0.00    +0.000 S 
ATOM     27  C   UNL     1      52.583   9.330  13.115  0.00  0.00    +0.000 A 
ATOM     28  C   UNL     1      51.383   8.890  13.662  0.00  0.00    +0.000 A 
ATOM     29  C   UNL     1      51.645   7.937  14.743  0.00  0.00    +0.000 A 
BRANCH  21  31
ATOM     30  C   UNL     1      48.889   8.107  16.513  0.00  0.00    +0.000 C 
ATOM     31  O   UNL     1      49.479   7.228  15.559  0.00  0.00    +0.000 OA
ENDBRANCH  21  31
ENDBRANCH  17  28
ENDBRANCH   1  19
TORSDOF 7
ENDMDL
