MODEL 1
REMARK VINA RESULT:    -8.528      0.000      0.000
REMARK INTER + INTRA:         -13.293
REMARK INTER:                 -12.017
REMARK INTRA:                  -1.276
REMARK UNBOUND:                -1.276
REMARK  Name = 
REMARK  8 active torsions:
REMARK  status: ('A' for Active; 'I' for Inactive)
REMARK    1  A    between atoms: C_1  and  C_2
REMARK    2  A    between atoms: C_2  and  N_3
REMARK    3  A    between atoms: C_2  and  C_25
REMARK    4  A    between atoms: N_3  and  C_4
REMARK    5  A    between atoms: C_4  and  C_5
REMARK    6  A    between atoms: C_8  and  C_9
REMARK    7  A    between atoms: C_9  and  N_10
REMARK    8  A    between atoms: C_11  and  C_13
REMARK                            x       y       z     vdW  Elec       q    Type
REMARK                         _______ _______ _______ _____ _____    ______ ____
ROOT
ATOM      1  C   UNL     1      44.574   5.754  11.042  0.00  0.00    +0.000 A 
ATOM      2  C   UNL     1      45.902   5.851  10.631  0.00  0.00    +0.000 A 
ATOM      3  C   UNL     1      46.795   6.598  11.396  0.00  0.00    +0.000 A 
ATOM      4  C   UNL     1      46.347   7.257  12.541  0.00  0.00    +0.000 A 
ATOM      5  C   UNL     1      45.006   7.102  12.878  0.00  0.00    +0.000 A 
ATOM      6  N   UNL     1      44.115   6.370  12.163  0.00  0.00    +0.000 NA
ENDROOT
BRANCH   1   7
ATOM      7  C   UNL     1      43.587   4.926  10.234  0.00  0.00    +0.000 C 
BRANCH   7   8
ATOM      8  N   UNL     1      44.196   4.417   9.005  0.00  0.00    +0.000 NA
ATOM      9  H   UNL     1      43.571   4.686   8.239  0.00  0.00    +0.000 HD
BRANCH   8  11
ATOM     10  C   UNL     1      44.503   2.348  10.376  0.00  0.00    +0.000 C 
ATOM     11  C   UNL     1      44.364   2.949   8.972  0.00  0.00    +0.000 C 
BRANCH  11  12
ATOM     12  C   UNL     1      45.585   2.548   8.137  0.00  0.00    +0.000 A 
ATOM     13  C   UNL     1      46.156   3.444   7.229  0.00  0.00    +0.000 A 
ATOM     14  C   UNL     1      47.220   3.029   6.436  0.00  0.00    +0.000 A 
ATOM     15  C   UNL     1      47.712   1.740   6.585  0.00  0.00    +0.000 A 
ATOM     16  C   UNL     1      47.121   0.922   7.533  0.00  0.00    +0.000 A 
ATOM     17  N   UNL     1      46.075   1.291   8.307  0.00  0.00    +0.000 NA
ENDBRANCH  11  12
ENDBRANCH   8  11
ENDBRANCH   7   8
ENDBRANCH   1   7
BRANCH   4  18
ATOM     18  C   UNL     1      47.282   8.055  13.400  0.00  0.00    +0.000 C 
BRANCH  18  19
ATOM     19  N   UNL     1      47.633   7.331  14.596  0.00  0.00    +0.000 N 
ATOM     20  C   UNL     1      48.898   6.833  14.783  0.00  0.00    +0.000 C 
ATOM     21  O   UNL     1      49.797   7.015  13.967  0.00  0.00    +0.000 OA
ATOM     22  H   UNL     1      46.871   6.967  15.159  0.00  0.00    +0.000 HD
BRANCH  20  23
ATOM     23  C   UNL     1      49.140   6.123  16.048  0.00  0.00    +0.000 A 
ATOM     24  C   UNL     1      50.154   6.551  16.892  0.00  0.00    +0.000 A 
ATOM     25  S   UNL     1      50.265   5.649  18.336  0.00  0.00    +0.000 S 
ATOM     26  C   UNL     1      48.994   4.626  17.858  0.00  0.00    +0.000 A 
ATOM     27  N   UNL     1      48.593   3.592  18.651  0.00  0.00    +0.000 NA
ATOM     28  C   UNL     1      47.634   2.880  18.155  0.00  0.00    +0.000 A 
ATOM     29  N   UNL     1      47.044   3.108  16.936  0.00  0.00    +0.000 N 
ATOM     30  C   UNL     1      47.397   4.153  16.120  0.00  0.00    +0.000 A 
ATOM     31  O   UNL     1      46.817   4.355  15.056  0.00  0.00    +0.000 OA
ATOM     32  C   UNL     1      48.478   4.978  16.626  0.00  0.00    +0.000 A 
ATOM     33  H   UNL     1      46.292   2.520  16.613  0.00  0.00    +0.000 HD
ENDBRANCH  20  23
ENDBRANCH  18  19
ENDBRANCH   4  18
TORSDOF 7
ENDMDL
MODEL 2
REMARK VINA RESULT:    -7.738      2.760      3.524
REMARK INTER + INTRA:         -12.181
REMARK INTER:                 -11.225
REMARK INTRA:                  -0.955
REMARK UNBOUND:                -1.276
REMARK  Name = 
REMARK  8 active torsions:
REMARK  status: ('A' for Active; 'I' for Inactive)
REMARK    1  A    between atoms: C_1  and  C_2
REMARK    2  A    between atoms: C_2  and  N_3
REMARK    3  A    between atoms: C_2  and  C_25
REMARK    4  A    between atoms: N_3  and  C_4
REMARK    5  A    between atoms: C_4  and  C_5
REMARK    6  A    between atoms: C_8  and  C_9
REMARK    7  A    between atoms: C_9  and  N_10
REMARK    8  A    between atoms: C_11  and  C_13
REMARK                            x       y       z     vdW  Elec       q    Type
REMARK                         _______ _______ _______ _____ _____    ______ ____
ROOT
ATOM      1  C   UNL     1      46.531   4.724  13.478  0.00  0.00    +0.000 A 
ATOM      2  C   UNL     1      47.110   5.920  13.059  0.00  0.00    +0.000 A 
ATOM      3  C   UNL     1      47.940   6.615  13.936  0.00  0.00    +0.000 A 
ATOM      4  C   UNL     1      48.158   6.122  15.223  0.00  0.00    +0.000 A 
ATOM      5  C   UNL     1      47.543   4.919  15.554  0.00  0.00    +0.000 A 
ATOM      6  N   UNL     1      46.742   4.211  14.718  0.00  0.00    +0.000 NA
ENDROOT
BRANCH   1   7
ATOM      7  C   UNL     1      45.640   3.937  12.529  0.00  0.00    +0.000 C 
BRANCH   7   8
ATOM      8  N   UNL     1      45.157   4.775  11.431  0.00  0.00    +0.000 NA
ATOM      9  H   UNL     1      44.607   5.526  11.860  0.00  0.00    +0.000 HD
BRANCH   8  11
ATOM     10  C   UNL     1      43.517   2.915  11.105  0.00  0.00    +0.000 C 
ATOM     11  C   UNL     1      44.296   4.068  10.460  0.00  0.00    +0.000 C 
BRANCH  11  12
ATOM     12  C   UNL     1      45.117   3.517   9.288  0.00  0.00    +0.000 A 
ATOM     13  C   UNL     1      45.321   2.143   9.142  0.00  0.00    +0.000 A 
ATOM     14  C   UNL     1      46.128   1.677   8.108  0.00  0.00    +0.000 A 
ATOM     15  C   UNL     1      46.691   2.589   7.227  0.00  0.00    +0.000 A 
ATOM     16  C   UNL     1      46.412   3.932   7.412  0.00  0.00    +0.000 A 
ATOM     17  N   UNL     1      45.646   4.417   8.416  0.00  0.00    +0.000 NA
ENDBRANCH  11  12
ENDBRANCH   8  11
ENDBRANCH   7   8
ENDBRANCH   1   7
BRANCH   4  18
ATOM     18  C   UNL     1      49.060   6.831  16.189  0.00  0.00    +0.000 C 
BRANCH  18  19
ATOM     19  N   UNL     1      50.135   5.974  16.620  0.00  0.00    +0.000 N 
ATOM     20  C   UNL     1      50.166   5.449  17.887  0.00  0.00    +0.000 C 
ATOM     21  O   UNL     1      49.264   5.646  18.696  0.00  0.00    +0.000 OA
ATOM     22  H   UNL     1      50.990   5.991  16.072  0.00  0.00    +0.000 HD
BRANCH  20  23
ATOM     23  C   UNL     1      51.308   4.579  18.207  0.00  0.00    +0.000 A 
ATOM     24  C   UNL     1      52.411   5.107  18.860  0.00  0.00    +0.000 A 
ATOM     25  S   UNL     1      53.622   3.952  19.198  0.00  0.00    +0.000 S 
ATOM     26  C   UNL     1      52.732   2.719  18.437  0.00  0.00    +0.000 A 
ATOM     27  N   UNL     1      53.228   1.452  18.347  0.00  0.00    +0.000 NA
ATOM     28  C   UNL     1      52.459   0.621  17.722  0.00  0.00    +0.000 A 
ATOM     29  N   UNL     1      51.242   0.945  17.175  0.00  0.00    +0.000 N 
ATOM     30  C   UNL     1      50.693   2.200  17.266  0.00  0.00    +0.000 A 
ATOM     31  O   UNL     1      49.581   2.444  16.805  0.00  0.00    +0.000 OA
ATOM     32  C   UNL     1      51.521   3.175  17.951  0.00  0.00    +0.000 A 
ATOM     33  H   UNL     1      50.687   0.245  16.709  0.00  0.00    +0.000 HD
ENDBRANCH  20  23
ENDBRANCH  18  19
ENDBRANCH   4  18
TORSDOF 7
ENDMDL
MODEL 3
REMARK VINA RESULT:    -7.728      1.762      2.132
REMARK INTER + INTRA:         -12.166
REMARK INTER:                 -11.171
REMARK INTRA:                  -0.995
REMARK UNBOUND:                -1.276
REMARK  Name = 
REMARK  8 active torsions:
REMARK  status: ('A' for Active; 'I' for Inactive)
REMARK    1  A    between atoms: C_1  and  C_2
REMARK    2  A    between atoms: C_2  and  N_3
REMARK    3  A    between atoms: C_2  and  C_25
REMARK    4  A    between atoms: N_3  and  C_4
REMARK    5  A    between atoms: C_4  and  C_5
REMARK    6  A    between atoms: C_8  and  C_9
REMARK    7  A    between atoms: C_9  and  N_10
REMARK    8  A    between atoms: C_11  and  C_13
REMARK                            x       y       z     vdW  Elec       q    Type
REMARK                         _______ _______ _______ _____ _____    ______ ____
ROOT
ATOM      1  C   UNL     1      45.079   5.602  11.677  0.00  0.00    +0.000 A 
ATOM      2  C   UNL     1      45.894   6.606  11.156  0.00  0.00    +0.000 A 
ATOM      3  C   UNL     1      47.036   6.984  11.859  0.00  0.00    +0.000 A 
ATOM      4  C   UNL     1      47.333   6.377  13.079  0.00  0.00    +0.000 A 
ATOM      5  C   UNL     1      46.466   5.383  13.521  0.00  0.00    +0.000 A 
ATOM      6  N   UNL     1      45.356   4.981  12.853  0.00  0.00    +0.000 NA
ENDROOT
BRANCH   1   7
ATOM      7  C   UNL     1      43.840   5.158  10.915  0.00  0.00    +0.000 C 
BRANCH   7   8
ATOM      8  N   UNL     1      44.156   4.829   9.525  0.00  0.00    +0.000 NA
ATOM      9  H   UNL     1      43.436   5.278   8.950  0.00  0.00    +0.000 HD
BRANCH   8  11
ATOM     10  C   UNL     1      44.180   2.526  10.500  0.00  0.00    +0.000 C 
ATOM     11  C   UNL     1      44.150   3.381   9.227  0.00  0.00    +0.000 C 
BRANCH  11  12
ATOM     12  C   UNL     1      45.339   2.992   8.341  0.00  0.00    +0.000 A 
ATOM     13  C   UNL     1      45.848   1.691   8.358  0.00  0.00    +0.000 A 
ATOM     14  C   UNL     1      46.970   1.386   7.594  0.00  0.00    +0.000 A 
ATOM     15  C   UNL     1      47.543   2.375   6.809  0.00  0.00    +0.000 A 
ATOM     16  C   UNL     1      46.960   3.630   6.813  0.00  0.00    +0.000 A 
ATOM     17  N   UNL     1      45.879   3.963   7.557  0.00  0.00    +0.000 NA
ENDBRANCH  11  12
ENDBRANCH   8  11
ENDBRANCH   7   8
ENDBRANCH   1   7
BRANCH   4  18
ATOM     18  C   UNL     1      48.563   6.743  13.855  0.00  0.00    +0.000 C 
BRANCH  18  19
ATOM     19  N   UNL     1      48.330   6.645  15.274  0.00  0.00    +0.000 N 
ATOM     20  C   UNL     1      49.027   7.419  16.167  0.00  0.00    +0.000 C 
ATOM     21  O   UNL     1      49.846   8.257  15.802  0.00  0.00    +0.000 OA
ATOM     22  H   UNL     1      47.850   5.816  15.609  0.00  0.00    +0.000 HD
BRANCH  20  23
ATOM     23  C   UNL     1      48.694   7.239  17.587  0.00  0.00    +0.000 A 
ATOM     24  C   UNL     1      48.213   8.312  18.322  0.00  0.00    +0.000 A 
ATOM     25  S   UNL     1      47.829   7.918  19.937  0.00  0.00    +0.000 S 
ATOM     26  C   UNL     1      48.340   6.311  19.721  0.00  0.00    +0.000 A 
ATOM     27  N   UNL     1      48.302   5.421  20.754  0.00  0.00    +0.000 NA
ATOM     28  C   UNL     1      48.742   4.241  20.458  0.00  0.00    +0.000 A 
ATOM     29  N   UNL     1      49.221   3.875  19.225  0.00  0.00    +0.000 N 
ATOM     30  C   UNL     1      49.252   4.730  18.151  0.00  0.00    +0.000 A 
ATOM     31  O   UNL     1      49.645   4.355  17.049  0.00  0.00    +0.000 OA
ATOM     32  C   UNL     1      48.777   6.072  18.433  0.00  0.00    +0.000 A 
ATOM     33  H   UNL     1      49.541   2.934  19.058  0.00  0.00    +0.000 HD
ENDBRANCH  20  23
ENDBRANCH  18  19
ENDBRANCH   4  18
TORSDOF 7
ENDMDL
MODEL 4
REMARK VINA RESULT:    -7.698      2.424      2.946
REMARK INTER + INTRA:         -12.123
REMARK INTER:                 -11.072
REMARK INTRA:                  -1.051
REMARK UNBOUND:                -1.276
REMARK  Name = 
REMARK  8 active torsions:
REMARK  status: ('A' for Active; 'I' for Inactive)
REMARK    1  A    between atoms: C_1  and  C_2
REMARK    2  A    between atoms: C_2  and  N_3
REMARK    3  A    between atoms: C_2  and  C_25
REMARK    4  A    between atoms: N_3  and  C_4
REMARK    5  A    between atoms: C_4  and  C_5
REMARK    6  A    between atoms: C_8  and  C_9
REMARK    7  A    between atoms: C_9  and  N_10
REMARK    8  A    between atoms: C_11  and  C_13
REMARK                            x       y       z     vdW  Elec       q    Type
REMARK                         _______ _______ _______ _____ _____    ______ ____
ROOT
ATOM      1  C   UNL     1      45.603   5.556  11.773  0.00  0.00    +0.000 A 
ATOM      2  C   UNL     1      45.822   4.926  12.997  0.00  0.00    +0.000 A 
ATOM      3  C   UNL     1      46.856   5.377  13.815  0.00  0.00    +0.000 A 
ATOM      4  C   UNL     1      47.669   6.428  13.391  0.00  0.00    +0.000 A 
ATOM      5  C   UNL     1      47.375   6.999  12.157  0.00  0.00    +0.000 A 
ATOM      6  N   UNL     1      46.367   6.593  11.345  0.00  0.00    +0.000 NA
ENDROOT
BRANCH   1   7
ATOM      7  C   UNL     1      44.466   5.094  10.874  0.00  0.00    +0.000 C 
BRANCH   7   8
ATOM      8  N   UNL     1      44.944   4.773   9.529  0.00  0.00    +0.000 NA
ATOM      9  H   UNL     1      44.551   5.485   8.905  0.00  0.00    +0.000 HD
BRANCH   8  11
ATOM     10  C   UNL     1      44.189   2.480  10.182  0.00  0.00    +0.000 C 
ATOM     11  C   UNL     1      44.526   3.444   9.037  0.00  0.00    +0.000 C 
BRANCH  11  12
ATOM     12  C   UNL     1      45.610   2.811   8.158  0.00  0.00    +0.000 A 
ATOM     13  C   UNL     1      46.177   3.524   7.098  0.00  0.00    +0.000 A 
ATOM     14  C   UNL     1      47.109   2.899   6.276  0.00  0.00    +0.000 A 
ATOM     15  C   UNL     1      47.477   1.589   6.543  0.00  0.00    +0.000 A 
ATOM     16  C   UNL     1      46.902   0.960   7.633  0.00  0.00    +0.000 A 
ATOM     17  N   UNL     1      45.981   1.534   8.442  0.00  0.00    +0.000 NA
ENDBRANCH  11  12
ENDBRANCH   8  11
ENDBRANCH   7   8
ENDBRANCH   1   7
BRANCH   4  18
ATOM     18  C   UNL     1      48.779   6.954  14.251  0.00  0.00    +0.000 C 
BRANCH  18  19
ATOM     19  N   UNL     1      48.436   6.871  15.648  0.00  0.00    +0.000 N 
ATOM     20  C   UNL     1      49.288   6.302  16.561  0.00  0.00    +0.000 C 
ATOM     21  O   UNL     1      50.395   5.877  16.241  0.00  0.00    +0.000 OA
ATOM     22  H   UNL     1      47.458   6.990  15.894  0.00  0.00    +0.000 HD
BRANCH  20  23
ATOM     23  C   UNL     1      48.834   6.287  17.959  0.00  0.00    +0.000 A 
ATOM     24  C   UNL     1      48.917   5.116  18.696  0.00  0.00    +0.000 A 
ATOM     25  S   UNL     1      48.395   5.286  20.312  0.00  0.00    +0.000 S 
ATOM     26  C   UNL     1      47.994   6.920  20.064  0.00  0.00    +0.000 A 
ATOM     27  N   UNL     1      47.453   7.667  21.069  0.00  0.00    +0.000 NA
ATOM     28  C   UNL     1      47.173   8.885  20.738  0.00  0.00    +0.000 A 
ATOM     29  N   UNL     1      47.381   9.421  19.491  0.00  0.00    +0.000 N 
ATOM     30  C   UNL     1      47.948   8.714  18.459  0.00  0.00    +0.000 A 
ATOM     31  O   UNL     1      48.162   9.238  17.369  0.00  0.00    +0.000 OA
ATOM     32  C   UNL     1      48.272   7.336  18.777  0.00  0.00    +0.000 A 
ATOM     33  H   UNL     1      47.149  10.383  19.302  0.00  0.00    +0.000 HD
ENDBRANCH  20  23
ENDBRANCH  18  19
ENDBRANCH   4  18
TORSDOF 7
ENDMDL
MODEL 5
REMARK VINA RESULT:    -7.122      3.173      7.988
REMARK INTER + INTRA:         -11.312
REMARK INTER:                  -9.795
REMARK INTRA:                  -1.517
REMARK UNBOUND:                -1.276
REMARK  Name = 
REMARK  8 active torsions:
REMARK  status: ('A' for Active; 'I' for Inactive)
REMARK    1  A    between atoms: C_1  and  C_2
REMARK    2  A    between atoms: C_2  and  N_3
REMARK    3  A    between atoms: C_2  and  C_25
REMARK    4  A    between atoms: N_3  and  C_4
REMARK    5  A    between atoms: C_4  and  C_5
REMARK    6  A    between atoms: C_8  and  C_9
REMARK    7  A    between atoms: C_9  and  N_10
REMARK    8  A    between atoms: C_11  and  C_13
REMARK                            x       y       z     vdW  Elec       q    Type
REMARK                         _______ _______ _______ _____ _____    ______ ____
ROOT
ATOM      1  C   UNL     1      48.661   7.868  16.253  0.00  0.00    +0.000 A 
ATOM      2  C   UNL     1      48.680   6.683  15.520  0.00  0.00    +0.000 A 
ATOM      3  C   UNL     1      48.569   6.743  14.132  0.00  0.00    +0.000 A 
ATOM      4  C   UNL     1      48.415   7.978  13.501  0.00  0.00    +0.000 A 
ATOM      5  C   UNL     1      48.410   9.109  14.311  0.00  0.00    +0.000 A 
ATOM      6  N   UNL     1      48.531   9.084  15.662  0.00  0.00    +0.000 NA
ENDROOT
BRANCH   1   7
ATOM      7  C   UNL     1      48.803   7.827  17.767  0.00  0.00    +0.000 C 
BRANCH   7   8
ATOM      8  N   UNL     1      47.598   7.294  18.403  0.00  0.00    +0.000 NA
ATOM      9  H   UNL     1      47.208   8.054  18.969  0.00  0.00    +0.000 HD
BRANCH   8  11
ATOM     10  C   UNL     1      49.046   6.350  20.211  0.00  0.00    +0.000 C 
ATOM     11  C   UNL     1      47.840   6.135  19.288  0.00  0.00    +0.000 C 
BRANCH  11  12
ATOM     12  C   UNL     1      48.059   4.853  18.476  0.00  0.00    +0.000 A 
ATOM     13  C   UNL     1      49.305   4.220  18.463  0.00  0.00    +0.000 A 
ATOM     14  C   UNL     1      49.492   3.097  17.663  0.00  0.00    +0.000 A 
ATOM     15  C   UNL     1      48.428   2.613  16.916  0.00  0.00    +0.000 A 
ATOM     16  C   UNL     1      47.213   3.270  17.011  0.00  0.00    +0.000 A 
ATOM     17  N   UNL     1      47.003   4.373  17.766  0.00  0.00    +0.000 NA
ENDBRANCH  11  12
ENDBRANCH   8  11
ENDBRANCH   7   8
ENDBRANCH   1   7
BRANCH   4  18
ATOM     18  C   UNL     1      48.312   8.085  12.009  0.00  0.00    +0.000 C 
BRANCH  18  19
ATOM     19  N   UNL     1      47.606   6.957  11.455  0.00  0.00    +0.000 N 
ATOM     20  C   UNL     1      46.237   6.941  11.375  0.00  0.00    +0.000 C 
ATOM     21  O   UNL     1      45.552   7.897  11.728  0.00  0.00    +0.000 OA
ATOM     22  H   UNL     1      48.115   6.082  11.382  0.00  0.00    +0.000 HD
BRANCH  20  23
ATOM     23  C   UNL     1      45.631   5.741  10.779  0.00  0.00    +0.000 A 
ATOM     24  C   UNL     1      45.792   5.490   9.425  0.00  0.00    +0.000 A 
ATOM     25  S   UNL     1      45.069   4.033   8.909  0.00  0.00    +0.000 S 
ATOM     26  C   UNL     1      44.475   3.714  10.470  0.00  0.00    +0.000 A 
ATOM     27  N   UNL     1      43.723   2.604  10.718  0.00  0.00    +0.000 NA
ATOM     28  C   UNL     1      43.316   2.497  11.941  0.00  0.00    +0.000 A 
ATOM     29  N   UNL     1      43.589   3.405  12.935  0.00  0.00    +0.000 N 
ATOM     30  C   UNL     1      44.364   4.520  12.736  0.00  0.00    +0.000 A 
ATOM     31  O   UNL     1      44.626   5.287  13.659  0.00  0.00    +0.000 OA
ATOM     32  C   UNL     1      44.838   4.692  11.375  0.00  0.00    +0.000 A 
ATOM     33  H   UNL     1      43.249   3.256  13.872  0.00  0.00    +0.000 HD
ENDBRANCH  20  23
ENDBRANCH  18  19
ENDBRANCH   4  18
TORSDOF 7
ENDMDL
MODEL 6
REMARK VINA RESULT:    -7.068      2.850      8.306
REMARK INTER + INTRA:         -11.236
REMARK INTER:                  -9.768
REMARK INTRA:                  -1.468
REMARK UNBOUND:                -1.276
REMARK  Name = 
REMARK  8 active torsions:
REMARK  status: ('A' for Active; 'I' for Inactive)
REMARK    1  A    between atoms: C_1  and  C_2
REMARK    2  A    between atoms: C_2  and  N_3
REMARK    3  A    between atoms: C_2  and  C_25
REMARK    4  A    between atoms: N_3  and  C_4
REMARK    5  A    between atoms: C_4  and  C_5
REMARK    6  A    between atoms: C_8  and  C_9
REMARK    7  A    between atoms: C_9  and  N_10
REMARK    8  A    between atoms: C_11  and  C_13
REMARK                            x       y       z     vdW  Elec       q    Type
REMARK                         _______ _______ _______ _____ _____    ______ ____
ROOT
ATOM      1  C   UNL     1      48.746   7.949  16.075  0.00  0.00    +0.000 A 
ATOM      2  C   UNL     1      48.271   9.099  15.447  0.00  0.00    +0.000 A 
ATOM      3  C   UNL     1      47.903   9.035  14.105  0.00  0.00    +0.000 A 
ATOM      4  C   UNL     1      48.038   7.836  13.404  0.00  0.00    +0.000 A 
ATOM      5  C   UNL     1      48.517   6.738  14.112  0.00  0.00    +0.000 A 
ATOM      6  N   UNL     1      48.869   6.765  15.422  0.00  0.00    +0.000 NA
ENDROOT
BRANCH   1   7
ATOM      7  C   UNL     1      49.132   7.991  17.546  0.00  0.00    +0.000 C 
BRANCH   7   8
ATOM      8  N   UNL     1      48.100   7.385  18.388  0.00  0.00    +0.000 NA
ATOM      9  H   UNL     1      47.797   8.112  19.043  0.00  0.00    +0.000 HD
BRANCH   8  11
ATOM     10  C   UNL     1      50.004   6.384  19.664  0.00  0.00    +0.000 C 
ATOM     11  C   UNL     1      48.561   6.219  19.170  0.00  0.00    +0.000 C 
BRANCH  11  12
ATOM     12  C   UNL     1      48.462   4.927  18.352  0.00  0.00    +0.000 A 
ATOM     13  C   UNL     1      49.569   4.087  18.204  0.00  0.00    +0.000 A 
ATOM     14  C   UNL     1      49.467   2.958  17.399  0.00  0.00    +0.000 A 
ATOM     15  C   UNL     1      48.258   2.673  16.782  0.00  0.00    +0.000 A 
ATOM     16  C   UNL     1      47.194   3.529  17.006  0.00  0.00    +0.000 A 
ATOM     17  N   UNL     1      47.266   4.645  17.770  0.00  0.00    +0.000 NA
ENDBRANCH  11  12
ENDBRANCH   8  11
ENDBRANCH   7   8
ENDBRANCH   1   7
BRANCH   4  18
ATOM     18  C   UNL     1      47.635   7.723  11.965  0.00  0.00    +0.000 C 
BRANCH  18  19
ATOM     19  N   UNL     1      46.926   6.492  11.719  0.00  0.00    +0.000 N 
ATOM     20  C   UNL     1      45.561   6.420  11.829  0.00  0.00    +0.000 C 
ATOM     21  O   UNL     1      44.877   7.403  12.098  0.00  0.00    +0.000 OA
ATOM     22  H   UNL     1      47.469   5.634  11.733  0.00  0.00    +0.000 HD
BRANCH  20  23
ATOM     23  C   UNL     1      44.950   5.114  11.542  0.00  0.00    +0.000 A 
ATOM     24  C   UNL     1      44.236   4.456  12.532  0.00  0.00    +0.000 A 
ATOM     25  S   UNL     1      43.553   2.980  12.017  0.00  0.00    +0.000 S 
ATOM     26  C   UNL     1      44.232   3.147  10.467  0.00  0.00    +0.000 A 
ATOM     27  N   UNL     1      44.052   2.185   9.517  0.00  0.00    +0.000 NA
ATOM     28  C   UNL     1      44.642   2.427   8.393  0.00  0.00    +0.000 A 
ATOM     29  N   UNL     1      45.401   3.542   8.136  0.00  0.00    +0.000 N 
ATOM     30  C   UNL     1      45.586   4.547   9.052  0.00  0.00    +0.000 A 
ATOM     31  O   UNL     1      46.234   5.553   8.773  0.00  0.00    +0.000 OA
ATOM     32  C   UNL     1      44.951   4.319  10.337  0.00  0.00    +0.000 A 
ATOM     33  H   UNL     1      45.827   3.675   7.232  0.00  0.00    +0.000 HD
ENDBRANCH  20  23
ENDBRANCH  18  19
ENDBRANCH   4  18
TORSDOF 7
ENDMDL
MODEL 7
REMARK VINA RESULT:    -7.012      4.802      9.623
REMARK INTER + INTRA:         -11.157
REMARK INTER:                 -10.351
REMARK INTRA:                  -0.806
REMARK UNBOUND:                -1.276
REMARK  Name = 
REMARK  8 active torsions:
REMARK  status: ('A' for Active; 'I' for Inactive)
REMARK    1  A    between atoms: C_1  and  C_2
REMARK    2  A    between atoms: C_2  and  N_3
REMARK    3  A    between atoms: C_2  and  C_25
REMARK    4  A    between atoms: N_3  and  C_4
REMARK    5  A    between atoms: C_4  and  C_5
REMARK    6  A    between atoms: C_8  and  C_9
REMARK    7  A    between atoms: C_9  and  N_10
REMARK    8  A    between atoms: C_11  and  C_13
REMARK                            x       y       z     vdW  Elec       q    Type
REMARK                         _______ _______ _______ _____ _____    ______ ____
ROOT
ATOM      1  C   UNL     1      51.270   2.679  17.540  0.00  0.00    +0.000 A 
ATOM      2  C   UNL     1      50.716   3.859  18.034  0.00  0.00    +0.000 A 
ATOM      3  C   UNL     1      49.365   4.118  17.813  0.00  0.00    +0.000 A 
ATOM      4  C   UNL     1      48.595   3.212  17.083  0.00  0.00    +0.000 A 
ATOM      5  C   UNL     1      49.230   2.060  16.631  0.00  0.00    +0.000 A 
ATOM      6  N   UNL     1      50.538   1.771  16.843  0.00  0.00    +0.000 NA
ENDROOT
BRANCH   1   7
ATOM      7  C   UNL     1      52.738   2.366  17.788  0.00  0.00    +0.000 C 
BRANCH   7   8
ATOM      8  N   UNL     1      52.905   1.064  18.435  0.00  0.00    +0.000 NA
ATOM      9  H   UNL     1      52.707   1.207  19.430  0.00  0.00    +0.000 HD
BRANCH   8  11
ATOM     10  C   UNL     1      54.934   0.875  16.984  0.00  0.00    +0.000 C 
ATOM     11  C   UNL     1      54.263   0.494  18.310  0.00  0.00    +0.000 C 
BRANCH  11  12
ATOM     12  C   UNL     1      54.237  -1.034  18.431  0.00  0.00    +0.000 A 
ATOM     13  C   UNL     1      54.978  -1.833  17.557  0.00  0.00    +0.000 A 
ATOM     14  C   UNL     1      54.880  -3.218  17.648  0.00  0.00    +0.000 A 
ATOM     15  C   UNL     1      54.069  -3.776  18.625  0.00  0.00    +0.000 A 
ATOM     16  C   UNL     1      53.396  -2.921  19.481  0.00  0.00    +0.000 A 
ATOM     17  N   UNL     1      53.458  -1.571  19.407  0.00  0.00    +0.000 NA
ENDBRANCH  11  12
ENDBRANCH   8  11
ENDBRANCH   7   8
ENDBRANCH   1   7
BRANCH   4  18
ATOM     18  C   UNL     1      47.134   3.446  16.842  0.00  0.00    +0.000 C 
BRANCH  18  19
ATOM     19  N   UNL     1      46.929   4.484  15.864  0.00  0.00    +0.000 N 
ATOM     20  C   UNL     1      46.992   4.222  14.519  0.00  0.00    +0.000 C 
ATOM     21  O   UNL     1      47.181   3.089  14.085  0.00  0.00    +0.000 OA
ATOM     22  H   UNL     1      47.010   5.445  16.184  0.00  0.00    +0.000 HD
BRANCH  20  23
ATOM     23  C   UNL     1      46.753   5.359  13.619  0.00  0.00    +0.000 A 
ATOM     24  C   UNL     1      47.784   6.243  13.341  0.00  0.00    +0.000 A 
ATOM     25  S   UNL     1      47.351   7.475  12.241  0.00  0.00    +0.000 S 
ATOM     26  C   UNL     1      45.756   6.895  12.140  0.00  0.00    +0.000 A 
ATOM     27  N   UNL     1      44.829   7.530  11.367  0.00  0.00    +0.000 NA
ATOM     28  C   UNL     1      43.651   6.998  11.401  0.00  0.00    +0.000 A 
ATOM     29  N   UNL     1      43.316   5.891  12.142  0.00  0.00    +0.000 N 
ATOM     30  C   UNL     1      44.223   5.206  12.911  0.00  0.00    +0.000 A 
ATOM     31  O   UNL     1      43.900   4.192  13.525  0.00  0.00    +0.000 OA
ATOM     32  C   UNL     1      45.561   5.768  12.915  0.00  0.00    +0.000 A 
ATOM     33  H   UNL     1      42.380   5.521  12.115  0.00  0.00    +0.000 HD
ENDBRANCH  20  23
ENDBRANCH  18  19
ENDBRANCH   4  18
TORSDOF 7
ENDMDL
MODEL 8
REMARK VINA RESULT:    -6.495      3.108      5.012
REMARK INTER + INTRA:         -10.428
REMARK INTER:                  -9.298
REMARK INTRA:                  -1.130
REMARK UNBOUND:                -1.276
REMARK  Name = 
REMARK  8 active torsions:
REMARK  status: ('A' for Active; 'I' for Inactive)
REMARK    1  A    between atoms: C_1  and  C_2
REMARK    2  A    between atoms: C_2  and  N_3
REMARK    3  A    between atoms: C_2  and  C_25
REMARK    4  A    between atoms: N_3  and  C_4
REMARK    5  A    between atoms: C_4  and  C_5
REMARK    6  A    between atoms: C_8  and  C_9
REMARK    7  A    between atoms: C_9  and  N_10
REMARK    8  A    between atoms: C_11  and  C_13
REMARK                            x       y       z     vdW  Elec       q    Type
REMARK                         _______ _______ _______ _____ _____    ______ ____
ROOT
ATOM      1  C   UNL     1      47.113   4.702  14.073  0.00  0.00    +0.000 A 
ATOM      2  C   UNL     1      47.429   5.550  15.132  0.00  0.00    +0.000 A 
ATOM      3  C   UNL     1      47.873   4.999  16.332  0.00  0.00    +0.000 A 
ATOM      4  C   UNL     1      47.970   3.614  16.466  0.00  0.00    +0.000 A 
ATOM      5  C   UNL     1      47.637   2.844  15.356  0.00  0.00    +0.000 A 
ATOM      6  N   UNL     1      47.217   3.351  14.170  0.00  0.00    +0.000 NA
ENDROOT
BRANCH   1   7
ATOM      7  C   UNL     1      46.647   5.283  12.746  0.00  0.00    +0.000 C 
BRANCH   7   8
ATOM      8  N   UNL     1      45.187   5.328  12.665  0.00  0.00    +0.000 NA
ATOM      9  H   UNL     1      44.856   4.379  12.863  0.00  0.00    +0.000 HD
BRANCH   8  11
ATOM     10  C   UNL     1      43.164   6.051  11.384  0.00  0.00    +0.000 C 
ATOM     11  C   UNL     1      44.664   5.735  11.344  0.00  0.00    +0.000 C 
BRANCH  11  12
ATOM     12  C   UNL     1      44.914   4.650  10.290  0.00  0.00    +0.000 A 
ATOM     13  C   UNL     1      45.618   4.941   9.118  0.00  0.00    +0.000 A 
ATOM     14  C   UNL     1      45.770   3.954   8.150  0.00  0.00    +0.000 A 
ATOM     15  C   UNL     1      45.242   2.692   8.381  0.00  0.00    +0.000 A 
ATOM     16  C   UNL     1      44.592   2.468   9.582  0.00  0.00    +0.000 A 
ATOM     17  N   UNL     1      44.413   3.410  10.536  0.00  0.00    +0.000 NA
ENDBRANCH  11  12
ENDBRANCH   8  11
ENDBRANCH   7   8
ENDBRANCH   1   7
BRANCH   4  18
ATOM     18  C   UNL     1      48.463   2.984  17.735  0.00  0.00    +0.000 C 
BRANCH  18  19
ATOM     19  N   UNL     1      49.845   3.312  17.975  0.00  0.00    +0.000 N 
ATOM     20  C   UNL     1      50.861   2.530  17.487  0.00  0.00    +0.000 C 
ATOM     21  O   UNL     1      50.644   1.543  16.790  0.00  0.00    +0.000 OA
ATOM     22  H   UNL     1      50.042   3.964  18.728  0.00  0.00    +0.000 HD
BRANCH  20  23
ATOM     23  C   UNL     1      52.230   2.973  17.787  0.00  0.00    +0.000 A 
ATOM     24  C   UNL     1      53.133   2.084  18.349  0.00  0.00    +0.000 A 
ATOM     25  S   UNL     1      54.687   2.746  18.586  0.00  0.00    +0.000 S 
ATOM     26  C   UNL     1      54.190   4.259  17.990  0.00  0.00    +0.000 A 
ATOM     27  N   UNL     1      55.057   5.312  17.946  0.00  0.00    +0.000 NA
ATOM     28  C   UNL     1      54.541   6.408  17.494  0.00  0.00    +0.000 A 
ATOM     29  N   UNL     1      53.237   6.547  17.087  0.00  0.00    +0.000 N 
ATOM     30  C   UNL     1      52.340   5.508  17.089  0.00  0.00    +0.000 A 
ATOM     31  O   UNL     1      51.193   5.656  16.675  0.00  0.00    +0.000 OA
ATOM     32  C   UNL     1      52.866   4.255  17.597  0.00  0.00    +0.000 A 
ATOM     33  H   UNL     1      52.902   7.429  16.735  0.00  0.00    +0.000 HD
ENDBRANCH  20  23
ENDBRANCH  18  19
ENDBRANCH   4  18
TORSDOF 7
ENDMDL
MODEL 9
REMARK VINA RESULT:    -6.386      2.817      4.008
REMARK INTER + INTRA:         -10.275
REMARK INTER:                  -9.257
REMARK INTRA:                  -1.018
REMARK UNBOUND:                -1.276
REMARK  Name = 
REMARK  8 active torsions:
REMARK  status: ('A' for Active; 'I' for Inactive)
REMARK    1  A    between atoms: C_1  and  C_2
REMARK    2  A    between atoms: C_2  and  N_3
REMARK    3  A    between atoms: C_2  and  C_25
REMARK    4  A    between atoms: N_3  and  C_4
REMARK    5  A    between atoms: C_4  and  C_5
REMARK    6  A    between atoms: C_8  and  C_9
REMARK    7  A    between atoms: C_9  and  N_10
REMARK    8  A    between atoms: C_11  and  C_13
REMARK                            x       y       z     vdW  Elec       q    Type
REMARK                         _______ _______ _______ _____ _____    ______ ____
ROOT
ATOM      1  C   UNL     1      46.901   4.696  13.868  0.00  0.00    +0.000 A 
ATOM      2  C   UNL     1      47.135   4.353  15.198  0.00  0.00    +0.000 A 
ATOM      3  C   UNL     1      47.878   5.217  16.000  0.00  0.00    +0.000 A 
ATOM      4  C   UNL     1      48.396   6.394  15.458  0.00  0.00    +0.000 A 
ATOM      5  C   UNL     1      48.110   6.657  14.123  0.00  0.00    +0.000 A 
ATOM      6  N   UNL     1      47.377   5.844  13.321  0.00  0.00    +0.000 NA
ENDROOT
BRANCH   1   7
ATOM      7  C   UNL     1      46.073   3.778  12.981  0.00  0.00    +0.000 C 
BRANCH   7   8
ATOM      8  N   UNL     1      44.655   4.134  13.018  0.00  0.00    +0.000 NA
ATOM      9  H   UNL     1      44.134   3.251  13.022  0.00  0.00    +0.000 HD
BRANCH   8  11
ATOM     10  C   UNL     1      42.677   5.123  11.850  0.00  0.00    +0.000 C 
ATOM     11  C   UNL     1      44.199   4.935  11.862  0.00  0.00    +0.000 C 
BRANCH  11  12
ATOM     12  C   UNL     1      44.630   4.294  10.538  0.00  0.00    +0.000 A 
ATOM     13  C   UNL     1      45.403   5.007   9.618  0.00  0.00    +0.000 A 
ATOM     14  C   UNL     1      45.721   4.424   8.396  0.00  0.00    +0.000 A 
ATOM     15  C   UNL     1      45.287   3.134   8.128  0.00  0.00    +0.000 A 
ATOM     16  C   UNL     1      44.558   2.476   9.104  0.00  0.00    +0.000 A 
ATOM     17  N   UNL     1      44.219   3.021  10.295  0.00  0.00    +0.000 NA
ENDBRANCH  11  12
ENDBRANCH   8  11
ENDBRANCH   7   8
ENDBRANCH   1   7
BRANCH   4  18
ATOM     18  C   UNL     1      49.184   7.358  16.294  0.00  0.00    +0.000 C 
BRANCH  18  19
ATOM     19  N   UNL     1      50.312   6.708  16.912  0.00  0.00    +0.000 N 
ATOM     20  C   UNL     1      51.557   6.737  16.336  0.00  0.00    +0.000 C 
ATOM     21  O   UNL     1      51.779   7.351  15.297  0.00  0.00    +0.000 OA
ATOM     22  H   UNL     1      50.113   6.011  17.623  0.00  0.00    +0.000 HD
BRANCH  20  23
ATOM     23  C   UNL     1      52.631   6.050  17.067  0.00  0.00    +0.000 A 
ATOM     24  C   UNL     1      53.830   6.705  17.305  0.00  0.00    +0.000 A 
ATOM     25  S   UNL     1      54.946   5.782  18.207  0.00  0.00    +0.000 S 
ATOM     26  C   UNL     1      53.882   4.458  18.267  0.00  0.00    +0.000 A 
ATOM     27  N   UNL     1      54.245   3.298  18.886  0.00  0.00    +0.000 NA
ATOM     28  C   UNL     1      53.351   2.365  18.837  0.00  0.00    +0.000 A 
ATOM     29  N   UNL     1      52.130   2.486  18.219  0.00  0.00    +0.000 N 
ATOM     30  C   UNL     1      51.715   3.643  17.609  0.00  0.00    +0.000 A 
ATOM     31  O   UNL     1      50.598   3.732  17.105  0.00  0.00    +0.000 OA
ATOM     32  C   UNL     1      52.686   4.720  17.628  0.00  0.00    +0.000 A 
ATOM     33  H   UNL     1      51.475   1.721  18.226  0.00  0.00    +0.000 HD
ENDBRANCH  20  23
ENDBRANCH  18  19
ENDBRANCH   4  18
TORSDOF 7
ENDMDL
