MODEL 1
REMARK VINA RESULT:    -8.661      0.000      0.000
REMARK INTER + INTRA:         -11.238
REMARK INTER:                 -10.686
REMARK INTRA:                  -0.552
REMARK UNBOUND:                -0.552
REMARK  Name = 
REMARK  4 active torsions:
REMARK  status: ('A' for Active; 'I' for Inactive)
REMARK    1  A    between atoms: C_2  and  C_4
REMARK    2  A    between atoms: N_8  and  C_9
REMARK    3  A    between atoms: C_9  and  C_10
REMARK    4  A    between atoms: C_14  and  N_15
REMARK                            x       y       z     vdW  Elec       q    Type
REMARK                         _______ _______ _______ _____ _____    ______ ____
ROOT
ATOM      1  C   UNL     1      46.475   2.698   7.544  0.00  0.00    +0.000 A 
ATOM      2  C   UNL     1      46.108   4.025   7.730  0.00  0.00    +0.000 A 
ATOM      3  C   UNL     1      45.194   4.342   8.736  0.00  0.00    +0.000 A 
ATOM      4  C   UNL     1      44.656   3.335   9.528  0.00  0.00    +0.000 A 
ATOM      5  N   UNL     1      43.828   3.560  10.590  0.00  0.00    +0.000 N 
ATOM      6  N   UNL     1      44.977   2.040   9.325  0.00  0.00    +0.000 NA
ATOM      7  C   UNL     1      45.867   1.745   8.342  0.00  0.00    +0.000 A 
ATOM      8  H   UNL     1      43.445   2.705  10.972  0.00  0.00    +0.000 HD
ENDROOT
BRANCH   1  10
ATOM      9  N   UNL     1      47.465   2.929   5.339  0.00  0.00    +0.000 N 
ATOM     10  C   UNL     1      47.476   2.277   6.544  0.00  0.00    +0.000 C 
ATOM     11  O   UNL     1      48.308   1.415   6.789  0.00  0.00    +0.000 OA
ATOM     12  H   UNL     1      48.225   2.711   4.710  0.00  0.00    +0.000 HD
ATOM     13  H   UNL     1      46.977   3.802   5.200  0.00  0.00    +0.000 HD
ENDBRANCH   1  10
BRANCH   5  14
ATOM     14  C   UNL     1      43.247   4.820  10.982  0.00  0.00    +0.000 C 
BRANCH  14  15
ATOM     15  C   UNL     1      44.259   5.746  11.603  0.00  0.00    +0.000 A 
ATOM     16  C   UNL     1      44.208   7.122  11.356  0.00  0.00    +0.000 A 
ATOM     17  C   UNL     1      45.125   7.970  11.965  0.00  0.00    +0.000 A 
ATOM     18  C   UNL     1      46.097   7.451  12.824  0.00  0.00    +0.000 A 
ATOM     19  C   UNL     1      46.188   6.080  13.102  0.00  0.00    +0.000 A 
ATOM     20  C   UNL     1      45.251   5.248  12.470  0.00  0.00    +0.000 A 
BRANCH  19  21
ATOM     21  N   UNL     1      47.120   5.595  13.995  0.00  0.00    +0.000 N 
ATOM     22  C   UNL     1      47.110   4.217  14.502  0.00  0.00    +0.000 C 
ATOM     23  C   UNL     1      47.401   4.240  16.015  0.00  0.00    +0.000 C 
ATOM     24  O   UNL     1      48.626   4.930  16.320  0.00  0.00    +0.000 OA
ATOM     25  C   UNL     1      48.567   6.288  15.844  0.00  0.00    +0.000 C 
ATOM     26  C   UNL     1      48.350   6.334  14.324  0.00  0.00    +0.000 C 
ENDBRANCH  19  21
ENDBRANCH  14  15
ENDBRANCH   5  14
TORSDOF 4
ENDMDL
MODEL 2
REMARK VINA RESULT:    -7.640      2.118      3.133
REMARK INTER + INTRA:          -9.978
REMARK INTER:                  -9.369
REMARK INTRA:                  -0.608
REMARK UNBOUND:                -0.552
REMARK  Name = 
REMARK  4 active torsions:
REMARK  status: ('A' for Active; 'I' for Inactive)
REMARK    1  A    between atoms: C_2  and  C_4
REMARK    2  A    between atoms: N_8  and  C_9
REMARK    3  A    between atoms: C_9  and  C_10
REMARK    4  A    between atoms: C_14  and  N_15
REMARK                            x       y       z     vdW  Elec       q    Type
REMARK                         _______ _______ _______ _____ _____    ______ ____
ROOT
ATOM      1  C   UNL     1      46.429   2.255   7.486  0.00  0.00    +0.000 A 
ATOM      2  C   UNL     1      45.982   1.898   8.752  0.00  0.00    +0.000 A 
ATOM      3  C   UNL     1      45.174   2.785   9.463  0.00  0.00    +0.000 A 
ATOM      4  C   UNL     1      44.835   4.013   8.907  0.00  0.00    +0.000 A 
ATOM      5  N   UNL     1      43.979   4.903   9.489  0.00  0.00    +0.000 N 
ATOM      6  N   UNL     1      45.300   4.384   7.696  0.00  0.00    +0.000 NA
ATOM      7  C   UNL     1      46.087   3.510   7.014  0.00  0.00    +0.000 A 
ATOM      8  H   UNL     1      43.945   5.787   8.997  0.00  0.00    +0.000 HD
ENDROOT
BRANCH   1  10
ATOM      9  N   UNL     1      48.294   1.918   5.968  0.00  0.00    +0.000 N 
ATOM     10  C   UNL     1      47.239   1.357   6.640  0.00  0.00    +0.000 C 
ATOM     11  O   UNL     1      47.011   0.158   6.570  0.00  0.00    +0.000 OA
ATOM     12  H   UNL     1      48.906   1.274   5.486  0.00  0.00    +0.000 HD
ATOM     13  H   UNL     1      48.662   2.829   6.201  0.00  0.00    +0.000 HD
ENDBRANCH   1  10
BRANCH   5  14
ATOM     14  C   UNL     1      43.409   4.818  10.810  0.00  0.00    +0.000 C 
BRANCH  14  15
ATOM     15  C   UNL     1      44.408   5.155  11.885  0.00  0.00    +0.000 A 
ATOM     16  C   UNL     1      44.909   4.157  12.727  0.00  0.00    +0.000 A 
ATOM     17  C   UNL     1      45.859   4.474  13.691  0.00  0.00    +0.000 A 
ATOM     18  C   UNL     1      46.314   5.789  13.820  0.00  0.00    +0.000 A 
ATOM     19  C   UNL     1      45.842   6.823  13.000  0.00  0.00    +0.000 A 
ATOM     20  C   UNL     1      44.881   6.473  12.039  0.00  0.00    +0.000 A 
BRANCH  19  21
ATOM     21  N   UNL     1      46.344   8.103  13.108  0.00  0.00    +0.000 N 
ATOM     22  C   UNL     1      45.610   9.296  12.668  0.00  0.00    +0.000 C 
ATOM     23  C   UNL     1      46.582  10.235  11.929  0.00  0.00    +0.000 C 
ATOM     24  O   UNL     1      47.733  10.560  12.728  0.00  0.00    +0.000 OA
ATOM     25  C   UNL     1      48.442   9.362  13.094  0.00  0.00    +0.000 C 
ATOM     26  C   UNL     1      47.546   8.410  13.900  0.00  0.00    +0.000 C 
ENDBRANCH  19  21
ENDBRANCH  14  15
ENDBRANCH   5  14
TORSDOF 4
ENDMDL
MODEL 3
REMARK VINA RESULT:    -7.303      2.377      8.276
REMARK INTER + INTRA:          -9.562
REMARK INTER:                  -9.175
REMARK INTRA:                  -0.387
REMARK UNBOUND:                -0.552
REMARK  Name = 
REMARK  4 active torsions:
REMARK  status: ('A' for Active; 'I' for Inactive)
REMARK    1  A    between atoms: C_2  and  C_4
REMARK    2  A    between atoms: N_8  and  C_9
REMARK    3  A    between atoms: C_9  and  C_10
REMARK    4  A    between atoms: C_14  and  N_15
REMARK                            x       y       z     vdW  Elec       q    Type
REMARK                         _______ _______ _______ _____ _____    ______ ____
ROOT
ATOM      1  C   UNL     1      48.592   4.440  18.311  0.00  0.00    +0.000 A 
ATOM      2  C   UNL     1      48.757   5.481  17.405  0.00  0.00    +0.000 A 
ATOM      3  C   UNL     1      48.037   5.463  16.211  0.00  0.00    +0.000 A 
ATOM      4  C   UNL     1      47.175   4.408  15.935  0.00  0.00    +0.000 A 
ATOM      5  N   UNL     1      46.364   4.352  14.838  0.00  0.00    +0.000 N 
ATOM      6  N   UNL     1      47.041   3.374  16.791  0.00  0.00    +0.000 NA
ATOM      7  C   UNL     1      47.750   3.402  17.950  0.00  0.00    +0.000 A 
ATOM      8  H   UNL     1      45.897   3.459  14.746  0.00  0.00    +0.000 HD
ENDROOT
BRANCH   1  10
ATOM      9  N   UNL     1      48.538   3.951  20.689  0.00  0.00    +0.000 N 
ATOM     10  C   UNL     1      49.269   4.404  19.621  0.00  0.00    +0.000 C 
ATOM     11  O   UNL     1      50.443   4.722  19.749  0.00  0.00    +0.000 OA
ATOM     12  H   UNL     1      49.046   3.824  21.553  0.00  0.00    +0.000 HD
ATOM     13  H   UNL     1      47.671   3.446  20.576  0.00  0.00    +0.000 HD
ENDBRANCH   1  10
BRANCH   5  14
ATOM     14  C   UNL     1      46.360   5.260  13.719  0.00  0.00    +0.000 C 
BRANCH  14  15
ATOM     15  C   UNL     1      45.273   4.939  12.727  0.00  0.00    +0.000 A 
ATOM     16  C   UNL     1      43.952   5.329  12.971  0.00  0.00    +0.000 A 
ATOM     17  C   UNL     1      42.965   5.060  12.031  0.00  0.00    +0.000 A 
ATOM     18  C   UNL     1      43.290   4.400  10.842  0.00  0.00    +0.000 A 
ATOM     19  C   UNL     1      44.599   3.990  10.554  0.00  0.00    +0.000 A 
ATOM     20  C   UNL     1      45.574   4.272  11.523  0.00  0.00    +0.000 A 
BRANCH  19  21
ATOM     21  N   UNL     1      44.908   3.389   9.352  0.00  0.00    +0.000 N 
ATOM     22  C   UNL     1      44.826   1.939   9.132  0.00  0.00    +0.000 C 
ATOM     23  C   UNL     1      46.066   1.485   8.338  0.00  0.00    +0.000 C 
ATOM     24  O   UNL     1      46.223   2.220   7.111  0.00  0.00    +0.000 OA
ATOM     25  C   UNL     1      46.344   3.628   7.385  0.00  0.00    +0.000 C 
ATOM     26  C   UNL     1      45.102   4.162   8.115  0.00  0.00    +0.000 C 
ENDBRANCH  19  21
ENDBRANCH  14  15
ENDBRANCH   5  14
TORSDOF 4
ENDMDL
MODEL 4
REMARK VINA RESULT:    -7.063      2.607      7.018
REMARK INTER + INTRA:          -9.267
REMARK INTER:                  -8.640
REMARK INTRA:                  -0.626
REMARK UNBOUND:                -0.552
REMARK  Name = 
REMARK  4 active torsions:
REMARK  status: ('A' for Active; 'I' for Inactive)
REMARK    1  A    between atoms: C_2  and  C_4
REMARK    2  A    between atoms: N_8  and  C_9
REMARK    3  A    between atoms: C_9  and  C_10
REMARK    4  A    between atoms: C_14  and  N_15
REMARK                            x       y       z     vdW  Elec       q    Type
REMARK                         _______ _______ _______ _____ _____    ______ ____
ROOT
ATOM      1  C   UNL     1      50.037   8.075  12.815  0.00  0.00    +0.000 A 
ATOM      2  C   UNL     1      49.108   8.262  11.799  0.00  0.00    +0.000 A 
ATOM      3  C   UNL     1      47.807   7.788  11.971  0.00  0.00    +0.000 A 
ATOM      4  C   UNL     1      47.459   7.129  13.145  0.00  0.00    +0.000 A 
ATOM      5  N   UNL     1      46.191   6.714  13.438  0.00  0.00    +0.000 N 
ATOM      6  N   UNL     1      48.366   6.908  14.118  0.00  0.00    +0.000 NA
ATOM      7  C   UNL     1      49.630   7.374  13.937  0.00  0.00    +0.000 A 
ATOM      8  H   UNL     1      46.153   6.153  14.279  0.00  0.00    +0.000 HD
ENDROOT
BRANCH   1  10
ATOM      9  N   UNL     1      52.333   8.047  13.604  0.00  0.00    +0.000 N 
ATOM     10  C   UNL     1      51.417   8.592  12.743  0.00  0.00    +0.000 C 
ATOM     11  O   UNL     1      51.746   9.439  11.924  0.00  0.00    +0.000 OA
ATOM     12  H   UNL     1      53.294   8.327  13.466  0.00  0.00    +0.000 HD
ATOM     13  H   UNL     1      52.163   7.184  14.101  0.00  0.00    +0.000 HD
ENDBRANCH   1  10
BRANCH   5  14
ATOM     14  C   UNL     1      45.050   6.732  12.559  0.00  0.00    +0.000 C 
BRANCH  14  15
ATOM     15  C   UNL     1      44.660   5.352  12.100  0.00  0.00    +0.000 A 
ATOM     16  C   UNL     1      43.823   4.553  12.885  0.00  0.00    +0.000 A 
ATOM     17  C   UNL     1      43.440   3.295  12.433  0.00  0.00    +0.000 A 
ATOM     18  C   UNL     1      43.891   2.829  11.195  0.00  0.00    +0.000 A 
ATOM     19  C   UNL     1      44.731   3.593  10.374  0.00  0.00    +0.000 A 
ATOM     20  C   UNL     1      45.103   4.856  10.858  0.00  0.00    +0.000 A 
BRANCH  19  21
ATOM     21  N   UNL     1      45.120   3.135   9.132  0.00  0.00    +0.000 N 
ATOM     22  C   UNL     1      45.207   1.711   8.789  0.00  0.00    +0.000 C 
ATOM     23  C   UNL     1      46.500   1.468   7.987  0.00  0.00    +0.000 C 
ATOM     24  O   UNL     1      46.587   2.319   6.831  0.00  0.00    +0.000 OA
ATOM     25  C   UNL     1      46.544   3.703   7.224  0.00  0.00    +0.000 C 
ATOM     26  C   UNL     1      45.241   4.029   7.969  0.00  0.00    +0.000 C 
ENDBRANCH  19  21
ENDBRANCH  14  15
ENDBRANCH   5  14
TORSDOF 4
ENDMDL
MODEL 5
REMARK VINA RESULT:    -6.755      4.095      8.385
REMARK INTER + INTRA:          -8.886
REMARK INTER:                  -8.275
REMARK INTRA:                  -0.611
REMARK UNBOUND:                -0.552
REMARK  Name = 
REMARK  4 active torsions:
REMARK  status: ('A' for Active; 'I' for Inactive)
REMARK    1  A    between atoms: C_2  and  C_4
REMARK    2  A    between atoms: N_8  and  C_9
REMARK    3  A    between atoms: C_9  and  C_10
REMARK    4  A    between atoms: C_14  and  N_15
REMARK                            x       y       z     vdW  Elec       q    Type
REMARK                         _______ _______ _______ _____ _____    ______ ____
ROOT
ATOM      1  C   UNL     1      52.181   2.409  17.882  0.00  0.00    +0.000 A 
ATOM      2  C   UNL     1      51.595   3.647  18.118  0.00  0.00    +0.000 A 
ATOM      3  C   UNL     1      50.286   3.872  17.690  0.00  0.00    +0.000 A 
ATOM      4  C   UNL     1      49.590   2.867  17.028  0.00  0.00    +0.000 A 
ATOM      5  N   UNL     1      48.280   2.965  16.655  0.00  0.00    +0.000 N 
ATOM      6  N   UNL     1      50.168   1.678  16.759  0.00  0.00    +0.000 NA
ATOM      7  C   UNL     1      51.443   1.472  17.180  0.00  0.00    +0.000 A 
ATOM      8  H   UNL     1      47.980   2.187  16.084  0.00  0.00    +0.000 HD
ENDROOT
BRANCH   1  10
ATOM      9  N   UNL     1      54.449   1.691  17.394  0.00  0.00    +0.000 N 
ATOM     10  C   UNL     1      53.538   2.064  18.348  0.00  0.00    +0.000 C 
ATOM     11  O   UNL     1      53.854   2.145  19.527  0.00  0.00    +0.000 OA
ATOM     12  H   UNL     1      55.400   1.569  17.713  0.00  0.00    +0.000 HD
ATOM     13  H   UNL     1      54.302   1.861  16.410  0.00  0.00    +0.000 HD
ENDBRANCH   1  10
BRANCH   5  14
ATOM     14  C   UNL     1      47.446   4.139  16.729  0.00  0.00    +0.000 C 
BRANCH  14  15
ATOM     15  C   UNL     1      47.355   4.858  15.409  0.00  0.00    +0.000 A 
ATOM     16  C   UNL     1      48.225   5.912  15.113  0.00  0.00    +0.000 A 
ATOM     17  C   UNL     1      48.156   6.543  13.877  0.00  0.00    +0.000 A 
ATOM     18  C   UNL     1      47.217   6.126  12.929  0.00  0.00    +0.000 A 
ATOM     19  C   UNL     1      46.324   5.075  13.180  0.00  0.00    +0.000 A 
ATOM     20  C   UNL     1      46.416   4.460  14.438  0.00  0.00    +0.000 A 
BRANCH  19  21
ATOM     21  N   UNL     1      45.442   4.644  12.211  0.00  0.00    +0.000 N 
ATOM     22  C   UNL     1      44.933   5.512  11.142  0.00  0.00    +0.000 C 
ATOM     23  C   UNL     1      43.423   5.254  10.968  0.00  0.00    +0.000 C 
ATOM     24  O   UNL     1      43.134   3.865  10.734  0.00  0.00    +0.000 OA
ATOM     25  C   UNL     1      43.613   3.064  11.830  0.00  0.00    +0.000 C 
ATOM     26  C   UNL     1      45.130   3.219  12.012  0.00  0.00    +0.000 C 
ENDBRANCH  19  21
ENDBRANCH  14  15
ENDBRANCH   5  14
TORSDOF 4
ENDMDL
MODEL 6
REMARK VINA RESULT:    -6.429      3.069      4.608
REMARK INTER + INTRA:          -8.483
REMARK INTER:                  -7.807
REMARK INTRA:                  -0.676
REMARK UNBOUND:                -0.552
REMARK  Name = 
REMARK  4 active torsions:
REMARK  status: ('A' for Active; 'I' for Inactive)
REMARK    1  A    between atoms: C_2  and  C_4
REMARK    2  A    between atoms: N_8  and  C_9
REMARK    3  A    between atoms: C_9  and  C_10
REMARK    4  A    between atoms: C_14  and  N_15
REMARK                            x       y       z     vdW  Elec       q    Type
REMARK                         _______ _______ _______ _____ _____    ______ ____
ROOT
ATOM      1  C   UNL     1      44.187   4.098  11.502  0.00  0.00    +0.000 A 
ATOM      2  C   UNL     1      45.086   4.883  10.792  0.00  0.00    +0.000 A 
ATOM      3  C   UNL     1      45.461   6.124  11.308  0.00  0.00    +0.000 A 
ATOM      4  C   UNL     1      44.926   6.564  12.513  0.00  0.00    +0.000 A 
ATOM      5  N   UNL     1      45.302   7.719  13.137  0.00  0.00    +0.000 N 
ATOM      6  N   UNL     1      44.021   5.826  13.187  0.00  0.00    +0.000 NA
ATOM      7  C   UNL     1      43.664   4.619  12.673  0.00  0.00    +0.000 A 
ATOM      8  H   UNL     1      44.724   7.932  13.939  0.00  0.00    +0.000 HD
ENDROOT
BRANCH   1  10
ATOM      9  N   UNL     1      44.422   2.230   9.969  0.00  0.00    +0.000 N 
ATOM     10  C   UNL     1      43.779   2.750  11.062  0.00  0.00    +0.000 C 
ATOM     11  O   UNL     1      42.934   2.103  11.666  0.00  0.00    +0.000 OA
ATOM     12  H   UNL     1      44.214   1.265   9.749  0.00  0.00    +0.000 HD
ATOM     13  H   UNL     1      45.284   2.617   9.613  0.00  0.00    +0.000 HD
ENDBRANCH   1  10
BRANCH   5  14
ATOM     14  C   UNL     1      46.171   8.743  12.612  0.00  0.00    +0.000 C 
BRANCH  14  15
ATOM     15  C   UNL     1      47.623   8.458  12.894  0.00  0.00    +0.000 A 
ATOM     16  C   UNL     1      48.609   8.817  11.969  0.00  0.00    +0.000 A 
ATOM     17  C   UNL     1      49.949   8.582  12.257  0.00  0.00    +0.000 A 
ATOM     18  C   UNL     1      50.311   7.990  13.470  0.00  0.00    +0.000 A 
ATOM     19  C   UNL     1      49.359   7.613  14.427  0.00  0.00    +0.000 A 
ATOM     20  C   UNL     1      48.015   7.858  14.106  0.00  0.00    +0.000 A 
BRANCH  19  21
ATOM     21  N   UNL     1      49.742   7.079  15.640  0.00  0.00    +0.000 N 
ATOM     22  C   UNL     1      51.080   7.261  16.214  0.00  0.00    +0.000 C 
ATOM     23  C   UNL     1      51.559   5.918  16.800  0.00  0.00    +0.000 C 
ATOM     24  O   UNL     1      50.622   5.377  17.747  0.00  0.00    +0.000 OA
ATOM     25  C   UNL     1      49.340   5.175  17.124  0.00  0.00    +0.000 C 
ATOM     26  C   UNL     1      48.772   6.494  16.580  0.00  0.00    +0.000 C 
ENDBRANCH  19  21
ENDBRANCH  14  15
ENDBRANCH   5  14
TORSDOF 4
ENDMDL
MODEL 7
REMARK VINA RESULT:    -6.233      2.848      8.440
REMARK INTER + INTRA:          -8.243
REMARK INTER:                  -7.766
REMARK INTRA:                  -0.477
REMARK UNBOUND:                -0.552
REMARK  Name = 
REMARK  4 active torsions:
REMARK  status: ('A' for Active; 'I' for Inactive)
REMARK    1  A    between atoms: C_2  and  C_4
REMARK    2  A    between atoms: N_8  and  C_9
REMARK    3  A    between atoms: C_9  and  C_10
REMARK    4  A    between atoms: C_14  and  N_15
REMARK                            x       y       z     vdW  Elec       q    Type
REMARK                         _______ _______ _______ _____ _____    ______ ____
ROOT
ATOM      1  C   UNL     1      49.252   5.372  18.843  0.00  0.00    +0.000 A 
ATOM      2  C   UNL     1      49.018   6.706  18.534  0.00  0.00    +0.000 A 
ATOM      3  C   UNL     1      48.720   7.057  17.217  0.00  0.00    +0.000 A 
ATOM      4  C   UNL     1      48.672   6.078  16.232  0.00  0.00    +0.000 A 
ATOM      5  N   UNL     1      48.301   6.313  14.939  0.00  0.00    +0.000 N 
ATOM      6  N   UNL     1      48.940   4.786  16.517  0.00  0.00    +0.000 NA
ATOM      7  C   UNL     1      49.229   4.459  17.804  0.00  0.00    +0.000 A 
ATOM      8  H   UNL     1      48.439   5.508  14.343  0.00  0.00    +0.000 HD
ENDROOT
BRANCH   1  10
ATOM      9  N   UNL     1      48.648   3.982  20.740  0.00  0.00    +0.000 N 
ATOM     10  C   UNL     1      49.518   4.903  20.217  0.00  0.00    +0.000 C 
ATOM     11  O   UNL     1      50.492   5.284  20.850  0.00  0.00    +0.000 OA
ATOM     12  H   UNL     1      48.906   3.586  21.633  0.00  0.00    +0.000 HD
ATOM     13  H   UNL     1      48.000   3.463  20.166  0.00  0.00    +0.000 HD
ENDBRANCH   1  10
BRANCH   5  14
ATOM     14  C   UNL     1      48.053   7.597  14.331  0.00  0.00    +0.000 C 
BRANCH  14  15
ATOM     15  C   UNL     1      46.931   7.545  13.328  0.00  0.00    +0.000 A 
ATOM     16  C   UNL     1      46.245   8.710  12.970  0.00  0.00    +0.000 A 
ATOM     17  C   UNL     1      45.237   8.656  12.015  0.00  0.00    +0.000 A 
ATOM     18  C   UNL     1      44.907   7.439  11.413  0.00  0.00    +0.000 A 
ATOM     19  C   UNL     1      45.565   6.245  11.739  0.00  0.00    +0.000 A 
ATOM     20  C   UNL     1      46.576   6.331  12.709  0.00  0.00    +0.000 A 
BRANCH  19  21
ATOM     21  N   UNL     1      45.261   5.065  11.095  0.00  0.00    +0.000 N 
ATOM     22  C   UNL     1      45.460   4.858   9.655  0.00  0.00    +0.000 C 
ATOM     23  C   UNL     1      44.234   4.124   9.081  0.00  0.00    +0.000 C 
ATOM     24  O   UNL     1      43.961   2.897   9.781  0.00  0.00    +0.000 OA
ATOM     25  C   UNL     1      43.728   3.159  11.177  0.00  0.00    +0.000 C 
ATOM     26  C   UNL     1      44.947   3.828  11.829  0.00  0.00    +0.000 C 
ENDBRANCH  19  21
ENDBRANCH  14  15
ENDBRANCH   5  14
TORSDOF 4
ENDMDL
MODEL 8
REMARK VINA RESULT:    -6.089      2.104      7.842
REMARK INTER + INTRA:          -8.064
REMARK INTER:                  -7.648
REMARK INTRA:                  -0.416
REMARK UNBOUND:                -0.552
REMARK  Name = 
REMARK  4 active torsions:
REMARK  status: ('A' for Active; 'I' for Inactive)
REMARK    1  A    between atoms: C_2  and  C_4
REMARK    2  A    between atoms: N_8  and  C_9
REMARK    3  A    between atoms: C_9  and  C_10
REMARK    4  A    between atoms: C_14  and  N_15
REMARK                            x       y       z     vdW  Elec       q    Type
REMARK                         _______ _______ _______ _____ _____    ______ ____
ROOT
ATOM      1  C   UNL     1      50.214   7.080  15.994  0.00  0.00    +0.000 A 
ATOM      2  C   UNL     1      49.256   6.268  16.587  0.00  0.00    +0.000 A 
ATOM      3  C   UNL     1      48.210   5.771  15.808  0.00  0.00    +0.000 A 
ATOM      4  C   UNL     1      48.131   6.100  14.460  0.00  0.00    +0.000 A 
ATOM      5  N   UNL     1      47.198   5.589  13.604  0.00  0.00    +0.000 N 
ATOM      6  N   UNL     1      49.035   6.922  13.888  0.00  0.00    +0.000 NA
ATOM      7  C   UNL     1      50.048   7.399  14.657  0.00  0.00    +0.000 A 
ATOM      8  H   UNL     1      47.224   6.031  12.694  0.00  0.00    +0.000 HD
ENDROOT
BRANCH   1  10
ATOM      9  N   UNL     1      52.618   7.375  16.173  0.00  0.00    +0.000 N 
ATOM     10  C   UNL     1      51.384   7.603  16.725  0.00  0.00    +0.000 C 
ATOM     11  O   UNL     1      51.263   8.247  17.758  0.00  0.00    +0.000 OA
ATOM     12  H   UNL     1      53.397   7.836  16.622  0.00  0.00    +0.000 HD
ATOM     13  H   UNL     1      52.736   7.083  15.214  0.00  0.00    +0.000 HD
ENDBRANCH   1  10
BRANCH   5  14
ATOM     14  C   UNL     1      46.064   4.769  13.949  0.00  0.00    +0.000 C 
BRANCH  14  15
ATOM     15  C   UNL     1      45.067   4.671  12.825  0.00  0.00    +0.000 A 
ATOM     16  C   UNL     1      43.803   5.257  12.944  0.00  0.00    +0.000 A 
ATOM     17  C   UNL     1      42.905   5.192  11.885  0.00  0.00    +0.000 A 
ATOM     18  C   UNL     1      43.265   4.542  10.701  0.00  0.00    +0.000 A 
ATOM     19  C   UNL     1      44.520   3.940  10.535  0.00  0.00    +0.000 A 
ATOM     20  C   UNL     1      45.403   4.019  11.623  0.00  0.00    +0.000 A 
BRANCH  19  21
ATOM     21  N   UNL     1      44.874   3.351   9.339  0.00  0.00    +0.000 N 
ATOM     22  C   UNL     1      44.783   1.906   9.095  0.00  0.00    +0.000 C 
ATOM     23  C   UNL     1      46.051   1.445   8.350  0.00  0.00    +0.000 C 
ATOM     24  O   UNL     1      46.272   2.195   7.143  0.00  0.00    +0.000 OA
ATOM     25  C   UNL     1      46.399   3.598   7.441  0.00  0.00    +0.000 C 
ATOM     26  C   UNL     1      45.133   4.138   8.123  0.00  0.00    +0.000 C 
ENDBRANCH  19  21
ENDBRANCH  14  15
ENDBRANCH   5  14
TORSDOF 4
ENDMDL
MODEL 9
REMARK VINA RESULT:    -5.994      3.643      5.550
REMARK INTER + INTRA:          -7.947
REMARK INTER:                  -7.312
REMARK INTRA:                  -0.635
REMARK UNBOUND:                -0.552
REMARK  Name = 
REMARK  4 active torsions:
REMARK  status: ('A' for Active; 'I' for Inactive)
REMARK    1  A    between atoms: C_2  and  C_4
REMARK    2  A    between atoms: N_8  and  C_9
REMARK    3  A    between atoms: C_9  and  C_10
REMARK    4  A    between atoms: C_14  and  N_15
REMARK                            x       y       z     vdW  Elec       q    Type
REMARK                         _______ _______ _______ _____ _____    ______ ____
ROOT
ATOM      1  C   UNL     1      44.663   4.803  12.203  0.00  0.00    +0.000 A 
ATOM      2  C   UNL     1      45.989   4.624  12.576  0.00  0.00    +0.000 A 
ATOM      3  C   UNL     1      46.759   5.740  12.907  0.00  0.00    +0.000 A 
ATOM      4  C   UNL     1      46.199   7.011  12.850  0.00  0.00    +0.000 A 
ATOM      5  N   UNL     1      46.846   8.148  13.242  0.00  0.00    +0.000 N 
ATOM      6  N   UNL     1      44.924   7.195  12.448  0.00  0.00    +0.000 NA
ATOM      7  C   UNL     1      44.186   6.101  12.128  0.00  0.00    +0.000 A 
ATOM      8  H   UNL     1      46.326   8.986  13.019  0.00  0.00    +0.000 HD
ENDROOT
BRANCH   1  10
ATOM      9  N   UNL     1      43.939   2.520  12.601  0.00  0.00    +0.000 N 
ATOM     10  C   UNL     1      43.760   3.679  11.891  0.00  0.00    +0.000 C 
ATOM     11  O   UNL     1      42.862   3.783  11.067  0.00  0.00    +0.000 OA
ATOM     12  H   UNL     1      43.244   1.800  12.460  0.00  0.00    +0.000 HD
ATOM     13  H   UNL     1      44.485   2.484  13.450  0.00  0.00    +0.000 HD
ENDBRANCH   1  10
BRANCH   5  14
ATOM     14  C   UNL     1      48.231   8.266  13.623  0.00  0.00    +0.000 C 
BRANCH  14  15
ATOM     15  C   UNL     1      48.439   8.035  15.097  0.00  0.00    +0.000 A 
ATOM     16  C   UNL     1      48.289   9.084  16.008  0.00  0.00    +0.000 A 
ATOM     17  C   UNL     1      48.447   8.850  17.369  0.00  0.00    +0.000 A 
ATOM     18  C   UNL     1      48.755   7.566  17.827  0.00  0.00    +0.000 A 
ATOM     19  C   UNL     1      48.916   6.483  16.952  0.00  0.00    +0.000 A 
ATOM     20  C   UNL     1      48.754   6.751  15.584  0.00  0.00    +0.000 A 
BRANCH  19  21
ATOM     21  N   UNL     1      49.167   5.213  17.429  0.00  0.00    +0.000 N 
ATOM     22  C   UNL     1      50.428   4.831  18.077  0.00  0.00    +0.000 C 
ATOM     23  C   UNL     1      50.861   3.450  17.550  0.00  0.00    +0.000 C 
ATOM     24  O   UNL     1      49.833   2.459  17.719  0.00  0.00    +0.000 OA
ATOM     25  C   UNL     1      48.635   2.859  17.027  0.00  0.00    +0.000 C 
ATOM     26  C   UNL     1      48.108   4.200  17.559  0.00  0.00    +0.000 C 
ENDBRANCH  19  21
ENDBRANCH  14  15
ENDBRANCH   5  14
TORSDOF 4
ENDMDL
