MODEL 1
REMARK VINA RESULT:    -8.141      0.000      0.000
REMARK INTER + INTRA:         -10.046
REMARK INTER:                  -9.569
REMARK INTRA:                  -0.477
REMARK UNBOUND:                -0.477
REMARK  Name = 
REMARK  3 active torsions:
REMARK  status: ('A' for Active; 'I' for Inactive)
REMARK    1  A    between atoms: C_2  and  C_4
REMARK    2  A    between atoms: N_8  and  C_9
REMARK    3  A    between atoms: C_9  and  C_10
REMARK                            x       y       z     vdW  Elec       q    Type
REMARK                         _______ _______ _______ _____ _____    ______ ____
ROOT
ATOM      1  C   UNL     1      46.394   2.304   7.733  0.00  0.00    +0.000 A 
ATOM      2  C   UNL     1      45.579   1.803   8.744  0.00  0.00    +0.000 A 
ATOM      3  C   UNL     1      44.706   2.670   9.401  0.00  0.00    +0.000 A 
ATOM      4  C   UNL     1      44.679   4.018   9.057  0.00  0.00    +0.000 A 
ATOM      5  N   UNL     1      43.798   4.920   9.605  0.00  0.00    +0.000 N 
ATOM      6  N   UNL     1      45.474   4.514   8.089  0.00  0.00    +0.000 NA
ATOM      7  C   UNL     1      46.315   3.658   7.453  0.00  0.00    +0.000 A 
ATOM      8  H   UNL     1      44.004   5.852   9.260  0.00  0.00    +0.000 HD
ENDROOT
BRANCH   1  10
ATOM      9  N   UNL     1      48.480   2.046   6.517  0.00  0.00    +0.000 N 
ATOM     10  C   UNL     1      47.328   1.459   6.963  0.00  0.00    +0.000 C 
ATOM     11  O   UNL     1      47.098   0.274   6.758  0.00  0.00    +0.000 OA
ATOM     12  H   UNL     1      49.156   1.433   6.078  0.00  0.00    +0.000 HD
ATOM     13  H   UNL     1      48.817   2.929   6.873  0.00  0.00    +0.000 HD
ENDBRANCH   1  10
BRANCH   5  14
ATOM     14  C   UNL     1      43.358   4.839  10.983  0.00  0.00    +0.000 C 
BRANCH  14  15
ATOM     15  C   UNL     1      44.487   5.192  11.924  0.00  0.00    +0.000 A 
ATOM     16  C   UNL     1      45.037   4.256  12.810  0.00  0.00    +0.000 A 
ATOM     17  C   UNL     1      46.082   4.641  13.634  0.00  0.00    +0.000 A 
ATOM     18  N   UNL     1      46.628   5.875  13.624  0.00  0.00    +0.000 NA
ATOM     19  C   UNL     1      46.101   6.760  12.752  0.00  0.00    +0.000 A 
ATOM     20  C   UNL     1      45.053   6.470  11.890  0.00  0.00    +0.000 A 
ENDBRANCH  14  15
ENDBRANCH   5  14
TORSDOF 3
ENDMDL
MODEL 2
REMARK VINA RESULT:    -7.349      2.687      6.130
REMARK INTER + INTRA:          -9.114
REMARK INTER:                  -8.653
REMARK INTRA:                  -0.461
REMARK UNBOUND:                -0.477
REMARK  Name = 
REMARK  3 active torsions:
REMARK  status: ('A' for Active; 'I' for Inactive)
REMARK    1  A    between atoms: C_2  and  C_4
REMARK    2  A    between atoms: N_8  and  C_9
REMARK    3  A    between atoms: C_9  and  C_10
REMARK                            x       y       z     vdW  Elec       q    Type
REMARK                         _______ _______ _______ _____ _____    ______ ____
ROOT
ATOM      1  C   UNL     1      46.466   5.314  12.802  0.00  0.00    +0.000 A 
ATOM      2  C   UNL     1      46.307   6.014  11.610  0.00  0.00    +0.000 A 
ATOM      3  C   UNL     1      45.609   5.415  10.562  0.00  0.00    +0.000 A 
ATOM      4  C   UNL     1      45.106   4.125  10.711  0.00  0.00    +0.000 A 
ATOM      5  N   UNL     1      44.347   3.496   9.754  0.00  0.00    +0.000 N 
ATOM      6  N   UNL     1      45.267   3.436  11.857  0.00  0.00    +0.000 NA
ATOM      7  C   UNL     1      45.943   4.033  12.872  0.00  0.00    +0.000 A 
ATOM      8  H   UNL     1      44.149   2.543  10.045  0.00  0.00    +0.000 HD
ENDROOT
BRANCH   1  10
ATOM      9  N   UNL     1      47.236   7.239  14.066  0.00  0.00    +0.000 N 
ATOM     10  C   UNL     1      47.163   5.876  13.976  0.00  0.00    +0.000 C 
ATOM     11  O   UNL     1      47.630   5.156  14.848  0.00  0.00    +0.000 OA
ATOM     12  H   UNL     1      47.627   7.612  14.922  0.00  0.00    +0.000 HD
ATOM     13  H   UNL     1      46.658   7.855  13.513  0.00  0.00    +0.000 HD
ENDBRANCH   1  10
BRANCH   5  14
ATOM     14  C   UNL     1      44.566   3.689   8.335  0.00  0.00    +0.000 C 
BRANCH  14  15
ATOM     15  C   UNL     1      45.743   2.868   7.861  0.00  0.00    +0.000 A 
ATOM     16  C   UNL     1      45.874   1.507   8.169  0.00  0.00    +0.000 A 
ATOM     17  C   UNL     1      46.971   0.811   7.689  0.00  0.00    +0.000 A 
ATOM     18  N   UNL     1      47.926   1.362   6.912  0.00  0.00    +0.000 NA
ATOM     19  C   UNL     1      47.777   2.667   6.607  0.00  0.00    +0.000 A 
ATOM     20  C   UNL     1      46.717   3.450   7.043  0.00  0.00    +0.000 A 
ENDBRANCH  14  15
ENDBRANCH   5  14
TORSDOF 3
ENDMDL
MODEL 3
REMARK VINA RESULT:    -6.290      3.078      6.521
REMARK INTER + INTRA:          -7.870
REMARK INTER:                  -7.453
REMARK INTRA:                  -0.417
REMARK UNBOUND:                -0.477
REMARK  Name = 
REMARK  3 active torsions:
REMARK  status: ('A' for Active; 'I' for Inactive)
REMARK    1  A    between atoms: C_2  and  C_4
REMARK    2  A    between atoms: N_8  and  C_9
REMARK    3  A    between atoms: C_9  and  C_10
REMARK                            x       y       z     vdW  Elec       q    Type
REMARK                         _______ _______ _______ _____ _____    ______ ____
ROOT
ATOM      1  C   UNL     1      46.189   7.378  12.701  0.00  0.00    +0.000 A 
ATOM      2  C   UNL     1      45.114   7.430  11.820  0.00  0.00    +0.000 A 
ATOM      3  C   UNL     1      44.616   6.239  11.288  0.00  0.00    +0.000 A 
ATOM      4  C   UNL     1      45.213   5.028  11.625  0.00  0.00    +0.000 A 
ATOM      5  N   UNL     1      44.737   3.809  11.203  0.00  0.00    +0.000 N 
ATOM      6  N   UNL     1      46.262   4.970  12.467  0.00  0.00    +0.000 NA
ATOM      7  C   UNL     1      46.733   6.136  12.982  0.00  0.00    +0.000 A 
ATOM      8  H   UNL     1      45.364   3.072  11.509  0.00  0.00    +0.000 HD
ENDROOT
BRANCH   1  10
ATOM      9  N   UNL     1      46.372   9.795  12.844  0.00  0.00    +0.000 N 
ATOM     10  C   UNL     1      46.765   8.580  13.335  0.00  0.00    +0.000 C 
ATOM     11  O   UNL     1      47.536   8.497  14.282  0.00  0.00    +0.000 OA
ATOM     12  H   UNL     1      46.695  10.610  13.351  0.00  0.00    +0.000 HD
ATOM     13  H   UNL     1      45.564   9.909  12.249  0.00  0.00    +0.000 HD
ENDBRANCH   1  10
BRANCH   5  14
ATOM     14  C   UNL     1      44.129   3.619   9.902  0.00  0.00    +0.000 C 
BRANCH  14  15
ATOM     15  C   UNL     1      45.151   3.131   8.901  0.00  0.00    +0.000 A 
ATOM     16  C   UNL     1      45.835   4.007   8.049  0.00  0.00    +0.000 A 
ATOM     17  C   UNL     1      46.771   3.494   7.166  0.00  0.00    +0.000 A 
ATOM     18  N   UNL     1      47.089   2.185   7.088  0.00  0.00    +0.000 NA
ATOM     19  C   UNL     1      46.436   1.355   7.929  0.00  0.00    +0.000 A 
ATOM     20  C   UNL     1      45.480   1.773   8.844  0.00  0.00    +0.000 A 
ENDBRANCH  14  15
ENDBRANCH   5  14
TORSDOF 3
ENDMDL
MODEL 4
REMARK VINA RESULT:    -6.012      1.647      2.074
REMARK INTER + INTRA:          -7.543
REMARK INTER:                  -7.209
REMARK INTRA:                  -0.334
REMARK UNBOUND:                -0.477
REMARK  Name = 
REMARK  3 active torsions:
REMARK  status: ('A' for Active; 'I' for Inactive)
REMARK    1  A    between atoms: C_2  and  C_4
REMARK    2  A    between atoms: N_8  and  C_9
REMARK    3  A    between atoms: C_9  and  C_10
REMARK                            x       y       z     vdW  Elec       q    Type
REMARK                         _______ _______ _______ _____ _____    ______ ____
ROOT
ATOM      1  C   UNL     1      46.008   2.651   7.986  0.00  0.00    +0.000 A 
ATOM      2  C   UNL     1      46.065   4.036   8.114  0.00  0.00    +0.000 A 
ATOM      3  C   UNL     1      45.368   4.649   9.155  0.00  0.00    +0.000 A 
ATOM      4  C   UNL     1      44.610   3.877  10.030  0.00  0.00    +0.000 A 
ATOM      5  N   UNL     1      43.955   4.396  11.121  0.00  0.00    +0.000 N 
ATOM      6  N   UNL     1      44.538   2.538   9.906  0.00  0.00    +0.000 NA
ATOM      7  C   UNL     1      45.227   1.952   8.892  0.00  0.00    +0.000 A 
ATOM      8  H   UNL     1      43.413   3.667  11.574  0.00  0.00    +0.000 HD
ENDROOT
BRANCH   1  10
ATOM      9  N   UNL     1      47.121   0.632   7.225  0.00  0.00    +0.000 N 
ATOM     10  C   UNL     1      46.734   1.912   6.935  0.00  0.00    +0.000 C 
ATOM     11  O   UNL     1      46.954   2.409   5.839  0.00  0.00    +0.000 OA
ATOM     12  H   UNL     1      47.528   0.102   6.464  0.00  0.00    +0.000 HD
ATOM     13  H   UNL     1      46.746   0.110   8.004  0.00  0.00    +0.000 HD
ENDBRANCH   1  10
BRANCH   5  14
ATOM     14  C   UNL     1      43.357   5.716  11.115  0.00  0.00    +0.000 C 
BRANCH  14  15
ATOM     15  C   UNL     1      44.305   6.733  11.708  0.00  0.00    +0.000 A 
ATOM     16  C   UNL     1      45.340   6.367  12.580  0.00  0.00    +0.000 A 
ATOM     17  C   UNL     1      46.183   7.348  13.074  0.00  0.00    +0.000 A 
ATOM     18  N   UNL     1      46.085   8.654  12.748  0.00  0.00    +0.000 NA
ATOM     19  C   UNL     1      45.097   8.989  11.892  0.00  0.00    +0.000 A 
ATOM     20  C   UNL     1      44.200   8.080  11.348  0.00  0.00    +0.000 A 
ENDBRANCH  14  15
ENDBRANCH   5  14
TORSDOF 3
ENDMDL
MODEL 5
REMARK VINA RESULT:    -5.673      4.477      6.776
REMARK INTER + INTRA:          -7.144
REMARK INTER:                  -6.811
REMARK INTRA:                  -0.333
REMARK UNBOUND:                -0.477
REMARK  Name = 
REMARK  3 active torsions:
REMARK  status: ('A' for Active; 'I' for Inactive)
REMARK    1  A    between atoms: C_2  and  C_4
REMARK    2  A    between atoms: N_8  and  C_9
REMARK    3  A    between atoms: C_9  and  C_10
REMARK                            x       y       z     vdW  Elec       q    Type
REMARK                         _______ _______ _______ _____ _____    ______ ____
ROOT
ATOM      1  C   UNL     1      45.951   5.608  12.230  0.00  0.00    +0.000 A 
ATOM      2  C   UNL     1      46.814   6.205  13.144  0.00  0.00    +0.000 A 
ATOM      3  C   UNL     1      47.288   5.452  14.218  0.00  0.00    +0.000 A 
ATOM      4  C   UNL     1      46.876   4.132  14.375  0.00  0.00    +0.000 A 
ATOM      5  N   UNL     1      47.354   3.304  15.362  0.00  0.00    +0.000 N 
ATOM      6  N   UNL     1      46.031   3.551  13.502  0.00  0.00    +0.000 NA
ATOM      7  C   UNL     1      45.580   4.293  12.457  0.00  0.00    +0.000 A 
ATOM      8  H   UNL     1      46.866   2.414  15.329  0.00  0.00    +0.000 HD
ENDROOT
BRANCH   1  10
ATOM      9  N   UNL     1      45.556   5.696   9.836  0.00  0.00    +0.000 N 
ATOM     10  C   UNL     1      45.420   6.316  11.048  0.00  0.00    +0.000 C 
ATOM     11  O   UNL     1      44.854   7.396  11.149  0.00  0.00    +0.000 OA
ATOM     12  H   UNL     1      45.100   6.143   9.050  0.00  0.00    +0.000 HD
ATOM     13  H   UNL     1      45.782   4.716   9.745  0.00  0.00    +0.000 HD
ENDBRANCH   1  10
BRANCH   5  14
ATOM     14  C   UNL     1      47.696   3.786  16.684  0.00  0.00    +0.000 C 
BRANCH  14  15
ATOM     15  C   UNL     1      49.118   3.414  17.035  0.00  0.00    +0.000 A 
ATOM     16  C   UNL     1      50.013   4.338  17.593  0.00  0.00    +0.000 A 
ATOM     17  C   UNL     1      51.298   3.926  17.906  0.00  0.00    +0.000 A 
ATOM     18  N   UNL     1      51.745   2.666  17.726  0.00  0.00    +0.000 NA
ATOM     19  C   UNL     1      50.867   1.782  17.207  0.00  0.00    +0.000 A 
ATOM     20  C   UNL     1      49.562   2.100  16.857  0.00  0.00    +0.000 A 
ENDBRANCH  14  15
ENDBRANCH   5  14
TORSDOF 3
ENDMDL
MODEL 6
REMARK VINA RESULT:    -5.663      3.346      6.778
REMARK INTER + INTRA:          -7.133
REMARK INTER:                  -6.741
REMARK INTRA:                  -0.392
REMARK UNBOUND:                -0.477
REMARK  Name = 
REMARK  3 active torsions:
REMARK  status: ('A' for Active; 'I' for Inactive)
REMARK    1  A    between atoms: C_2  and  C_4
REMARK    2  A    between atoms: N_8  and  C_9
REMARK    3  A    between atoms: C_9  and  C_10
REMARK                            x       y       z     vdW  Elec       q    Type
REMARK                         _______ _______ _______ _____ _____    ______ ____
ROOT
ATOM      1  C   UNL     1      47.807   5.371  15.287  0.00  0.00    +0.000 A 
ATOM      2  C   UNL     1      46.839   4.519  14.764  0.00  0.00    +0.000 A 
ATOM      3  C   UNL     1      46.330   4.775  13.490  0.00  0.00    +0.000 A 
ATOM      4  C   UNL     1      46.776   5.882  12.775  0.00  0.00    +0.000 A 
ATOM      5  N   UNL     1      46.380   6.160  11.489  0.00  0.00    +0.000 N 
ATOM      6  N   UNL     1      47.704   6.718  13.280  0.00  0.00    +0.000 NA
ATOM      7  C   UNL     1      48.195   6.456  14.519  0.00  0.00    +0.000 A 
ATOM      8  H   UNL     1      46.774   7.047  11.193  0.00  0.00    +0.000 HD
ENDROOT
BRANCH   1  10
ATOM      9  N   UNL     1      47.849   5.808  17.675  0.00  0.00    +0.000 N 
ATOM     10  C   UNL     1      48.423   5.166  16.613  0.00  0.00    +0.000 C 
ATOM     11  O   UNL     1      49.388   4.427  16.763  0.00  0.00    +0.000 OA
ATOM     12  H   UNL     1      48.219   5.581  18.591  0.00  0.00    +0.000 HD
ATOM     13  H   UNL     1      46.925   6.212  17.636  0.00  0.00    +0.000 HD
ENDBRANCH   1  10
BRANCH   5  14
ATOM     14  C   UNL     1      45.045   5.871  11.006  0.00  0.00    +0.000 C 
BRANCH  14  15
ATOM     15  C   UNL     1      45.065   4.690  10.062  0.00  0.00    +0.000 A 
ATOM     16  C   UNL     1      45.672   4.755   8.801  0.00  0.00    +0.000 A 
ATOM     17  C   UNL     1      45.668   3.630   7.993  0.00  0.00    +0.000 A 
ATOM     18  N   UNL     1      45.126   2.449   8.356  0.00  0.00    +0.000 NA
ATOM     19  C   UNL     1      44.562   2.395   9.581  0.00  0.00    +0.000 A 
ATOM     20  C   UNL     1      44.513   3.468  10.460  0.00  0.00    +0.000 A 
ENDBRANCH  14  15
ENDBRANCH   5  14
TORSDOF 3
ENDMDL
MODEL 7
REMARK VINA RESULT:    -5.468      4.935      8.365
REMARK INTER + INTRA:          -6.904
REMARK INTER:                  -6.678
REMARK INTRA:                  -0.227
REMARK UNBOUND:                -0.477
REMARK  Name = 
REMARK  3 active torsions:
REMARK  status: ('A' for Active; 'I' for Inactive)
REMARK    1  A    between atoms: C_2  and  C_4
REMARK    2  A    between atoms: N_8  and  C_9
REMARK    3  A    between atoms: C_9  and  C_10
REMARK                            x       y       z     vdW  Elec       q    Type
REMARK                         _______ _______ _______ _____ _____    ______ ____
ROOT
ATOM      1  C   UNL     1      48.619   4.468  18.222  0.00  0.00    +0.000 A 
ATOM      2  C   UNL     1      48.926   5.363  17.202  0.00  0.00    +0.000 A 
ATOM      3  C   UNL     1      48.167   5.342  16.032  0.00  0.00    +0.000 A 
ATOM      4  C   UNL     1      47.136   4.417  15.891  0.00  0.00    +0.000 A 
ATOM      5  N   UNL     1      46.298   4.381  14.803  0.00  0.00    +0.000 N 
ATOM      6  N   UNL     1      46.840   3.539  16.868  0.00  0.00    +0.000 NA
ATOM      7  C   UNL     1      47.584   3.573  18.005  0.00  0.00    +0.000 A 
ATOM      8  H   UNL     1      45.670   3.587  14.880  0.00  0.00    +0.000 HD
ENDROOT
BRANCH   1  10
ATOM      9  N   UNL     1      48.658   3.995  20.603  0.00  0.00    +0.000 N 
ATOM     10  C   UNL     1      49.347   4.434  19.506  0.00  0.00    +0.000 C 
ATOM     11  O   UNL     1      50.525   4.755  19.582  0.00  0.00    +0.000 OA
ATOM     12  H   UNL     1      49.195   3.882  21.455  0.00  0.00    +0.000 HD
ATOM     13  H   UNL     1      47.784   3.494  20.536  0.00  0.00    +0.000 HD
ENDBRANCH   1  10
BRANCH   5  14
ATOM     14  C   UNL     1      46.746   4.702  13.463  0.00  0.00    +0.000 C 
BRANCH  14  15
ATOM     15  C   UNL     1      45.608   4.580  12.476  0.00  0.00    +0.000 A 
ATOM     16  C   UNL     1      45.072   3.338  12.108  0.00  0.00    +0.000 A 
ATOM     17  C   UNL     1      44.018   3.299  11.210  0.00  0.00    +0.000 A 
ATOM     18  N   UNL     1      43.449   4.399  10.675  0.00  0.00    +0.000 NA
ATOM     19  C   UNL     1      43.962   5.589  11.054  0.00  0.00    +0.000 A 
ATOM     20  C   UNL     1      45.019   5.730  11.943  0.00  0.00    +0.000 A 
ENDBRANCH  14  15
ENDBRANCH   5  14
TORSDOF 3
ENDMDL
MODEL 8
REMARK VINA RESULT:    -5.277      3.242      5.387
REMARK INTER + INTRA:          -6.680
REMARK INTER:                  -6.325
REMARK INTRA:                  -0.355
REMARK UNBOUND:                -0.477
REMARK  Name = 
REMARK  3 active torsions:
REMARK  status: ('A' for Active; 'I' for Inactive)
REMARK    1  A    between atoms: C_2  and  C_4
REMARK    2  A    between atoms: N_8  and  C_9
REMARK    3  A    between atoms: C_9  and  C_10
REMARK                            x       y       z     vdW  Elec       q    Type
REMARK                         _______ _______ _______ _____ _____    ______ ____
ROOT
ATOM      1  C   UNL     1      44.610   4.255  11.436  0.00  0.00    +0.000 A 
ATOM      2  C   UNL     1      45.125   5.334  10.724  0.00  0.00    +0.000 A 
ATOM      3  C   UNL     1      45.832   6.322  11.410  0.00  0.00    +0.000 A 
ATOM      4  C   UNL     1      45.990   6.229  12.789  0.00  0.00    +0.000 A 
ATOM      5  N   UNL     1      46.733   7.121  13.526  0.00  0.00    +0.000 N 
ATOM      6  N   UNL     1      45.484   5.195  13.488  0.00  0.00    +0.000 NA
ATOM      7  C   UNL     1      44.802   4.237  12.807  0.00  0.00    +0.000 A 
ATOM      8  H   UNL     1      46.653   6.900  14.513  0.00  0.00    +0.000 HD
ENDROOT
BRANCH   1  10
ATOM      9  N   UNL     1      44.158   2.888   9.481  0.00  0.00    +0.000 N 
ATOM     10  C   UNL     1      43.873   3.149  10.793  0.00  0.00    +0.000 C 
ATOM     11  O   UNL     1      43.066   2.471  11.415  0.00  0.00    +0.000 OA
ATOM     12  H   UNL     1      43.721   2.065   9.082  0.00  0.00    +0.000 HD
ATOM     13  H   UNL     1      44.979   3.248   9.017  0.00  0.00    +0.000 HD
ENDBRANCH   1  10
BRANCH   5  14
ATOM     14  C   UNL     1      46.807   8.530  13.198  0.00  0.00    +0.000 C 
BRANCH  14  15
ATOM     15  C   UNL     1      48.108   8.846  12.498  0.00  0.00    +0.000 A 
ATOM     16  C   UNL     1      48.322  10.065  11.841  0.00  0.00    +0.000 A 
ATOM     17  C   UNL     1      49.545  10.297  11.233  0.00  0.00    +0.000 A 
ATOM     18  N   UNL     1      50.569   9.419  11.251  0.00  0.00    +0.000 NA
ATOM     19  C   UNL     1      50.356   8.257  11.904  0.00  0.00    +0.000 A 
ATOM     20  C   UNL     1      49.165   7.932  12.539  0.00  0.00    +0.000 A 
ENDBRANCH  14  15
ENDBRANCH   5  14
TORSDOF 3
ENDMDL
