MODEL 1
REMARK VINA RESULT:    -7.456      0.000      0.000
REMARK INTER + INTRA:          -9.793
REMARK INTER:                  -9.418
REMARK INTRA:                  -0.375
REMARK UNBOUND:                -0.375
REMARK  Name = 
REMARK  5 active torsions:
REMARK  status: ('A' for Active; 'I' for Inactive)
REMARK    1  A    between atoms: N_1  and  C_2
REMARK    2  A    between atoms: C_2  and  C_3
REMARK    3  A    between atoms: C_6  and  C_7
REMARK    4  A    between atoms: C_7  and  N_8
REMARK    5  A    between atoms: C_13  and  C_14
REMARK                            x       y       z     vdW  Elec       q    Type
REMARK                         _______ _______ _______ _____ _____    ______ ____
ROOT
ATOM      1  N   UNL     1      44.154   4.329  10.367  0.00  0.00    +0.000 N 
ATOM      2  C   UNL     1      43.661   3.164  10.902  0.00  0.00    +0.000 A 
ATOM      3  C   UNL     1      44.175   2.116  10.179  0.00  0.00    +0.000 A 
ATOM      4  C   UNL     1      45.060   2.657   9.207  0.00  0.00    +0.000 A 
ATOM      5  C   UNL     1      45.850   2.078   8.190  0.00  0.00    +0.000 A 
ATOM      6  C   UNL     1      46.658   2.897   7.388  0.00  0.00    +0.000 A 
ATOM      7  C   UNL     1      46.702   4.276   7.630  0.00  0.00    +0.000 A 
ATOM      8  C   UNL     1      45.917   4.873   8.625  0.00  0.00    +0.000 A 
ATOM      9  C   UNL     1      45.080   4.043   9.384  0.00  0.00    +0.000 A 
ENDROOT
BRANCH   6  10
ATOM     10  C   UNL     1      47.471   2.365   6.255  0.00  0.00    +0.000 C 
ATOM     11  N   UNL     1      47.355   2.952   5.026  0.00  0.00    +0.000 N 
ATOM     12  O   UNL     1      48.252   1.430   6.410  0.00  0.00    +0.000 OA
ATOM     13  H   UNL     1      46.766   3.737   4.805  0.00  0.00    +0.000 HD
ATOM     14  H   UNL     1      47.950   2.588   4.293  0.00  0.00    +0.000 HD
ENDBRANCH   6  10
BRANCH   1  15
ATOM     15  C   UNL     1      43.727   5.655  10.785  0.00  0.00    +0.000 C 
BRANCH  15  19
ATOM     16  C   UNL     1      46.997   7.153  13.243  0.00  0.00    +0.000 C 
ATOM     17  C   UNL     1      45.848   8.121  12.926  0.00  0.00    +0.000 C 
ATOM     18  C   UNL     1      44.918   7.596  11.834  0.00  0.00    +0.000 C 
ATOM     19  C   UNL     1      44.394   6.168  12.085  0.00  0.00    +0.000 C 
ATOM     20  C   UNL     1      45.492   5.210  12.590  0.00  0.00    +0.000 C 
ATOM     21  C   UNL     1      46.383   5.814  13.673  0.00  0.00    +0.000 C 
BRANCH  16  22
ATOM     22  C   UNL     1      47.991   6.946  12.079  0.00  0.00    +0.000 C 
BRANCH  22  23
ATOM     23  N   UNL     1      49.332   6.605  12.533  0.00  0.00    +0.000 NA
ATOM     24  H   UNL     1      49.414   5.590  12.599  0.00  0.00    +0.000 HD
ATOM     25  H   UNL     1      49.473   6.959  13.478  0.00  0.00    +0.000 HD
ENDBRANCH  22  23
ENDBRANCH  16  22
ENDBRANCH  15  19
ENDBRANCH   1  15
TORSDOF 5
ENDMDL
MODEL 2
REMARK VINA RESULT:    -6.096      4.818      8.540
REMARK INTER + INTRA:          -8.075
REMARK INTER:                  -7.575
REMARK INTRA:                  -0.501
REMARK UNBOUND:                -0.375
REMARK  Name = 
REMARK  5 active torsions:
REMARK  status: ('A' for Active; 'I' for Inactive)
REMARK    1  A    between atoms: N_1  and  C_2
REMARK    2  A    between atoms: C_2  and  C_3
REMARK    3  A    between atoms: C_6  and  C_7
REMARK    4  A    between atoms: C_7  and  N_8
REMARK    5  A    between atoms: C_13  and  C_14
REMARK                            x       y       z     vdW  Elec       q    Type
REMARK                         _______ _______ _______ _____ _____    ______ ____
ROOT
ATOM      1  N   UNL     1      47.634   5.416  14.507  0.00  0.00    +0.000 N 
ATOM      2  C   UNL     1      48.308   6.565  14.173  0.00  0.00    +0.000 A 
ATOM      3  C   UNL     1      48.884   7.066  15.314  0.00  0.00    +0.000 A 
ATOM      4  C   UNL     1      48.603   6.158  16.371  0.00  0.00    +0.000 A 
ATOM      5  C   UNL     1      48.916   6.150  17.747  0.00  0.00    +0.000 A 
ATOM      6  C   UNL     1      48.507   5.072  18.546  0.00  0.00    +0.000 A 
ATOM      7  C   UNL     1      47.827   3.996  17.961  0.00  0.00    +0.000 A 
ATOM      8  C   UNL     1      47.496   3.988  16.600  0.00  0.00    +0.000 A 
ATOM      9  C   UNL     1      47.872   5.098  15.829  0.00  0.00    +0.000 A 
ENDROOT
BRANCH   6  10
ATOM     10  C   UNL     1      48.746   5.024  20.019  0.00  0.00    +0.000 C 
ATOM     11  N   UNL     1      48.599   3.832  20.673  0.00  0.00    +0.000 N 
ATOM     12  O   UNL     1      49.091   6.022  20.646  0.00  0.00    +0.000 OA
ATOM     13  H   UNL     1      48.347   2.957  20.245  0.00  0.00    +0.000 HD
ATOM     14  H   UNL     1      48.806   3.832  21.663  0.00  0.00    +0.000 HD
ENDBRANCH   6  10
BRANCH   1  15
ATOM     15  C   UNL     1      46.788   4.677  13.584  0.00  0.00    +0.000 C 
BRANCH  15  19
ATOM     16  C   UNL     1      43.274   5.386  11.108  0.00  0.00    +0.000 C 
ATOM     17  C   UNL     1      43.041   5.029  12.583  0.00  0.00    +0.000 C 
ATOM     18  C   UNL     1      44.305   4.520  13.274  0.00  0.00    +0.000 C 
ATOM     19  C   UNL     1      45.528   5.443  13.108  0.00  0.00    +0.000 C 
ATOM     20  C   UNL     1      45.683   5.975  11.669  0.00  0.00    +0.000 C 
ATOM     21  C   UNL     1      44.374   6.455  11.048  0.00  0.00    +0.000 C 
BRANCH  16  22
ATOM     22  C   UNL     1      43.638   4.180  10.214  0.00  0.00    +0.000 C 
BRANCH  22  23
ATOM     23  N   UNL     1      43.850   4.550   8.821  0.00  0.00    +0.000 NA
ATOM     24  H   UNL     1      44.037   5.552   8.767  0.00  0.00    +0.000 HD
ATOM     25  H   UNL     1      42.992   4.397   8.293  0.00  0.00    +0.000 HD
ENDBRANCH  22  23
ENDBRANCH  16  22
ENDBRANCH  15  19
ENDBRANCH   1  15
TORSDOF 5
ENDMDL
MODEL 3
REMARK VINA RESULT:    -5.993      3.075      5.142
REMARK INTER + INTRA:          -7.944
REMARK INTER:                  -7.599
REMARK INTRA:                  -0.345
REMARK UNBOUND:                -0.375
REMARK  Name = 
REMARK  5 active torsions:
REMARK  status: ('A' for Active; 'I' for Inactive)
REMARK    1  A    between atoms: N_1  and  C_2
REMARK    2  A    between atoms: C_2  and  C_3
REMARK    3  A    between atoms: C_6  and  C_7
REMARK    4  A    between atoms: C_7  and  N_8
REMARK    5  A    between atoms: C_13  and  C_14
REMARK                            x       y       z     vdW  Elec       q    Type
REMARK                         _______ _______ _______ _____ _____    ______ ____
ROOT
ATOM      1  N   UNL     1      47.230   6.899  13.172  0.00  0.00    +0.000 N 
ATOM      2  C   UNL     1      47.692   6.263  14.298  0.00  0.00    +0.000 A 
ATOM      3  C   UNL     1      47.151   5.001  14.324  0.00  0.00    +0.000 A 
ATOM      4  C   UNL     1      46.380   4.840  13.141  0.00  0.00    +0.000 A 
ATOM      5  C   UNL     1      45.594   3.781  12.637  0.00  0.00    +0.000 A 
ATOM      6  C   UNL     1      44.957   3.920  11.395  0.00  0.00    +0.000 A 
ATOM      7  C   UNL     1      45.141   5.093  10.650  0.00  0.00    +0.000 A 
ATOM      8  C   UNL     1      45.906   6.160  11.136  0.00  0.00    +0.000 A 
ATOM      9  C   UNL     1      46.495   6.020  12.402  0.00  0.00    +0.000 A 
ENDROOT
BRANCH   6  10
ATOM     10  C   UNL     1      44.061   2.870  10.826  0.00  0.00    +0.000 C 
ATOM     11  N   UNL     1      44.483   2.164   9.733  0.00  0.00    +0.000 N 
ATOM     12  O   UNL     1      42.971   2.616  11.330  0.00  0.00    +0.000 OA
ATOM     13  H   UNL     1      45.367   2.280   9.267  0.00  0.00    +0.000 HD
ATOM     14  H   UNL     1      43.864   1.437   9.400  0.00  0.00    +0.000 HD
ENDBRANCH   6  10
BRANCH   1  15
ATOM     15  C   UNL     1      47.481   8.299  12.873  0.00  0.00    +0.000 C 
BRANCH  15  19
ATOM     16  C   UNL     1      51.508   9.012  11.370  0.00  0.00    +0.000 C 
ATOM     17  C   UNL     1      50.862   7.657  11.049  0.00  0.00    +0.000 C 
ATOM     18  C   UNL     1      49.592   7.402  11.859  0.00  0.00    +0.000 C 
ATOM     19  C   UNL     1      48.560   8.545  11.789  0.00  0.00    +0.000 C 
ATOM     20  C   UNL     1      49.205   9.940  11.918  0.00  0.00    +0.000 C 
ATOM     21  C   UNL     1      50.473  10.109  11.085  0.00  0.00    +0.000 C 
BRANCH  16  22
ATOM     22  C   UNL     1      52.045   9.132  12.813  0.00  0.00    +0.000 C 
BRANCH  22  23
ATOM     23  N   UNL     1      52.925   8.031  13.185  0.00  0.00    +0.000 NA
ATOM     24  H   UNL     1      52.683   7.714  14.124  0.00  0.00    +0.000 HD
ATOM     25  H   UNL     1      53.885   8.367  13.241  0.00  0.00    +0.000 HD
ENDBRANCH  22  23
ENDBRANCH  16  22
ENDBRANCH  15  19
ENDBRANCH   1  15
TORSDOF 5
ENDMDL
MODEL 4
REMARK VINA RESULT:    -5.968      3.830      6.026
REMARK INTER + INTRA:          -7.913
REMARK INTER:                  -7.341
REMARK INTRA:                  -0.573
REMARK UNBOUND:                -0.375
REMARK  Name = 
REMARK  5 active torsions:
REMARK  status: ('A' for Active; 'I' for Inactive)
REMARK    1  A    between atoms: N_1  and  C_2
REMARK    2  A    between atoms: C_2  and  C_3
REMARK    3  A    between atoms: C_6  and  C_7
REMARK    4  A    between atoms: C_7  and  N_8
REMARK    5  A    between atoms: C_13  and  C_14
REMARK                            x       y       z     vdW  Elec       q    Type
REMARK                         _______ _______ _______ _____ _____    ______ ____
ROOT
ATOM      1  N   UNL     1      47.605   6.793  13.868  0.00  0.00    +0.000 N 
ATOM      2  C   UNL     1      48.346   7.555  12.999  0.00  0.00    +0.000 A 
ATOM      3  C   UNL     1      47.902   7.298  11.726  0.00  0.00    +0.000 A 
ATOM      4  C   UNL     1      46.810   6.394  11.826  0.00  0.00    +0.000 A 
ATOM      5  C   UNL     1      45.979   5.772  10.869  0.00  0.00    +0.000 A 
ATOM      6  C   UNL     1      44.944   4.926  11.293  0.00  0.00    +0.000 A 
ATOM      7  C   UNL     1      44.721   4.738  12.664  0.00  0.00    +0.000 A 
ATOM      8  C   UNL     1      45.541   5.336  13.630  0.00  0.00    +0.000 A 
ATOM      9  C   UNL     1      46.600   6.139  13.183  0.00  0.00    +0.000 A 
ENDROOT
BRANCH   6  10
ATOM     10  C   UNL     1      44.066   4.186  10.339  0.00  0.00    +0.000 C 
ATOM     11  N   UNL     1      44.107   4.515   9.013  0.00  0.00    +0.000 N 
ATOM     12  O   UNL     1      43.329   3.280  10.718  0.00  0.00    +0.000 OA
ATOM     13  H   UNL     1      44.695   5.221   8.603  0.00  0.00    +0.000 HD
ATOM     14  H   UNL     1      43.524   3.967   8.394  0.00  0.00    +0.000 HD
ENDBRANCH   6  10
BRANCH   1  15
ATOM     15  C   UNL     1      47.876   6.697  15.293  0.00  0.00    +0.000 C 
BRANCH  15  19
ATOM     16  C   UNL     1      49.402   3.697  18.060  0.00  0.00    +0.000 C 
ATOM     17  C   UNL     1      48.406   3.230  16.988  0.00  0.00    +0.000 C 
ATOM     18  C   UNL     1      47.721   4.393  16.273  0.00  0.00    +0.000 C 
ATOM     19  C   UNL     1      48.694   5.449  15.712  0.00  0.00    +0.000 C 
ATOM     20  C   UNL     1      49.825   5.803  16.700  0.00  0.00    +0.000 C 
ATOM     21  C   UNL     1      50.450   4.586  17.378  0.00  0.00    +0.000 C 
BRANCH  16  22
ATOM     22  C   UNL     1      48.751   4.436  19.249  0.00  0.00    +0.000 C 
BRANCH  22  23
ATOM     23  N   UNL     1      48.381   3.543  20.339  0.00  0.00    +0.000 NA
ATOM     24  H   UNL     1      49.135   2.873  20.492  0.00  0.00    +0.000 HD
ATOM     25  H   UNL     1      47.568   2.991  20.066  0.00  0.00    +0.000 HD
ENDBRANCH  22  23
ENDBRANCH  16  22
ENDBRANCH  15  19
ENDBRANCH   1  15
TORSDOF 5
ENDMDL
MODEL 5
REMARK VINA RESULT:    -5.846      3.639      5.689
REMARK INTER + INTRA:          -7.758
REMARK INTER:                  -7.120
REMARK INTRA:                  -0.638
REMARK UNBOUND:                -0.375
REMARK  Name = 
REMARK  5 active torsions:
REMARK  status: ('A' for Active; 'I' for Inactive)
REMARK    1  A    between atoms: N_1  and  C_2
REMARK    2  A    between atoms: C_2  and  C_3
REMARK    3  A    between atoms: C_6  and  C_7
REMARK    4  A    between atoms: C_7  and  N_8
REMARK    5  A    between atoms: C_13  and  C_14
REMARK                            x       y       z     vdW  Elec       q    Type
REMARK                         _______ _______ _______ _____ _____    ______ ____
ROOT
ATOM      1  N   UNL     1      46.416   8.423  12.338  0.00  0.00    +0.000 N 
ATOM      2  C   UNL     1      45.464   9.274  11.834  0.00  0.00    +0.000 A 
ATOM      3  C   UNL     1      44.417   8.514  11.374  0.00  0.00    +0.000 A 
ATOM      4  C   UNL     1      44.714   7.155  11.664  0.00  0.00    +0.000 A 
ATOM      5  C   UNL     1      44.033   5.943  11.419  0.00  0.00    +0.000 A 
ATOM      6  C   UNL     1      44.588   4.733  11.860  0.00  0.00    +0.000 A 
ATOM      7  C   UNL     1      45.793   4.743  12.574  0.00  0.00    +0.000 A 
ATOM      8  C   UNL     1      46.492   5.932  12.818  0.00  0.00    +0.000 A 
ATOM      9  C   UNL     1      45.944   7.126  12.326  0.00  0.00    +0.000 A 
ENDROOT
BRANCH   6  10
ATOM     10  C   UNL     1      43.957   3.408  11.584  0.00  0.00    +0.000 C 
ATOM     11  N   UNL     1      43.834   2.509  12.607  0.00  0.00    +0.000 N 
ATOM     12  O   UNL     1      43.531   3.121  10.468  0.00  0.00    +0.000 OA
ATOM     13  H   UNL     1      44.126   2.661  13.558  0.00  0.00    +0.000 HD
ATOM     14  H   UNL     1      43.368   1.638  12.389  0.00  0.00    +0.000 HD
ENDBRANCH   6  10
BRANCH   1  15
ATOM     15  C   UNL     1      47.727   8.856  12.794  0.00  0.00    +0.000 C 
BRANCH  15  19
ATOM     16  C   UNL     1      51.789   8.928  11.222  0.00  0.00    +0.000 C 
ATOM     17  C   UNL     1      50.953   7.667  10.964  0.00  0.00    +0.000 C 
ATOM     18  C   UNL     1      49.673   7.628  11.797  0.00  0.00    +0.000 C 
ATOM     19  C   UNL     1      48.812   8.903  11.689  0.00  0.00    +0.000 C 
ATOM     20  C   UNL     1      49.651  10.195  11.755  0.00  0.00    +0.000 C 
ATOM     21  C   UNL     1      50.917  10.149  10.902  0.00  0.00    +0.000 C 
BRANCH  16  22
ATOM     22  C   UNL     1      52.361   9.028  12.653  0.00  0.00    +0.000 C 
BRANCH  22  23
ATOM     23  N   UNL     1      53.137   7.855  13.037  0.00  0.00    +0.000 NA
ATOM     24  H   UNL     1      54.131   8.076  12.967  0.00  0.00    +0.000 HD
ATOM     25  H   UNL     1      52.970   7.103  12.370  0.00  0.00    +0.000 HD
ENDBRANCH  22  23
ENDBRANCH  16  22
ENDBRANCH  15  19
ENDBRANCH   1  15
TORSDOF 5
ENDMDL
MODEL 6
REMARK VINA RESULT:    -5.814      3.700      5.940
REMARK INTER + INTRA:          -7.719
REMARK INTER:                  -7.218
REMARK INTRA:                  -0.501
REMARK UNBOUND:                -0.375
REMARK  Name = 
REMARK  5 active torsions:
REMARK  status: ('A' for Active; 'I' for Inactive)
REMARK    1  A    between atoms: N_1  and  C_2
REMARK    2  A    between atoms: C_2  and  C_3
REMARK    3  A    between atoms: C_6  and  C_7
REMARK    4  A    between atoms: C_7  and  N_8
REMARK    5  A    between atoms: C_13  and  C_14
REMARK                            x       y       z     vdW  Elec       q    Type
REMARK                         _______ _______ _______ _____ _____    ______ ____
ROOT
ATOM      1  N   UNL     1      47.528   6.951  13.828  0.00  0.00    +0.000 N 
ATOM      2  C   UNL     1      47.193   8.265  13.614  0.00  0.00    +0.000 A 
ATOM      3  C   UNL     1      46.159   8.296  12.711  0.00  0.00    +0.000 A 
ATOM      4  C   UNL     1      45.811   6.952  12.409  0.00  0.00    +0.000 A 
ATOM      5  C   UNL     1      44.853   6.370  11.552  0.00  0.00    +0.000 A 
ATOM      6  C   UNL     1      44.733   4.974  11.490  0.00  0.00    +0.000 A 
ATOM      7  C   UNL     1      45.538   4.173  12.310  0.00  0.00    +0.000 A 
ATOM      8  C   UNL     1      46.504   4.728  13.159  0.00  0.00    +0.000 A 
ATOM      9  C   UNL     1      46.641   6.124  13.170  0.00  0.00    +0.000 A 
ENDROOT
BRANCH   6  10
ATOM     10  C   UNL     1      43.786   4.286  10.562  0.00  0.00    +0.000 C 
ATOM     11  N   UNL     1      43.847   4.572   9.226  0.00  0.00    +0.000 N 
ATOM     12  O   UNL     1      42.975   3.461  10.971  0.00  0.00    +0.000 OA
ATOM     13  H   UNL     1      44.493   5.211   8.793  0.00  0.00    +0.000 HD
ATOM     14  H   UNL     1      43.215   4.058   8.626  0.00  0.00    +0.000 HD
ENDBRANCH   6  10
BRANCH   1  15
ATOM     15  C   UNL     1      48.670   6.527  14.623  0.00  0.00    +0.000 C 
BRANCH  15  19
ATOM     16  C   UNL     1      49.282   4.636  18.500  0.00  0.00    +0.000 C 
ATOM     17  C   UNL     1      49.469   6.157  18.417  0.00  0.00    +0.000 C 
ATOM     18  C   UNL     1      49.520   6.669  16.978  0.00  0.00    +0.000 C 
ATOM     19  C   UNL     1      48.341   6.200  16.102  0.00  0.00    +0.000 C 
ATOM     20  C   UNL     1      48.003   4.710  16.304  0.00  0.00    +0.000 C 
ATOM     21  C   UNL     1      47.981   4.278  17.768  0.00  0.00    +0.000 C 
BRANCH  16  22
ATOM     22  C   UNL     1      50.466   3.820  17.936  0.00  0.00    +0.000 C 
BRANCH  22  23
ATOM     23  N   UNL     1      50.169   2.399  17.816  0.00  0.00    +0.000 NA
ATOM     24  H   UNL     1      50.813   1.980  17.144  0.00  0.00    +0.000 HD
ATOM     25  H   UNL     1      49.236   2.276  17.424  0.00  0.00    +0.000 HD
ENDBRANCH  22  23
ENDBRANCH  16  22
ENDBRANCH  15  19
ENDBRANCH   1  15
TORSDOF 5
ENDMDL
MODEL 7
REMARK VINA RESULT:    -5.557      4.277      6.671
REMARK INTER + INTRA:          -7.394
REMARK INTER:                  -6.782
REMARK INTRA:                  -0.612
REMARK UNBOUND:                -0.375
REMARK  Name = 
REMARK  5 active torsions:
REMARK  status: ('A' for Active; 'I' for Inactive)
REMARK    1  A    between atoms: N_1  and  C_2
REMARK    2  A    between atoms: C_2  and  C_3
REMARK    3  A    between atoms: C_6  and  C_7
REMARK    4  A    between atoms: C_7  and  N_8
REMARK    5  A    between atoms: C_13  and  C_14
REMARK                            x       y       z     vdW  Elec       q    Type
REMARK                         _______ _______ _______ _____ _____    ______ ____
ROOT
ATOM      1  N   UNL     1      48.252   7.729  13.812  0.00  0.00    +0.000 N 
ATOM      2  C   UNL     1      47.719   8.916  13.376  0.00  0.00    +0.000 A 
ATOM      3  C   UNL     1      46.471   8.659  12.865  0.00  0.00    +0.000 A 
ATOM      4  C   UNL     1      46.209   7.274  13.050  0.00  0.00    +0.000 A 
ATOM      5  C   UNL     1      45.116   6.444  12.718  0.00  0.00    +0.000 A 
ATOM      6  C   UNL     1      45.146   5.085  13.064  0.00  0.00    +0.000 A 
ATOM      7  C   UNL     1      46.241   4.575  13.773  0.00  0.00    +0.000 A 
ATOM      8  C   UNL     1      47.341   5.378  14.103  0.00  0.00    +0.000 A 
ATOM      9  C   UNL     1      47.313   6.722  13.704  0.00  0.00    +0.000 A 
ENDROOT
BRANCH   6  10
ATOM     10  C   UNL     1      44.057   4.134  12.691  0.00  0.00    +0.000 C 
ATOM     11  N   UNL     1      44.312   2.792  12.726  0.00  0.00    +0.000 N 
ATOM     12  O   UNL     1      42.938   4.532  12.377  0.00  0.00    +0.000 OA
ATOM     13  H   UNL     1      45.185   2.369  12.996  0.00  0.00    +0.000 HD
ATOM     14  H   UNL     1      43.539   2.179  12.503  0.00  0.00    +0.000 HD
ENDBRANCH   6  10
BRANCH   1  15
ATOM     15  C   UNL     1      49.616   7.583  14.295  0.00  0.00    +0.000 C 
BRANCH  15  19
ATOM     16  C   UNL     1      48.836   6.278  18.377  0.00  0.00    +0.000 C 
ATOM     17  C   UNL     1      50.238   6.020  17.807  0.00  0.00    +0.000 C 
ATOM     18  C   UNL     1      50.312   6.244  16.298  0.00  0.00    +0.000 C 
ATOM     19  C   UNL     1      49.762   7.609  15.837  0.00  0.00    +0.000 C 
ATOM     20  C   UNL     1      48.441   7.987  16.538  0.00  0.00    +0.000 C 
ATOM     21  C   UNL     1      48.447   7.723  18.041  0.00  0.00    +0.000 C 
BRANCH  16  22
ATOM     22  C   UNL     1      47.757   5.293  17.876  0.00  0.00    +0.000 C 
BRANCH  22  23
ATOM     23  N   UNL     1      46.546   5.317  18.686  0.00  0.00    +0.000 NA
ATOM     24  H   UNL     1      45.734   5.228  18.074  0.00  0.00    +0.000 HD
ATOM     25  H   UNL     1      46.456   6.227  19.138  0.00  0.00    +0.000 HD
ENDBRANCH  22  23
ENDBRANCH  16  22
ENDBRANCH  15  19
ENDBRANCH   1  15
TORSDOF 5
ENDMDL
MODEL 8
REMARK VINA RESULT:    -5.544      4.085      6.324
REMARK INTER + INTRA:          -7.378
REMARK INTER:                  -6.808
REMARK INTRA:                  -0.570
REMARK UNBOUND:                -0.375
REMARK  Name = 
REMARK  5 active torsions:
REMARK  status: ('A' for Active; 'I' for Inactive)
REMARK    1  A    between atoms: N_1  and  C_2
REMARK    2  A    between atoms: C_2  and  C_3
REMARK    3  A    between atoms: C_6  and  C_7
REMARK    4  A    between atoms: C_7  and  N_8
REMARK    5  A    between atoms: C_13  and  C_14
REMARK                            x       y       z     vdW  Elec       q    Type
REMARK                         _______ _______ _______ _____ _____    ______ ____
ROOT
ATOM      1  N   UNL     1      46.943   4.489  13.730  0.00  0.00    +0.000 N 
ATOM      2  C   UNL     1      47.132   4.373  15.084  0.00  0.00    +0.000 A 
ATOM      3  C   UNL     1      47.801   5.492  15.516  0.00  0.00    +0.000 A 
ATOM      4  C   UNL     1      47.973   6.349  14.395  0.00  0.00    +0.000 A 
ATOM      5  C   UNL     1      48.591   7.607  14.226  0.00  0.00    +0.000 A 
ATOM      6  C   UNL     1      48.575   8.224  12.967  0.00  0.00    +0.000 A 
ATOM      7  C   UNL     1      47.911   7.604  11.900  0.00  0.00    +0.000 A 
ATOM      8  C   UNL     1      47.302   6.351  12.042  0.00  0.00    +0.000 A 
ATOM      9  C   UNL     1      47.371   5.728  13.297  0.00  0.00    +0.000 A 
ENDROOT
BRANCH   6  10
ATOM     10  C   UNL     1      49.259   9.523  12.697  0.00  0.00    +0.000 C 
ATOM     11  N   UNL     1      49.300   9.994  11.414  0.00  0.00    +0.000 N 
ATOM     12  O   UNL     1      49.765  10.181  13.602  0.00  0.00    +0.000 OA
ATOM     13  H   UNL     1      48.893   9.543  10.612  0.00  0.00    +0.000 HD
ATOM     14  H   UNL     1      49.740  10.895  11.277  0.00  0.00    +0.000 HD
ENDBRANCH   6  10
BRANCH   1  15
ATOM     15  C   UNL     1      46.387   3.434  12.897  0.00  0.00    +0.000 C 
BRANCH  15  19
ATOM     16  C   UNL     1      43.012   5.711  11.347  0.00  0.00    +0.000 C 
ATOM     17  C   UNL     1      43.557   4.571  10.475  0.00  0.00    +0.000 C 
ATOM     18  C   UNL     1      44.901   4.040  10.970  0.00  0.00    +0.000 C 
ATOM     19  C   UNL     1      44.917   3.660  12.464  0.00  0.00    +0.000 C 
ATOM     20  C   UNL     1      44.205   4.701  13.352  0.00  0.00    +0.000 C 
ATOM     21  C   UNL     1      42.874   5.186  12.782  0.00  0.00    +0.000 C 
BRANCH  16  22
ATOM     22  C   UNL     1      43.868   6.996  11.318  0.00  0.00    +0.000 C 
BRANCH  22  23
ATOM     23  N   UNL     1      43.104   8.179  10.948  0.00  0.00    +0.000 NA
ATOM     24  H   UNL     1      43.720   8.841  10.475  0.00  0.00    +0.000 HD
ATOM     25  H   UNL     1      42.780   8.653  11.791  0.00  0.00    +0.000 HD
ENDBRANCH  22  23
ENDBRANCH  16  22
ENDBRANCH  15  19
ENDBRANCH   1  15
TORSDOF 5
ENDMDL
MODEL 9
REMARK VINA RESULT:    -5.307      3.614      6.053
REMARK INTER + INTRA:          -7.078
REMARK INTER:                  -6.589
REMARK INTRA:                  -0.489
REMARK UNBOUND:                -0.375
REMARK  Name = 
REMARK  5 active torsions:
REMARK  status: ('A' for Active; 'I' for Inactive)
REMARK    1  A    between atoms: N_1  and  C_2
REMARK    2  A    between atoms: C_2  and  C_3
REMARK    3  A    between atoms: C_6  and  C_7
REMARK    4  A    between atoms: C_7  and  N_8
REMARK    5  A    between atoms: C_13  and  C_14
REMARK                            x       y       z     vdW  Elec       q    Type
REMARK                         _______ _______ _______ _____ _____    ______ ____
ROOT
ATOM      1  N   UNL     1      48.056   7.123  12.609  0.00  0.00    +0.000 N 
ATOM      2  C   UNL     1      48.489   6.771  13.863  0.00  0.00    +0.000 A 
ATOM      3  C   UNL     1      47.662   5.783  14.335  0.00  0.00    +0.000 A 
ATOM      4  C   UNL     1      46.728   5.478  13.308  0.00  0.00    +0.000 A 
ATOM      5  C   UNL     1      45.646   4.575  13.222  0.00  0.00    +0.000 A 
ATOM      6  C   UNL     1      44.908   4.487  12.032  0.00  0.00    +0.000 A 
ATOM      7  C   UNL     1      45.277   5.268  10.929  0.00  0.00    +0.000 A 
ATOM      8  C   UNL     1      46.339   6.179  10.996  0.00  0.00    +0.000 A 
ATOM      9  C   UNL     1      47.034   6.286  12.210  0.00  0.00    +0.000 A 
ENDROOT
BRANCH   6  10
ATOM     10  C   UNL     1      43.714   3.602  11.888  0.00  0.00    +0.000 C 
ATOM     11  N   UNL     1      43.721   2.379  12.500  0.00  0.00    +0.000 N 
ATOM     12  O   UNL     1      42.726   3.957  11.251  0.00  0.00    +0.000 OA
ATOM     13  H   UNL     1      44.470   2.011  13.063  0.00  0.00    +0.000 HD
ATOM     14  H   UNL     1      42.880   1.824  12.409  0.00  0.00    +0.000 HD
ENDBRANCH   6  10
BRANCH   1  15
ATOM     15  C   UNL     1      48.605   8.232  11.845  0.00  0.00    +0.000 C 
BRANCH  15  19
ATOM     16  C   UNL     1      52.566   9.767  10.877  0.00  0.00    +0.000 C 
ATOM     17  C   UNL     1      51.815  10.430  12.040  0.00  0.00    +0.000 C 
ATOM     18  C   UNL     1      50.344  10.021  12.103  0.00  0.00    +0.000 C 
ATOM     19  C   UNL     1      50.113   8.496  12.082  0.00  0.00    +0.000 C 
ATOM     20  C   UNL     1      50.998   7.773  11.047  0.00  0.00    +0.000 C 
ATOM     21  C   UNL     1      52.450   8.246  11.043  0.00  0.00    +0.000 C 
BRANCH  16  22
ATOM     22  C   UNL     1      52.076  10.201   9.478  0.00  0.00    +0.000 C 
BRANCH  22  23
ATOM     23  N   UNL     1      52.840   9.595   8.396  0.00  0.00    +0.000 NA
ATOM     24  H   UNL     1      52.210   9.049   7.807  0.00  0.00    +0.000 HD
ATOM     25  H   UNL     1      53.509   8.929   8.781  0.00  0.00    +0.000 HD
ENDBRANCH  22  23
ENDBRANCH  16  22
ENDBRANCH  15  19
ENDBRANCH   1  15
TORSDOF 5
ENDMDL
