MODEL 1
REMARK VINA RESULT:    -8.193      0.000      0.000
REMARK INTER + INTRA:         -12.184
REMARK INTER:                 -11.067
REMARK INTRA:                  -1.117
REMARK UNBOUND:                -1.117
REMARK  Name = 
REMARK  6 active torsions:
REMARK  status: ('A' for Active; 'I' for Inactive)
REMARK    1  A    between atoms: C_2  and  C_25
REMARK    2  A    between atoms: N_3  and  C_4
REMARK    3  A    between atoms: C_4  and  C_5
REMARK    4  A    between atoms: C_8  and  C_9
REMARK    5  A    between atoms: C_9  and  N_10
REMARK    6  A    between atoms: C_11  and  C_13
REMARK                            x       y       z     vdW  Elec       q    Type
REMARK                         _______ _______ _______ _____ _____    ______ ____
ROOT
ATOM      1  C   UNL     1      44.813   5.761  10.901  0.00  0.00    +0.000 A 
ATOM      2  C   UNL     1      46.155   6.042  10.607  0.00  0.00    +0.000 A 
ATOM      3  C   UNL     1      46.914   6.865  11.448  0.00  0.00    +0.000 A 
ATOM      4  C   UNL     1      46.353   7.407  12.612  0.00  0.00    +0.000 A 
ATOM      5  C   UNL     1      45.009   7.136  12.899  0.00  0.00    +0.000 A 
ATOM      6  C   UNL     1      44.251   6.312  12.060  0.00  0.00    +0.000 A 
ENDROOT
BRANCH   1   7
ATOM      7  C   UNL     1      44.005   4.857  10.005  0.00  0.00    +0.000 C 
BRANCH   7  10
ATOM      8  O   UNL     1      45.035   2.256   9.842  0.00  0.00    +0.000 OA
ATOM      9  C   UNL     1      45.275   3.044   8.931  0.00  0.00    +0.000 C 
ATOM     10  N   UNL     1      44.811   4.338   8.926  0.00  0.00    +0.000 N 
ATOM     11  H   UNL     1      44.944   4.910   8.109  0.00  0.00    +0.000 HD
BRANCH   9  12
ATOM     12  C   UNL     1      46.064   2.673   7.773  0.00  0.00    +0.000 A 
ATOM     13  C   UNL     1      46.268   3.300   6.553  0.00  0.00    +0.000 A 
ATOM     14  C   UNL     1      47.154   2.501   5.789  0.00  0.00    +0.000 A 
ATOM     15  C   UNL     1      47.475   1.404   6.551  0.00  0.00    +0.000 A 
ATOM     16  N   UNL     1      46.815   1.515   7.746  0.00  0.00    +0.000 N 
ATOM     17  H   UNL     1      46.862   0.858   8.515  0.00  0.00    +0.000 HD
ENDBRANCH   9  12
ENDBRANCH   7  10
ENDBRANCH   1   7
BRANCH   4  18
ATOM     18  C   UNL     1      47.168   8.288  13.525  0.00  0.00    +0.000 C 
BRANCH  18  19
ATOM     19  N   UNL     1      47.609   7.573  14.696  0.00  0.00    +0.000 N 
ATOM     20  C   UNL     1      48.809   6.907  14.712  0.00  0.00    +0.000 C 
ATOM     21  O   UNL     1      49.582   6.938  13.758  0.00  0.00    +0.000 OA
ATOM     22  H   UNL     1      46.902   7.346  15.389  0.00  0.00    +0.000 HD
BRANCH  20  23
ATOM     23  C   UNL     1      49.153   6.198  15.953  0.00  0.00    +0.000 A 
ATOM     24  C   UNL     1      50.249   6.610  16.700  0.00  0.00    +0.000 A 
ATOM     25  S   UNL     1      50.475   5.715  18.134  0.00  0.00    +0.000 S 
ATOM     26  C   UNL     1      49.149   4.710  17.781  0.00  0.00    +0.000 A 
ATOM     27  N   UNL     1      48.801   3.691  18.613  0.00  0.00    +0.000 NA
ATOM     28  C   UNL     1      47.796   2.990  18.206  0.00  0.00    +0.000 A 
ATOM     29  N   UNL     1      47.104   3.218  17.045  0.00  0.00    +0.000 N 
ATOM     30  C   UNL     1      47.401   4.251  16.189  0.00  0.00    +0.000 A 
ATOM     31  O   UNL     1      46.736   4.451  15.178  0.00  0.00    +0.000 OA
ATOM     32  C   UNL     1      48.532   5.064  16.594  0.00  0.00    +0.000 A 
ATOM     33  H   UNL     1      46.320   2.636  16.787  0.00  0.00    +0.000 HD
ENDBRANCH  20  23
ENDBRANCH  18  19
ENDBRANCH   4  18
TORSDOF 6
ENDMDL
MODEL 2
REMARK VINA RESULT:    -7.352      4.641      9.491
REMARK INTER + INTRA:         -11.048
REMARK INTER:                 -10.280
REMARK INTRA:                  -0.768
REMARK UNBOUND:                -1.117
REMARK  Name = 
REMARK  6 active torsions:
REMARK  status: ('A' for Active; 'I' for Inactive)
REMARK    1  A    between atoms: C_2  and  C_25
REMARK    2  A    between atoms: N_3  and  C_4
REMARK    3  A    between atoms: C_4  and  C_5
REMARK    4  A    between atoms: C_8  and  C_9
REMARK    5  A    between atoms: C_9  and  N_10
REMARK    6  A    between atoms: C_11  and  C_13
REMARK                            x       y       z     vdW  Elec       q    Type
REMARK                         _______ _______ _______ _____ _____    ______ ____
ROOT
ATOM      1  C   UNL     1      51.545   2.956  17.725  0.00  0.00    +0.000 A 
ATOM      2  C   UNL     1      50.939   4.179  18.047  0.00  0.00    +0.000 A 
ATOM      3  C   UNL     1      49.572   4.381  17.823  0.00  0.00    +0.000 A 
ATOM      4  C   UNL     1      48.776   3.356  17.294  0.00  0.00    +0.000 A 
ATOM      5  C   UNL     1      49.384   2.138  16.962  0.00  0.00    +0.000 A 
ATOM      6  C   UNL     1      50.751   1.936  17.187  0.00  0.00    +0.000 A 
ENDROOT
BRANCH   1   7
ATOM      7  C   UNL     1      53.014   2.735  17.988  0.00  0.00    +0.000 C 
BRANCH   7  10
ATOM      8  O   UNL     1      54.595   0.785  16.742  0.00  0.00    +0.000 OA
ATOM      9  C   UNL     1      54.050   0.511  17.808  0.00  0.00    +0.000 C 
ATOM     10  N   UNL     1      53.257   1.404  18.489  0.00  0.00    +0.000 N 
ATOM     11  H   UNL     1      52.921   1.169  19.409  0.00  0.00    +0.000 HD
BRANCH   9  12
ATOM     12  C   UNL     1      54.203  -0.781  18.447  0.00  0.00    +0.000 A 
ATOM     13  C   UNL     1      55.326  -1.534  18.753  0.00  0.00    +0.000 A 
ATOM     14  C   UNL     1      54.900  -2.721  19.398  0.00  0.00    +0.000 A 
ATOM     15  C   UNL     1      53.528  -2.674  19.474  0.00  0.00    +0.000 A 
ATOM     16  N   UNL     1      53.116  -1.501  18.900  0.00  0.00    +0.000 N 
ATOM     17  H   UNL     1      52.157  -1.186  18.815  0.00  0.00    +0.000 HD
ENDBRANCH   9  12
ENDBRANCH   7  10
ENDBRANCH   1   7
BRANCH   4  18
ATOM     18  C   UNL     1      47.302   3.564  17.058  0.00  0.00    +0.000 C 
BRANCH  18  19
ATOM     19  N   UNL     1      47.064   4.561  16.045  0.00  0.00    +0.000 N 
ATOM     20  C   UNL     1      47.124   4.247  14.710  0.00  0.00    +0.000 C 
ATOM     21  O   UNL     1      47.323   3.099  14.321  0.00  0.00    +0.000 OA
ATOM     22  H   UNL     1      47.129   5.533  16.332  0.00  0.00    +0.000 HD
BRANCH  20  23
ATOM     23  C   UNL     1      46.879   5.343  13.763  0.00  0.00    +0.000 A 
ATOM     24  C   UNL     1      47.869   6.290  13.533  0.00  0.00    +0.000 A 
ATOM     25  S   UNL     1      47.440   7.460  12.369  0.00  0.00    +0.000 S 
ATOM     26  C   UNL     1      45.896   6.776  12.170  0.00  0.00    +0.000 A 
ATOM     27  N   UNL     1      44.992   7.324  11.313  0.00  0.00    +0.000 NA
ATOM     28  C   UNL     1      43.851   6.722  11.285  0.00  0.00    +0.000 A 
ATOM     29  N   UNL     1      43.531   5.619  12.033  0.00  0.00    +0.000 N 
ATOM     30  C   UNL     1      44.419   5.014  12.890  0.00  0.00    +0.000 A 
ATOM     31  O   UNL     1      44.115   4.004  13.515  0.00  0.00    +0.000 OA
ATOM     32  C   UNL     1      45.717   5.660  12.967  0.00  0.00    +0.000 A 
ATOM     33  H   UNL     1      42.620   5.189  11.960  0.00  0.00    +0.000 HD
ENDBRANCH  20  23
ENDBRANCH  18  19
ENDBRANCH   4  18
TORSDOF 6
ENDMDL
MODEL 3
REMARK VINA RESULT:    -7.129      1.386      1.551
REMARK INTER + INTRA:         -10.746
REMARK INTER:                  -9.710
REMARK INTRA:                  -1.036
REMARK UNBOUND:                -1.117
REMARK  Name = 
REMARK  6 active torsions:
REMARK  status: ('A' for Active; 'I' for Inactive)
REMARK    1  A    between atoms: C_2  and  C_25
REMARK    2  A    between atoms: N_3  and  C_4
REMARK    3  A    between atoms: C_4  and  C_5
REMARK    4  A    between atoms: C_8  and  C_9
REMARK    5  A    between atoms: C_9  and  N_10
REMARK    6  A    between atoms: C_11  and  C_13
REMARK                            x       y       z     vdW  Elec       q    Type
REMARK                         _______ _______ _______ _____ _____    ______ ____
ROOT
ATOM      1  C   UNL     1      44.830   5.935  11.304  0.00  0.00    +0.000 A 
ATOM      2  C   UNL     1      45.666   5.274  12.215  0.00  0.00    +0.000 A 
ATOM      3  C   UNL     1      46.484   5.997  13.092  0.00  0.00    +0.000 A 
ATOM      4  C   UNL     1      46.467   7.399  13.091  0.00  0.00    +0.000 A 
ATOM      5  C   UNL     1      45.640   8.059  12.173  0.00  0.00    +0.000 A 
ATOM      6  C   UNL     1      44.822   7.336  11.298  0.00  0.00    +0.000 A 
ENDROOT
BRANCH   1   7
ATOM      7  C   UNL     1      43.935   5.153  10.377  0.00  0.00    +0.000 C 
BRANCH   7  10
ATOM      8  O   UNL     1      44.660   2.450  10.220  0.00  0.00    +0.000 OA
ATOM      9  C   UNL     1      45.005   3.208   9.317  0.00  0.00    +0.000 C 
ATOM     10  N   UNL     1      44.695   4.547   9.310  0.00  0.00    +0.000 N 
ATOM     11  H   UNL     1      44.907   5.102   8.497  0.00  0.00    +0.000 HD
BRANCH   9  12
ATOM     12  C   UNL     1      45.765   2.751   8.170  0.00  0.00    +0.000 A 
ATOM     13  C   UNL     1      46.448   1.570   7.924  0.00  0.00    +0.000 A 
ATOM     14  C   UNL     1      47.004   1.644   6.623  0.00  0.00    +0.000 A 
ATOM     15  C   UNL     1      46.653   2.865   6.098  0.00  0.00    +0.000 A 
ATOM     16  N   UNL     1      45.906   3.526   7.036  0.00  0.00    +0.000 N 
ATOM     17  H   UNL     1      45.501   4.448   6.931  0.00  0.00    +0.000 HD
ENDBRANCH   9  12
ENDBRANCH   7  10
ENDBRANCH   1   7
BRANCH   4  18
ATOM     18  C   UNL     1      47.339   8.183  14.037  0.00  0.00    +0.000 C 
BRANCH  18  19
ATOM     19  N   UNL     1      48.300   7.336  14.697  0.00  0.00    +0.000 N 
ATOM     20  C   UNL     1      48.860   7.697  15.897  0.00  0.00    +0.000 C 
ATOM     21  O   UNL     1      48.527   8.721  16.488  0.00  0.00    +0.000 OA
ATOM     22  H   UNL     1      48.750   6.624  14.131  0.00  0.00    +0.000 HD
BRANCH  20  23
ATOM     23  C   UNL     1      49.840   6.765  16.474  0.00  0.00    +0.000 A 
ATOM     24  C   UNL     1      51.144   7.187  16.697  0.00  0.00    +0.000 A 
ATOM     25  S   UNL     1      52.134   6.000  17.419  0.00  0.00    +0.000 S 
ATOM     26  C   UNL     1      50.869   4.862  17.409  0.00  0.00    +0.000 A 
ATOM     27  N   UNL     1      51.061   3.599  17.878  0.00  0.00    +0.000 NA
ATOM     28  C   UNL     1      50.027   2.832  17.781  0.00  0.00    +0.000 A 
ATOM     29  N   UNL     1      48.817   3.214  17.262  0.00  0.00    +0.000 N 
ATOM     30  C   UNL     1      48.569   4.485  16.804  0.00  0.00    +0.000 A 
ATOM     31  O   UNL     1      47.463   4.806  16.382  0.00  0.00    +0.000 OA
ATOM     32  C   UNL     1      49.704   5.386  16.879  0.00  0.00    +0.000 A 
ATOM     33  H   UNL     1      48.043   2.567  17.221  0.00  0.00    +0.000 HD
ENDBRANCH  20  23
ENDBRANCH  18  19
ENDBRANCH   4  18
TORSDOF 6
ENDMDL
MODEL 4
REMARK VINA RESULT:    -6.975      2.122      2.428
REMARK INTER + INTRA:         -10.538
REMARK INTER:                  -9.696
REMARK INTRA:                  -0.841
REMARK UNBOUND:                -1.117
REMARK  Name = 
REMARK  6 active torsions:
REMARK  status: ('A' for Active; 'I' for Inactive)
REMARK    1  A    between atoms: C_2  and  C_25
REMARK    2  A    between atoms: N_3  and  C_4
REMARK    3  A    between atoms: C_4  and  C_5
REMARK    4  A    between atoms: C_8  and  C_9
REMARK    5  A    between atoms: C_9  and  N_10
REMARK    6  A    between atoms: C_11  and  C_13
REMARK                            x       y       z     vdW  Elec       q    Type
REMARK                         _______ _______ _______ _____ _____    ______ ____
ROOT
ATOM      1  C   UNL     1      45.778   5.402  11.859  0.00  0.00    +0.000 A 
ATOM      2  C   UNL     1      46.226   4.849  13.067  0.00  0.00    +0.000 A 
ATOM      3  C   UNL     1      47.108   5.555  13.893  0.00  0.00    +0.000 A 
ATOM      4  C   UNL     1      47.544   6.839  13.539  0.00  0.00    +0.000 A 
ATOM      5  C   UNL     1      47.106   7.386  12.327  0.00  0.00    +0.000 A 
ATOM      6  C   UNL     1      46.223   6.681  11.501  0.00  0.00    +0.000 A 
ENDROOT
BRANCH   1   7
ATOM      7  C   UNL     1      44.810   4.647  10.982  0.00  0.00    +0.000 C 
BRANCH   7  10
ATOM      8  O   UNL     1      44.074   2.329   9.590  0.00  0.00    +0.000 OA
ATOM      9  C   UNL     1      45.038   2.976   9.190  0.00  0.00    +0.000 C 
ATOM     10  N   UNL     1      45.471   4.125   9.809  0.00  0.00    +0.000 N 
ATOM     11  H   UNL     1      46.196   4.677   9.382  0.00  0.00    +0.000 HD
BRANCH   9  12
ATOM     12  C   UNL     1      45.801   2.589   8.021  0.00  0.00    +0.000 A 
ATOM     13  C   UNL     1      46.047   3.236   6.820  0.00  0.00    +0.000 A 
ATOM     14  C   UNL     1      46.879   2.404   6.030  0.00  0.00    +0.000 A 
ATOM     15  C   UNL     1      47.125   1.265   6.760  0.00  0.00    +0.000 A 
ATOM     16  N   UNL     1      46.474   1.384   7.958  0.00  0.00    +0.000 N 
ATOM     17  H   UNL     1      46.477   0.702   8.707  0.00  0.00    +0.000 HD
ENDBRANCH   9  12
ENDBRANCH   7  10
ENDBRANCH   1   7
BRANCH   4  18
ATOM     18  C   UNL     1      48.488   7.608  14.429  0.00  0.00    +0.000 C 
BRANCH  18  19
ATOM     19  N   UNL     1      48.235   7.344  15.823  0.00  0.00    +0.000 N 
ATOM     20  C   UNL     1      48.867   8.062  16.807  0.00  0.00    +0.000 C 
ATOM     21  O   UNL     1      49.626   8.992  16.548  0.00  0.00    +0.000 OA
ATOM     22  H   UNL     1      47.806   6.453  16.051  0.00  0.00    +0.000 HD
BRANCH  20  23
ATOM     23  C   UNL     1      48.546   7.700  18.196  0.00  0.00    +0.000 A 
ATOM     24  C   UNL     1      47.981   8.646  19.041  0.00  0.00    +0.000 A 
ATOM     25  S   UNL     1      47.624   8.047  20.597  0.00  0.00    +0.000 S 
ATOM     26  C   UNL     1      48.264   6.517  20.215  0.00  0.00    +0.000 A 
ATOM     27  N   UNL     1      48.290   5.518  21.138  0.00  0.00    +0.000 NA
ATOM     28  C   UNL     1      48.830   4.423  20.723  0.00  0.00    +0.000 A 
ATOM     29  N   UNL     1      49.344   4.232  19.466  0.00  0.00    +0.000 N 
ATOM     30  C   UNL     1      49.314   5.202  18.493  0.00  0.00    +0.000 A 
ATOM     31  O   UNL     1      49.746   4.986  17.365  0.00  0.00    +0.000 OA
ATOM     32  C   UNL     1      48.726   6.460  18.912  0.00  0.00    +0.000 A 
ATOM     33  H   UNL     1      49.748   3.346  19.200  0.00  0.00    +0.000 HD
ENDBRANCH  20  23
ENDBRANCH  18  19
ENDBRANCH   4  18
TORSDOF 6
ENDMDL
MODEL 5
REMARK VINA RESULT:    -6.835      2.045      2.847
REMARK INTER + INTRA:         -10.349
REMARK INTER:                  -9.467
REMARK INTRA:                  -0.882
REMARK UNBOUND:                -1.117
REMARK  Name = 
REMARK  6 active torsions:
REMARK  status: ('A' for Active; 'I' for Inactive)
REMARK    1  A    between atoms: C_2  and  C_25
REMARK    2  A    between atoms: N_3  and  C_4
REMARK    3  A    between atoms: C_4  and  C_5
REMARK    4  A    between atoms: C_8  and  C_9
REMARK    5  A    between atoms: C_9  and  N_10
REMARK    6  A    between atoms: C_11  and  C_13
REMARK                            x       y       z     vdW  Elec       q    Type
REMARK                         _______ _______ _______ _____ _____    ______ ____
ROOT
ATOM      1  C   UNL     1      44.971   6.010  11.271  0.00  0.00    +0.000 A 
ATOM      2  C   UNL     1      45.975   5.412  12.046  0.00  0.00    +0.000 A 
ATOM      3  C   UNL     1      46.763   6.179  12.912  0.00  0.00    +0.000 A 
ATOM      4  C   UNL     1      46.549   7.559  13.038  0.00  0.00    +0.000 A 
ATOM      5  C   UNL     1      45.553   8.157  12.255  0.00  0.00    +0.000 A 
ATOM      6  C   UNL     1      44.765   7.390  11.391  0.00  0.00    +0.000 A 
ENDROOT
BRANCH   1   7
ATOM      7  C   UNL     1      44.110   5.176  10.356  0.00  0.00    +0.000 C 
BRANCH   7  10
ATOM      8  O   UNL     1      44.594   2.437  10.018  0.00  0.00    +0.000 OA
ATOM      9  C   UNL     1      45.080   3.226   9.212  0.00  0.00    +0.000 C 
ATOM     10  N   UNL     1      44.895   4.585   9.298  0.00  0.00    +0.000 N 
ATOM     11  H   UNL     1      45.222   5.180   8.555  0.00  0.00    +0.000 HD
BRANCH   9  12
ATOM     12  C   UNL     1      45.886   2.790   8.089  0.00  0.00    +0.000 A 
ATOM     13  C   UNL     1      46.346   3.459   6.965  0.00  0.00    +0.000 A 
ATOM     14  C   UNL     1      47.113   2.551   6.194  0.00  0.00    +0.000 A 
ATOM     15  C   UNL     1      47.108   1.347   6.856  0.00  0.00    +0.000 A 
ATOM     16  N   UNL     1      46.367   1.499   7.998  0.00  0.00    +0.000 N 
ATOM     17  H   UNL     1      46.191   0.783   8.692  0.00  0.00    +0.000 HD
ENDBRANCH   9  12
ENDBRANCH   7  10
ENDBRANCH   1   7
BRANCH   4  18
ATOM     18  C   UNL     1      47.389   8.389  13.974  0.00  0.00    +0.000 C 
BRANCH  18  19
ATOM     19  N   UNL     1      48.294   7.570  14.741  0.00  0.00    +0.000 N 
ATOM     20  C   UNL     1      48.688   7.938  16.003  0.00  0.00    +0.000 C 
ATOM     21  O   UNL     1      48.246   8.942  16.556  0.00  0.00    +0.000 OA
ATOM     22  H   UNL     1      48.836   6.882  14.229  0.00  0.00    +0.000 HD
BRANCH  20  23
ATOM     23  C   UNL     1      49.625   7.037  16.690  0.00  0.00    +0.000 A 
ATOM     24  C   UNL     1      49.192   6.292  17.779  0.00  0.00    +0.000 A 
ATOM     25  S   UNL     1      50.388   5.262  18.424  0.00  0.00    +0.000 S 
ATOM     26  C   UNL     1      51.544   5.814  17.304  0.00  0.00    +0.000 A 
ATOM     27  N   UNL     1      52.819   5.340  17.324  0.00  0.00    +0.000 NA
ATOM     28  C   UNL     1      53.598   5.868  16.440  0.00  0.00    +0.000 A 
ATOM     29  N   UNL     1      53.216   6.825  15.534  0.00  0.00    +0.000 N 
ATOM     30  C   UNL     1      51.933   7.311  15.459  0.00  0.00    +0.000 A 
ATOM     31  O   UNL     1      51.614   8.137  14.610  0.00  0.00    +0.000 OA
ATOM     32  C   UNL     1      51.019   6.758  16.440  0.00  0.00    +0.000 A 
ATOM     33  H   UNL     1      53.873   7.193  14.862  0.00  0.00    +0.000 HD
ENDBRANCH  20  23
ENDBRANCH  18  19
ENDBRANCH   4  18
TORSDOF 6
ENDMDL
MODEL 6
REMARK VINA RESULT:    -6.773      2.651      3.254
REMARK INTER + INTRA:         -10.265
REMARK INTER:                  -9.529
REMARK INTRA:                  -0.736
REMARK UNBOUND:                -1.117
REMARK  Name = 
REMARK  6 active torsions:
REMARK  status: ('A' for Active; 'I' for Inactive)
REMARK    1  A    between atoms: C_2  and  C_25
REMARK    2  A    between atoms: N_3  and  C_4
REMARK    3  A    between atoms: C_4  and  C_5
REMARK    4  A    between atoms: C_8  and  C_9
REMARK    5  A    between atoms: C_9  and  N_10
REMARK    6  A    between atoms: C_11  and  C_13
REMARK                            x       y       z     vdW  Elec       q    Type
REMARK                         _______ _______ _______ _____ _____    ______ ____
ROOT
ATOM      1  C   UNL     1      45.469   4.888  11.309  0.00  0.00    +0.000 A 
ATOM      2  C   UNL     1      45.271   3.671  11.977  0.00  0.00    +0.000 A 
ATOM      3  C   UNL     1      45.815   3.455  13.248  0.00  0.00    +0.000 A 
ATOM      4  C   UNL     1      46.552   4.461  13.889  0.00  0.00    +0.000 A 
ATOM      5  C   UNL     1      46.760   5.672  13.217  0.00  0.00    +0.000 A 
ATOM      6  C   UNL     1      46.215   5.888  11.946  0.00  0.00    +0.000 A 
ENDROOT
BRANCH   1   7
ATOM      7  C   UNL     1      44.863   5.124   9.949  0.00  0.00    +0.000 C 
BRANCH   7  10
ATOM      8  O   UNL     1      44.478   2.607   8.778  0.00  0.00    +0.000 OA
ATOM      9  C   UNL     1      45.415   3.301   8.392  0.00  0.00    +0.000 C 
ATOM     10  N   UNL     1      45.680   4.547   8.908  0.00  0.00    +0.000 N 
ATOM     11  H   UNL     1      46.392   5.120   8.485  0.00  0.00    +0.000 HD
BRANCH   9  12
ATOM     12  C   UNL     1      46.322   2.867   7.348  0.00  0.00    +0.000 A 
ATOM     13  C   UNL     1      47.103   1.730   7.214  0.00  0.00    +0.000 A 
ATOM     14  C   UNL     1      47.788   1.806   5.976  0.00  0.00    +0.000 A 
ATOM     15  C   UNL     1      47.416   2.986   5.377  0.00  0.00    +0.000 A 
ATOM     16  N   UNL     1      46.531   3.619   6.209  0.00  0.00    +0.000 N 
ATOM     17  H   UNL     1      46.080   4.508   6.031  0.00  0.00    +0.000 HD
ENDBRANCH   9  12
ENDBRANCH   7  10
ENDBRANCH   1   7
BRANCH   4  18
ATOM     18  C   UNL     1      47.135   4.237  15.261  0.00  0.00    +0.000 C 
BRANCH  18  19
ATOM     19  N   UNL     1      47.550   5.477  15.869  0.00  0.00    +0.000 N 
ATOM     20  C   UNL     1      48.650   5.533  16.687  0.00  0.00    +0.000 C 
ATOM     21  O   UNL     1      49.360   4.552  16.891  0.00  0.00    +0.000 OA
ATOM     22  H   UNL     1      46.864   6.224  15.902  0.00  0.00    +0.000 HD
BRANCH  20  23
ATOM     23  C   UNL     1      48.974   6.845  17.265  0.00  0.00    +0.000 A 
ATOM     24  C   UNL     1      49.854   7.692  16.604  0.00  0.00    +0.000 A 
ATOM     25  S   UNL     1      50.078   9.192  17.384  0.00  0.00    +0.000 S 
ATOM     26  C   UNL     1      49.050   8.742  18.663  0.00  0.00    +0.000 A 
ATOM     27  N   UNL     1      48.822   9.585  19.706  0.00  0.00    +0.000 NA
ATOM     28  C   UNL     1      48.048   9.103  20.620  0.00  0.00    +0.000 A 
ATOM     29  N   UNL     1      47.478   7.857  20.584  0.00  0.00    +0.000 N 
ATOM     30  C   UNL     1      47.657   6.984  19.538  0.00  0.00    +0.000 A 
ATOM     31  O   UNL     1      47.100   5.892  19.518  0.00  0.00    +0.000 OA
ATOM     32  C   UNL     1      48.529   7.473  18.487  0.00  0.00    +0.000 A 
ATOM     33  H   UNL     1      46.874   7.542  21.329  0.00  0.00    +0.000 HD
ENDBRANCH  20  23
ENDBRANCH  18  19
ENDBRANCH   4  18
TORSDOF 6
ENDMDL
MODEL 7
REMARK VINA RESULT:    -6.738      3.167      8.542
REMARK INTER + INTRA:         -10.218
REMARK INTER:                  -9.289
REMARK INTRA:                  -0.929
REMARK UNBOUND:                -1.117
REMARK  Name = 
REMARK  6 active torsions:
REMARK  status: ('A' for Active; 'I' for Inactive)
REMARK    1  A    between atoms: C_2  and  C_25
REMARK    2  A    between atoms: N_3  and  C_4
REMARK    3  A    between atoms: C_4  and  C_5
REMARK    4  A    between atoms: C_8  and  C_9
REMARK    5  A    between atoms: C_9  and  N_10
REMARK    6  A    between atoms: C_11  and  C_13
REMARK                            x       y       z     vdW  Elec       q    Type
REMARK                         _______ _______ _______ _____ _____    ______ ____
ROOT
ATOM      1  C   UNL     1      50.022   7.025  15.689  0.00  0.00    +0.000 A 
ATOM      2  C   UNL     1      50.478   7.846  14.648  0.00  0.00    +0.000 A 
ATOM      3  C   UNL     1      49.719   8.014  13.484  0.00  0.00    +0.000 A 
ATOM      4  C   UNL     1      48.476   7.381  13.344  0.00  0.00    +0.000 A 
ATOM      5  C   UNL     1      48.026   6.552  14.379  0.00  0.00    +0.000 A 
ATOM      6  C   UNL     1      48.784   6.385  15.544  0.00  0.00    +0.000 A 
ENDROOT
BRANCH   1   7
ATOM      7  C   UNL     1      50.831   6.864  16.950  0.00  0.00    +0.000 C 
BRANCH   7  10
ATOM      8  O   UNL     1      49.857   4.761  18.525  0.00  0.00    +0.000 OA
ATOM      9  C   UNL     1      50.857   4.570  17.838  0.00  0.00    +0.000 C 
ATOM     10  N   UNL     1      51.404   5.542  17.035  0.00  0.00    +0.000 N 
ATOM     11  H   UNL     1      52.157   5.305  16.411  0.00  0.00    +0.000 HD
BRANCH   9  12
ATOM     12  C   UNL     1      51.543   3.294  17.806  0.00  0.00    +0.000 A 
ATOM     13  C   UNL     1      52.882   2.959  17.939  0.00  0.00    +0.000 A 
ATOM     14  C   UNL     1      52.998   1.551  17.846  0.00  0.00    +0.000 A 
ATOM     15  C   UNL     1      51.732   1.049  17.657  0.00  0.00    +0.000 A 
ATOM     16  N   UNL     1      50.860   2.106  17.636  0.00  0.00    +0.000 N 
ATOM     17  H   UNL     1      49.856   2.046  17.519  0.00  0.00    +0.000 HD
ENDBRANCH   9  12
ENDBRANCH   7  10
ENDBRANCH   1   7
BRANCH   4  18
ATOM     18  C   UNL     1      47.651   7.564  12.096  0.00  0.00    +0.000 C 
BRANCH  18  19
ATOM     19  N   UNL     1      46.934   6.361  11.755  0.00  0.00    +0.000 N 
ATOM     20  C   UNL     1      45.563   6.311  11.813  0.00  0.00    +0.000 C 
ATOM     21  O   UNL     1      44.888   7.296  12.099  0.00  0.00    +0.000 OA
ATOM     22  H   UNL     1      47.465   5.496  11.744  0.00  0.00    +0.000 HD
BRANCH  20  23
ATOM     23  C   UNL     1      44.935   5.030  11.458  0.00  0.00    +0.000 A 
ATOM     24  C   UNL     1      44.175   4.350  12.401  0.00  0.00    +0.000 A 
ATOM     25  S   UNL     1      43.477   2.911  11.809  0.00  0.00    +0.000 S 
ATOM     26  C   UNL     1      44.210   3.117  10.288  0.00  0.00    +0.000 A 
ATOM     27  N   UNL     1      44.036   2.200   9.298  0.00  0.00    +0.000 NA
ATOM     28  C   UNL     1      44.675   2.465   8.208  0.00  0.00    +0.000 A 
ATOM     29  N   UNL     1      45.468   3.567   8.016  0.00  0.00    +0.000 N 
ATOM     30  C   UNL     1      45.650   4.533   8.976  0.00  0.00    +0.000 A 
ATOM     31  O   UNL     1      46.334   5.526   8.758  0.00  0.00    +0.000 OA
ATOM     32  C   UNL     1      44.962   4.276  10.227  0.00  0.00    +0.000 A 
ATOM     33  H   UNL     1      45.936   3.721   7.134  0.00  0.00    +0.000 HD
ENDBRANCH  20  23
ENDBRANCH  18  19
ENDBRANCH   4  18
TORSDOF 6
ENDMDL
MODEL 8
REMARK VINA RESULT:    -6.725      3.769      8.315
REMARK INTER + INTRA:         -10.201
REMARK INTER:                  -9.299
REMARK INTRA:                  -0.903
REMARK UNBOUND:                -1.117
REMARK  Name = 
REMARK  6 active torsions:
REMARK  status: ('A' for Active; 'I' for Inactive)
REMARK    1  A    between atoms: C_2  and  C_25
REMARK    2  A    between atoms: N_3  and  C_4
REMARK    3  A    between atoms: C_4  and  C_5
REMARK    4  A    between atoms: C_8  and  C_9
REMARK    5  A    between atoms: C_9  and  N_10
REMARK    6  A    between atoms: C_11  and  C_13
REMARK                            x       y       z     vdW  Elec       q    Type
REMARK                         _______ _______ _______ _____ _____    ______ ____
ROOT
ATOM      1  C   UNL     1      49.909   4.581  17.809  0.00  0.00    +0.000 A 
ATOM      2  C   UNL     1      48.607   4.590  17.288  0.00  0.00    +0.000 A 
ATOM      3  C   UNL     1      48.226   5.537  16.331  0.00  0.00    +0.000 A 
ATOM      4  C   UNL     1      49.145   6.483  15.857  0.00  0.00    +0.000 A 
ATOM      5  C   UNL     1      50.442   6.481  16.386  0.00  0.00    +0.000 A 
ATOM      6  C   UNL     1      50.824   5.533  17.342  0.00  0.00    +0.000 A 
ENDROOT
BRANCH   1   7
ATOM      7  C   UNL     1      50.322   3.545  18.824  0.00  0.00    +0.000 C 
BRANCH   7  10
ATOM      8  O   UNL     1      50.690   1.363  17.104  0.00  0.00    +0.000 OA
ATOM      9  C   UNL     1      51.677   1.881  17.621  0.00  0.00    +0.000 C 
ATOM     10  N   UNL     1      51.592   2.954  18.476  0.00  0.00    +0.000 N 
ATOM     11  H   UNL     1      52.434   3.409  18.788  0.00  0.00    +0.000 HD
BRANCH   9  12
ATOM     12  C   UNL     1      53.023   1.409  17.365  0.00  0.00    +0.000 A 
ATOM     13  C   UNL     1      54.247   2.061  17.358  0.00  0.00    +0.000 A 
ATOM     14  C   UNL     1      55.254   1.109  17.062  0.00  0.00    +0.000 A 
ATOM     15  C   UNL     1      54.630  -0.104  16.893  0.00  0.00    +0.000 A 
ATOM     16  N   UNL     1      53.286   0.084  17.079  0.00  0.00    +0.000 N 
ATOM     17  H   UNL     1      52.573  -0.632  17.024  0.00  0.00    +0.000 HD
ENDBRANCH   9  12
ENDBRANCH   7  10
ENDBRANCH   1   7
BRANCH   4  18
ATOM     18  C   UNL     1      48.742   7.501  14.821  0.00  0.00    +0.000 C 
BRANCH  18  19
ATOM     19  N   UNL     1      47.489   7.156  14.198  0.00  0.00    +0.000 N 
ATOM     20  C   UNL     1      47.449   6.394  13.057  0.00  0.00    +0.000 C 
ATOM     21  O   UNL     1      48.466   5.926  12.551  0.00  0.00    +0.000 OA
ATOM     22  H   UNL     1      46.679   7.710  14.457  0.00  0.00    +0.000 HD
BRANCH  20  23
ATOM     23  C   UNL     1      46.118   6.114  12.498  0.00  0.00    +0.000 A 
ATOM     24  C   UNL     1      45.360   7.151  11.972  0.00  0.00    +0.000 A 
ATOM     25  S   UNL     1      43.867   6.645  11.319  0.00  0.00    +0.000 S 
ATOM     26  C   UNL     1      44.158   5.030  11.766  0.00  0.00    +0.000 A 
ATOM     27  N   UNL     1      43.239   4.058  11.515  0.00  0.00    +0.000 NA
ATOM     28  C   UNL     1      43.576   2.885  11.935  0.00  0.00    +0.000 A 
ATOM     29  N   UNL     1      44.749   2.594  12.582  0.00  0.00    +0.000 N 
ATOM     30  C   UNL     1      45.717   3.536  12.832  0.00  0.00    +0.000 A 
ATOM     31  O   UNL     1      46.774   3.234  13.376  0.00  0.00    +0.000 OA
ATOM     32  C   UNL     1      45.384   4.876  12.388  0.00  0.00    +0.000 A 
ATOM     33  H   UNL     1      44.956   1.652  12.879  0.00  0.00    +0.000 HD
ENDBRANCH  20  23
ENDBRANCH  18  19
ENDBRANCH   4  18
TORSDOF 6
ENDMDL
MODEL 9
REMARK VINA RESULT:    -6.525      4.707      7.328
REMARK INTER + INTRA:          -9.930
REMARK INTER:                  -9.052
REMARK INTRA:                  -0.879
REMARK UNBOUND:                -1.117
REMARK  Name = 
REMARK  6 active torsions:
REMARK  status: ('A' for Active; 'I' for Inactive)
REMARK    1  A    between atoms: C_2  and  C_25
REMARK    2  A    between atoms: N_3  and  C_4
REMARK    3  A    between atoms: C_4  and  C_5
REMARK    4  A    between atoms: C_8  and  C_9
REMARK    5  A    between atoms: C_9  and  N_10
REMARK    6  A    between atoms: C_11  and  C_13
REMARK                            x       y       z     vdW  Elec       q    Type
REMARK                         _______ _______ _______ _____ _____    ______ ____
ROOT
ATOM      1  C   UNL     1      50.399   8.810  11.460  0.00  0.00    +0.000 A 
ATOM      2  C   UNL     1      50.006   7.529  11.871  0.00  0.00    +0.000 A 
ATOM      3  C   UNL     1      48.715   7.299  12.361  0.00  0.00    +0.000 A 
ATOM      4  C   UNL     1      47.782   8.343  12.431  0.00  0.00    +0.000 A 
ATOM      5  C   UNL     1      48.179   9.625  12.031  0.00  0.00    +0.000 A 
ATOM      6  C   UNL     1      49.469   9.854  11.539  0.00  0.00    +0.000 A 
ENDROOT
BRANCH   1   7
ATOM      7  C   UNL     1      51.784   9.049  10.912  0.00  0.00    +0.000 C 
BRANCH   7  10
ATOM      8  O   UNL     1      52.870   9.048   8.328  0.00  0.00    +0.000 OA
ATOM      9  C   UNL     1      52.788   7.983   8.935  0.00  0.00    +0.000 C 
ATOM     10  N   UNL     1      52.271   7.888  10.205  0.00  0.00    +0.000 N 
ATOM     11  H   UNL     1      52.324   7.014  10.700  0.00  0.00    +0.000 HD
BRANCH   9  12
ATOM     12  C   UNL     1      53.242   6.730   8.366  0.00  0.00    +0.000 A 
ATOM     13  C   UNL     1      54.292   5.888   8.699  0.00  0.00    +0.000 A 
ATOM     14  C   UNL     1      54.267   4.779   7.818  0.00  0.00    +0.000 A 
ATOM     15  C   UNL     1      53.207   4.962   6.963  0.00  0.00    +0.000 A 
ATOM     16  N   UNL     1      52.593   6.139   7.300  0.00  0.00    +0.000 N 
ATOM     17  H   UNL     1      51.776   6.534   6.850  0.00  0.00    +0.000 HD
ENDBRANCH   9  12
ENDBRANCH   7  10
ENDBRANCH   1   7
BRANCH   4  18
ATOM     18  C   UNL     1      46.388   8.100  12.951  0.00  0.00    +0.000 C 
BRANCH  18  19
ATOM     19  N   UNL     1      45.925   6.774  12.628  0.00  0.00    +0.000 N 
ATOM     20  C   UNL     1      44.947   6.573  11.687  0.00  0.00    +0.000 C 
ATOM     21  O   UNL     1      44.467   7.500  11.040  0.00  0.00    +0.000 OA
ATOM     22  H   UNL     1      46.134   6.039  13.297  0.00  0.00    +0.000 HD
BRANCH  20  23
ATOM     23  C   UNL     1      44.541   5.181  11.446  0.00  0.00    +0.000 A 
ATOM     24  C   UNL     1      43.817   4.497  12.414  0.00  0.00    +0.000 A 
ATOM     25  S   UNL     1      43.382   2.913  11.954  0.00  0.00    +0.000 S 
ATOM     26  C   UNL     1      44.193   3.066  10.466  0.00  0.00    +0.000 A 
ATOM     27  N   UNL     1      44.231   2.033   9.580  0.00  0.00    +0.000 NA
ATOM     28  C   UNL     1      44.906   2.275   8.507  0.00  0.00    +0.000 A 
ATOM     29  N   UNL     1      45.544   3.458   8.236  0.00  0.00    +0.000 N 
ATOM     30  C   UNL     1      45.509   4.537   9.087  0.00  0.00    +0.000 A 
ATOM     31  O   UNL     1      46.057   5.595   8.796  0.00  0.00    +0.000 OA
ATOM     32  C   UNL     1      44.771   4.313  10.316  0.00  0.00    +0.000 A 
ATOM     33  H   UNL     1      46.051   3.587   7.373  0.00  0.00    +0.000 HD
ENDBRANCH  20  23
ENDBRANCH  18  19
ENDBRANCH   4  18
TORSDOF 6
ENDMDL
