MODEL 1
REMARK VINA RESULT:    -7.057      0.000      0.000
REMARK INTER + INTRA:         -10.896
REMARK INTER:                  -9.532
REMARK INTRA:                  -1.364
REMARK UNBOUND:                -1.364
REMARK  Name = 
REMARK  7 active torsions:
REMARK  status: ('A' for Active; 'I' for Inactive)
REMARK    1  A    between atoms: C_1  and  C_2
REMARK    2  A    between atoms: C_2  and  N_3
REMARK    3  A    between atoms: C_2  and  C_16
REMARK    4  A    between atoms: C_4  and  C_6
REMARK    5  A    between atoms: C_19  and  C_20
REMARK    6  A    between atoms: C_20  and  N_21
REMARK    7  A    between atoms: C_22  and  C_24
REMARK                            x       y       z     vdW  Elec       q    Type
REMARK                         _______ _______ _______ _____ _____    ______ ____
ROOT
ATOM      1  C   UNL     1      49.413   8.577  11.415  0.00  0.00    +0.000 C 
ATOM      2  C   UNL     1      48.088   8.241  12.114  0.00  0.00    +0.000 C 
ENDROOT
BRANCH   2   3
ATOM      3  C   UNL     1      48.319   8.022  13.603  0.00  0.00    +0.000 A 
ATOM      4  C   UNL     1      48.572   6.736  14.107  0.00  0.00    +0.000 A 
ATOM      5  C   UNL     1      48.716   6.518  15.484  0.00  0.00    +0.000 A 
ATOM      6  C   UNL     1      48.604   7.583  16.389  0.00  0.00    +0.000 A 
ATOM      7  C   UNL     1      48.405   8.874  15.885  0.00  0.00    +0.000 A 
ATOM      8  C   UNL     1      48.267   9.091  14.511  0.00  0.00    +0.000 A 
BRANCH   6   9
ATOM      9  C   UNL     1      48.645   7.354  17.878  0.00  0.00    +0.000 C 
BRANCH   9  10
ATOM     10  N   UNL     1      48.294   6.006  18.269  0.00  0.00    +0.000 N 
ATOM     11  C   UNL     1      49.297   5.070  18.450  0.00  0.00    +0.000 C 
ATOM     12  O   UNL     1      50.484   5.364  18.336  0.00  0.00    +0.000 OA
ATOM     13  H   UNL     1      47.321   5.734  18.320  0.00  0.00    +0.000 HD
BRANCH  11  14
ATOM     14  C   UNL     1      48.804   3.632  18.742  0.00  0.00    +0.000 C 
ATOM     15  C   UNL     1      47.570   3.267  17.928  0.00  0.00    +0.000 C 
ATOM     16  C   UNL     1      48.149   2.897  16.572  0.00  0.00    +0.000 C 
ATOM     17  C   UNL     1      49.533   2.347  16.888  0.00  0.00    +0.000 C 
ATOM     18  N   UNL     1      49.775   2.604  18.312  0.00  0.00    +0.000 NA
ATOM     19  H   UNL     1      50.738   2.884  18.477  0.00  0.00    +0.000 HD
ENDBRANCH  11  14
ENDBRANCH   9  10
ENDBRANCH   6   9
ENDBRANCH   2   3
BRANCH   2  20
ATOM     20  N   UNL     1      47.442   7.072  11.540  0.00  0.00    +0.000 N 
ATOM     21  C   UNL     1      46.078   6.983  11.389  0.00  0.00    +0.000 C 
ATOM     22  O   UNL     1      45.316   7.895  11.686  0.00  0.00    +0.000 OA
ATOM     23  H   UNL     1      47.966   6.204  11.600  0.00  0.00    +0.000 HD
BRANCH  21  24
ATOM     24  C   UNL     1      45.574   5.750  10.782  0.00  0.00    +0.000 A 
ATOM     25  C   UNL     1      45.779   5.516   9.428  0.00  0.00    +0.000 A 
ATOM     26  S   UNL     1      45.117   4.041   8.884  0.00  0.00    +0.000 S 
ATOM     27  C   UNL     1      44.498   3.689  10.431  0.00  0.00    +0.000 A 
ATOM     28  N   UNL     1      43.765   2.566  10.654  0.00  0.00    +0.000 NA
ATOM     29  C   UNL     1      43.332   2.444  11.865  0.00  0.00    +0.000 A 
ATOM     30  N   UNL     1      43.582   3.337  12.877  0.00  0.00    +0.000 N 
ATOM     31  C   UNL     1      44.355   4.460  12.710  0.00  0.00    +0.000 A 
ATOM     32  O   UNL     1      44.626   5.199  13.647  0.00  0.00    +0.000 OA
ATOM     33  C   UNL     1      44.830   4.661  11.354  0.00  0.00    +0.000 A 
ATOM     34  H   UNL     1      43.233   3.169  13.811  0.00  0.00    +0.000 HD
ENDBRANCH  21  24
ENDBRANCH   2  20
TORSDOF 6
ENDMDL
MODEL 2
REMARK VINA RESULT:    -6.929      1.521      2.324
REMARK INTER + INTRA:         -10.724
REMARK INTER:                  -9.399
REMARK INTRA:                  -1.325
REMARK UNBOUND:                -1.364
REMARK  Name = 
REMARK  7 active torsions:
REMARK  status: ('A' for Active; 'I' for Inactive)
REMARK    1  A    between atoms: C_1  and  C_2
REMARK    2  A    between atoms: C_2  and  N_3
REMARK    3  A    between atoms: C_2  and  C_16
REMARK    4  A    between atoms: C_4  and  C_6
REMARK    5  A    between atoms: C_19  and  C_20
REMARK    6  A    between atoms: C_20  and  N_21
REMARK    7  A    between atoms: C_22  and  C_24
REMARK                            x       y       z     vdW  Elec       q    Type
REMARK                         _______ _______ _______ _____ _____    ______ ____
ROOT
ATOM      1  C   UNL     1      48.875   7.781  11.362  0.00  0.00    +0.000 C 
ATOM      2  C   UNL     1      47.600   7.691  12.213  0.00  0.00    +0.000 C 
ENDROOT
BRANCH   2   3
ATOM      3  C   UNL     1      47.948   7.769  13.694  0.00  0.00    +0.000 A 
ATOM      4  C   UNL     1      47.923   8.998  14.371  0.00  0.00    +0.000 A 
ATOM      5  C   UNL     1      48.311   9.086  15.716  0.00  0.00    +0.000 A 
ATOM      6  C   UNL     1      48.736   7.945  16.411  0.00  0.00    +0.000 A 
ATOM      7  C   UNL     1      48.710   6.710  15.752  0.00  0.00    +0.000 A 
ATOM      8  C   UNL     1      48.319   6.622  14.412  0.00  0.00    +0.000 A 
BRANCH   6   9
ATOM      9  C   UNL     1      49.260   8.036  17.821  0.00  0.00    +0.000 C 
BRANCH   9  10
ATOM     10  N   UNL     1      49.257   6.773  18.525  0.00  0.00    +0.000 N 
ATOM     11  C   UNL     1      50.446   6.083  18.684  0.00  0.00    +0.000 C 
ATOM     12  O   UNL     1      51.515   6.538  18.288  0.00  0.00    +0.000 OA
ATOM     13  H   UNL     1      48.380   6.361  18.816  0.00  0.00    +0.000 HD
BRANCH  11  14
ATOM     14  C   UNL     1      50.309   4.687  19.339  0.00  0.00    +0.000 C 
ATOM     15  C   UNL     1      48.997   4.005  18.976  0.00  0.00    +0.000 C 
ATOM     16  C   UNL     1      49.274   3.437  17.594  0.00  0.00    +0.000 C 
ATOM     17  C   UNL     1      50.769   3.147  17.596  0.00  0.00    +0.000 C 
ATOM     18  N   UNL     1      51.309   3.725  18.832  0.00  0.00    +0.000 NA
ATOM     19  H   UNL     1      52.216   4.154  18.670  0.00  0.00    +0.000 HD
ENDBRANCH  11  14
ENDBRANCH   9  10
ENDBRANCH   6   9
ENDBRANCH   2   3
BRANCH   2  20
ATOM     20  N   UNL     1      46.844   6.478  11.949  0.00  0.00    +0.000 N 
ATOM     21  C   UNL     1      45.479   6.479  11.791  0.00  0.00    +0.000 C 
ATOM     22  O   UNL     1      44.808   7.504  11.818  0.00  0.00    +0.000 OA
ATOM     23  H   UNL     1      47.282   5.612  12.248  0.00  0.00    +0.000 HD
BRANCH  21  24
ATOM     24  C   UNL     1      44.859   5.181  11.516  0.00  0.00    +0.000 A 
ATOM     25  C   UNL     1      44.101   4.558  12.499  0.00  0.00    +0.000 A 
ATOM     26  S   UNL     1      43.467   3.051  12.015  0.00  0.00    +0.000 S 
ATOM     27  C   UNL     1      44.219   3.164  10.492  0.00  0.00    +0.000 A 
ATOM     28  N   UNL     1      44.117   2.158   9.582  0.00  0.00    +0.000 NA
ATOM     29  C   UNL     1      44.766   2.365   8.485  0.00  0.00    +0.000 A 
ATOM     30  N   UNL     1      45.493   3.495   8.208  0.00  0.00    +0.000 N 
ATOM     31  C   UNL     1      45.586   4.555   9.077  0.00  0.00    +0.000 A 
ATOM     32  O   UNL     1      46.177   5.584   8.774  0.00  0.00    +0.000 OA
ATOM     33  C   UNL     1      44.907   4.352  10.342  0.00  0.00    +0.000 A 
ATOM     34  H   UNL     1      45.957   3.605   7.317  0.00  0.00    +0.000 HD
ENDBRANCH  21  24
ENDBRANCH   2  20
TORSDOF 6
ENDMDL
MODEL 3
REMARK VINA RESULT:    -6.829      3.584      8.729
REMARK INTER + INTRA:         -10.588
REMARK INTER:                  -9.330
REMARK INTRA:                  -1.258
REMARK UNBOUND:                -1.364
REMARK  Name = 
REMARK  7 active torsions:
REMARK  status: ('A' for Active; 'I' for Inactive)
REMARK    1  A    between atoms: C_1  and  C_2
REMARK    2  A    between atoms: C_2  and  N_3
REMARK    3  A    between atoms: C_2  and  C_16
REMARK    4  A    between atoms: C_4  and  C_6
REMARK    5  A    between atoms: C_19  and  C_20
REMARK    6  A    between atoms: C_20  and  N_21
REMARK    7  A    between atoms: C_22  and  C_24
REMARK                            x       y       z     vdW  Elec       q    Type
REMARK                         _______ _______ _______ _____ _____    ______ ____
ROOT
ATOM      1  C   UNL     1      47.535   2.997  17.576  0.00  0.00    +0.000 C 
ATOM      2  C   UNL     1      48.421   4.233  17.362  0.00  0.00    +0.000 C 
ENDROOT
BRANCH   2   3
ATOM      3  C   UNL     1      48.068   4.912  16.045  0.00  0.00    +0.000 A 
ATOM      4  C   UNL     1      47.170   4.311  15.148  0.00  0.00    +0.000 A 
ATOM      5  C   UNL     1      46.897   4.897  13.904  0.00  0.00    +0.000 A 
ATOM      6  C   UNL     1      47.519   6.096  13.529  0.00  0.00    +0.000 A 
ATOM      7  C   UNL     1      48.373   6.724  14.443  0.00  0.00    +0.000 A 
ATOM      8  C   UNL     1      48.642   6.142  15.686  0.00  0.00    +0.000 A 
BRANCH   6   9
ATOM      9  C   UNL     1      47.323   6.684  12.155  0.00  0.00    +0.000 C 
BRANCH   9  10
ATOM     10  N   UNL     1      46.131   6.214  11.486  0.00  0.00    +0.000 N 
ATOM     11  C   UNL     1      44.938   6.892  11.669  0.00  0.00    +0.000 C 
ATOM     12  O   UNL     1      44.874   7.914  12.347  0.00  0.00    +0.000 OA
ATOM     13  H   UNL     1      46.155   5.348  10.963  0.00  0.00    +0.000 HD
BRANCH  11  14
ATOM     14  C   UNL     1      43.703   6.232  11.011  0.00  0.00    +0.000 C 
ATOM     15  C   UNL     1      43.930   4.759  10.702  0.00  0.00    +0.000 C 
ATOM     16  C   UNL     1      43.695   4.086  12.045  0.00  0.00    +0.000 C 
ATOM     17  C   UNL     1      42.681   4.980  12.745  0.00  0.00    +0.000 C 
ATOM     18  N   UNL     1      42.538   6.183  11.918  0.00  0.00    +0.000 NA
ATOM     19  H   UNL     1      42.457   7.017  12.494  0.00  0.00    +0.000 HD
ENDBRANCH  11  14
ENDBRANCH   9  10
ENDBRANCH   6   9
ENDBRANCH   2   3
BRANCH   2  20
ATOM     20  N   UNL     1      49.837   3.908  17.383  0.00  0.00    +0.000 N 
ATOM     21  C   UNL     1      50.632   4.143  18.480  0.00  0.00    +0.000 C 
ATOM     22  O   UNL     1      50.196   4.601  19.529  0.00  0.00    +0.000 OA
ATOM     23  H   UNL     1      50.292   3.857  16.475  0.00  0.00    +0.000 HD
BRANCH  21  24
ATOM     24  C   UNL     1      52.037   3.749  18.356  0.00  0.00    +0.000 A 
ATOM     25  C   UNL     1      53.037   4.666  18.651  0.00  0.00    +0.000 A 
ATOM     26  S   UNL     1      54.612   4.046  18.441  0.00  0.00    +0.000 S 
ATOM     27  C   UNL     1      54.007   2.547  17.908  0.00  0.00    +0.000 A 
ATOM     28  N   UNL     1      54.846   1.551  17.514  0.00  0.00    +0.000 NA
ATOM     29  C   UNL     1      54.248   0.483  17.103  0.00  0.00    +0.000 A 
ATOM     30  N   UNL     1      52.887   0.313  17.069  0.00  0.00    +0.000 N 
ATOM     31  C   UNL     1      52.003   1.272  17.501  0.00  0.00    +0.000 A 
ATOM     32  O   UNL     1      50.796   1.067  17.532  0.00  0.00    +0.000 OA
ATOM     33  C   UNL     1      52.627   2.508  17.933  0.00  0.00    +0.000 A 
ATOM     34  H   UNL     1      52.483  -0.560  16.760  0.00  0.00    +0.000 HD
ENDBRANCH  21  24
ENDBRANCH   2  20
TORSDOF 6
ENDMDL
MODEL 4
REMARK VINA RESULT:    -6.568      2.970      7.284
REMARK INTER + INTRA:         -10.236
REMARK INTER:                  -8.739
REMARK INTRA:                  -1.497
REMARK UNBOUND:                -1.364
REMARK  Name = 
REMARK  7 active torsions:
REMARK  status: ('A' for Active; 'I' for Inactive)
REMARK    1  A    between atoms: C_1  and  C_2
REMARK    2  A    between atoms: C_2  and  N_3
REMARK    3  A    between atoms: C_2  and  C_16
REMARK    4  A    between atoms: C_4  and  C_6
REMARK    5  A    between atoms: C_19  and  C_20
REMARK    6  A    between atoms: C_20  and  N_21
REMARK    7  A    between atoms: C_22  and  C_24
REMARK                            x       y       z     vdW  Elec       q    Type
REMARK                         _______ _______ _______ _____ _____    ______ ____
ROOT
ATOM      1  C   UNL     1      49.642  10.088  14.449  0.00  0.00    +0.000 C 
ATOM      2  C   UNL     1      49.477   8.602  14.099  0.00  0.00    +0.000 C 
ENDROOT
BRANCH   2   3
ATOM      3  C   UNL     1      48.218   8.392  13.268  0.00  0.00    +0.000 A 
ATOM      4  C   UNL     1      47.173   9.329  13.305  0.00  0.00    +0.000 A 
ATOM      5  C   UNL     1      45.983   9.106  12.598  0.00  0.00    +0.000 A 
ATOM      6  C   UNL     1      45.811   7.939  11.842  0.00  0.00    +0.000 A 
ATOM      7  C   UNL     1      46.872   7.029  11.761  0.00  0.00    +0.000 A 
ATOM      8  C   UNL     1      48.061   7.254  12.463  0.00  0.00    +0.000 A 
BRANCH   6   9
ATOM      9  C   UNL     1      44.500   7.629  11.165  0.00  0.00    +0.000 C 
BRANCH   9  10
ATOM     10  N   UNL     1      44.417   6.279  10.651  0.00  0.00    +0.000 N 
ATOM     11  C   UNL     1      43.364   5.470  11.040  0.00  0.00    +0.000 C 
ATOM     12  O   UNL     1      42.469   5.882  11.772  0.00  0.00    +0.000 OA
ATOM     13  H   UNL     1      45.169   5.908  10.086  0.00  0.00    +0.000 HD
BRANCH  11  14
ATOM     14  C   UNL     1      43.440   4.009  10.533  0.00  0.00    +0.000 C 
ATOM     15  C   UNL     1      44.870   3.489  10.483  0.00  0.00    +0.000 C 
ATOM     16  C   UNL     1      45.146   3.104  11.928  0.00  0.00    +0.000 C 
ATOM     17  C   UNL     1      43.785   2.703  12.481  0.00  0.00    +0.000 C 
ATOM     18  N   UNL     1      42.794   3.056  11.458  0.00  0.00    +0.000 NA
ATOM     19  H   UNL     1      41.949   3.434  11.880  0.00  0.00    +0.000 HD
ENDBRANCH  11  14
ENDBRANCH   9  10
ENDBRANCH   6   9
ENDBRANCH   2   3
BRANCH   2  20
ATOM     20  N   UNL     1      49.431   7.758  15.281  0.00  0.00    +0.000 N 
ATOM     21  C   UNL     1      50.549   7.135  15.787  0.00  0.00    +0.000 C 
ATOM     22  O   UNL     1      51.665   7.281  15.305  0.00  0.00    +0.000 OA
ATOM     23  H   UNL     1      48.527   7.348  15.497  0.00  0.00    +0.000 HD
BRANCH  21  24
ATOM     24  C   UNL     1      50.349   6.329  16.993  0.00  0.00    +0.000 A 
ATOM     25  C   UNL     1      51.197   6.494  18.080  0.00  0.00    +0.000 A 
ATOM     26  S   UNL     1      50.831   5.468  19.391  0.00  0.00    +0.000 S 
ATOM     27  C   UNL     1      49.554   4.740  18.532  0.00  0.00    +0.000 A 
ATOM     28  N   UNL     1      48.832   3.722  19.075  0.00  0.00    +0.000 NA
ATOM     29  C   UNL     1      47.918   3.244  18.298  0.00  0.00    +0.000 A 
ATOM     30  N   UNL     1      47.648   3.703  17.034  0.00  0.00    +0.000 N 
ATOM     31  C   UNL     1      48.319   4.758  16.463  0.00  0.00    +0.000 A 
ATOM     32  O   UNL     1      48.007   5.198  15.364  0.00  0.00    +0.000 OA
ATOM     33  C   UNL     1      49.385   5.302  17.283  0.00  0.00    +0.000 A 
ATOM     34  H   UNL     1      46.900   3.301  16.487  0.00  0.00    +0.000 HD
ENDBRANCH  21  24
ENDBRANCH   2  20
TORSDOF 6
ENDMDL
MODEL 5
REMARK VINA RESULT:    -6.433      3.093      7.718
REMARK INTER + INTRA:         -10.053
REMARK INTER:                  -8.851
REMARK INTRA:                  -1.202
REMARK UNBOUND:                -1.364
REMARK  Name = 
REMARK  7 active torsions:
REMARK  status: ('A' for Active; 'I' for Inactive)
REMARK    1  A    between atoms: C_1  and  C_2
REMARK    2  A    between atoms: C_2  and  N_3
REMARK    3  A    between atoms: C_2  and  C_16
REMARK    4  A    between atoms: C_4  and  C_6
REMARK    5  A    between atoms: C_19  and  C_20
REMARK    6  A    between atoms: C_20  and  N_21
REMARK    7  A    between atoms: C_22  and  C_24
REMARK                            x       y       z     vdW  Elec       q    Type
REMARK                         _______ _______ _______ _____ _____    ______ ____
ROOT
ATOM      1  C   UNL     1      50.900   8.714  13.960  0.00  0.00    +0.000 C 
ATOM      2  C   UNL     1      49.942   7.560  14.289  0.00  0.00    +0.000 C 
ENDROOT
BRANCH   2   3
ATOM      3  C   UNL     1      48.644   7.714  13.506  0.00  0.00    +0.000 A 
ATOM      4  C   UNL     1      47.707   8.697  13.861  0.00  0.00    +0.000 A 
ATOM      5  C   UNL     1      46.481   8.797  13.188  0.00  0.00    +0.000 A 
ATOM      6  C   UNL     1      46.164   7.912  12.149  0.00  0.00    +0.000 A 
ATOM      7  C   UNL     1      47.119   6.965  11.759  0.00  0.00    +0.000 A 
ATOM      8  C   UNL     1      48.344   6.869  12.426  0.00  0.00    +0.000 A 
BRANCH   6   9
ATOM      9  C   UNL     1      44.809   7.931  11.488  0.00  0.00    +0.000 C 
BRANCH   9  10
ATOM     10  N   UNL     1      44.485   6.705  10.792  0.00  0.00    +0.000 N 
ATOM     11  C   UNL     1      43.635   5.791  11.390  0.00  0.00    +0.000 C 
ATOM     12  O   UNL     1      43.108   6.014  12.476  0.00  0.00    +0.000 OA
ATOM     13  H   UNL     1      44.946   6.484   9.920  0.00  0.00    +0.000 HD
BRANCH  11  14
ATOM     14  C   UNL     1      43.456   4.462  10.617  0.00  0.00    +0.000 C 
ATOM     15  C   UNL     1      44.785   3.776  10.332  0.00  0.00    +0.000 C 
ATOM     16  C   UNL     1      45.102   3.081  11.647  0.00  0.00    +0.000 C 
ATOM     17  C   UNL     1      43.740   2.764  12.247  0.00  0.00    +0.000 C 
ATOM     18  N   UNL     1      42.742   3.440  11.409  0.00  0.00    +0.000 NA
ATOM     19  H   UNL     1      41.996   3.835  11.975  0.00  0.00    +0.000 HD
ENDBRANCH  11  14
ENDBRANCH   9  10
ENDBRANCH   6   9
ENDBRANCH   2   3
BRANCH   2  20
ATOM     20  N   UNL     1      49.650   7.471  15.710  0.00  0.00    +0.000 N 
ATOM     21  C   UNL     1      49.012   6.388  16.266  0.00  0.00    +0.000 C 
ATOM     22  O   UNL     1      48.683   5.405  15.613  0.00  0.00    +0.000 OA
ATOM     23  H   UNL     1      49.591   8.357  16.204  0.00  0.00    +0.000 HD
BRANCH  21  24
ATOM     24  C   UNL     1      48.801   6.436  17.714  0.00  0.00    +0.000 A 
ATOM     25  C   UNL     1      49.079   5.316  18.487  0.00  0.00    +0.000 A 
ATOM     26  S   UNL     1      48.764   5.541  20.148  0.00  0.00    +0.000 S 
ATOM     27  C   UNL     1      48.205   7.127  19.881  0.00  0.00    +0.000 A 
ATOM     28  N   UNL     1      47.728   7.885  20.904  0.00  0.00    +0.000 NA
ATOM     29  C   UNL     1      47.307   9.053  20.550  0.00  0.00    +0.000 A 
ATOM     30  N   UNL     1      47.337   9.539  19.267  0.00  0.00    +0.000 N 
ATOM     31  C   UNL     1      47.851   8.827  18.211  0.00  0.00    +0.000 A 
ATOM     32  O   UNL     1      47.936   9.313  17.090  0.00  0.00    +0.000 OA
ATOM     33  C   UNL     1      48.299   7.491  18.552  0.00  0.00    +0.000 A 
ATOM     34  H   UNL     1      47.014  10.474  19.062  0.00  0.00    +0.000 HD
ENDBRANCH  21  24
ENDBRANCH   2  20
TORSDOF 6
ENDMDL
MODEL 6
REMARK VINA RESULT:    -6.255      3.627      8.373
REMARK INTER + INTRA:          -9.814
REMARK INTER:                  -8.527
REMARK INTRA:                  -1.287
REMARK UNBOUND:                -1.364
REMARK  Name = 
REMARK  7 active torsions:
REMARK  status: ('A' for Active; 'I' for Inactive)
REMARK    1  A    between atoms: C_1  and  C_2
REMARK    2  A    between atoms: C_2  and  N_3
REMARK    3  A    between atoms: C_2  and  C_16
REMARK    4  A    between atoms: C_4  and  C_6
REMARK    5  A    between atoms: C_19  and  C_20
REMARK    6  A    between atoms: C_20  and  N_21
REMARK    7  A    between atoms: C_22  and  C_24
REMARK                            x       y       z     vdW  Elec       q    Type
REMARK                         _______ _______ _______ _____ _____    ______ ____
ROOT
ATOM      1  C   UNL     1      49.355   7.292  19.436  0.00  0.00    +0.000 C 
ATOM      2  C   UNL     1      50.295   6.937  18.275  0.00  0.00    +0.000 C 
ENDROOT
BRANCH   2   3
ATOM      3  C   UNL     1      49.495   6.723  16.996  0.00  0.00    +0.000 A 
ATOM      4  C   UNL     1      48.568   5.673  16.899  0.00  0.00    +0.000 A 
ATOM      5  C   UNL     1      47.881   5.429  15.702  0.00  0.00    +0.000 A 
ATOM      6  C   UNL     1      48.111   6.227  14.573  0.00  0.00    +0.000 A 
ATOM      7  C   UNL     1      48.996   7.307  14.683  0.00  0.00    +0.000 A 
ATOM      8  C   UNL     1      49.677   7.554  15.879  0.00  0.00    +0.000 A 
BRANCH   6   9
ATOM      9  C   UNL     1      47.467   5.914  13.246  0.00  0.00    +0.000 C 
BRANCH   9  10
ATOM     10  N   UNL     1      46.035   5.730  13.325  0.00  0.00    +0.000 N 
ATOM     11  C   UNL     1      45.512   4.450  13.254  0.00  0.00    +0.000 C 
ATOM     12  O   UNL     1      46.234   3.461  13.175  0.00  0.00    +0.000 OA
ATOM     13  H   UNL     1      45.423   6.535  13.343  0.00  0.00    +0.000 HD
BRANCH  11  14
ATOM     14  C   UNL     1      43.965   4.377  13.221  0.00  0.00    +0.000 C 
ATOM     15  C   UNL     1      43.366   5.303  12.172  0.00  0.00    +0.000 C 
ATOM     16  C   UNL     1      43.527   4.514  10.883  0.00  0.00    +0.000 C 
ATOM     17  C   UNL     1      43.456   3.057  11.319  0.00  0.00    +0.000 C 
ATOM     18  N   UNL     1      43.472   3.054  12.786  0.00  0.00    +0.000 NA
ATOM     19  H   UNL     1      44.037   2.290  13.146  0.00  0.00    +0.000 HD
ENDBRANCH  11  14
ENDBRANCH   9  10
ENDBRANCH   6   9
ENDBRANCH   2   3
BRANCH   2  20
ATOM     20  N   UNL     1      51.098   5.758  18.555  0.00  0.00    +0.000 N 
ATOM     21  C   UNL     1      52.326   5.547  17.975  0.00  0.00    +0.000 C 
ATOM     22  O   UNL     1      52.850   6.355  17.217  0.00  0.00    +0.000 OA
ATOM     23  H   UNL     1      50.586   4.944  18.882  0.00  0.00    +0.000 HD
BRANCH  21  24
ATOM     24  C   UNL     1      53.024   4.321  18.366  0.00  0.00    +0.000 A 
ATOM     25  C   UNL     1      54.230   4.403  19.049  0.00  0.00    +0.000 A 
ATOM     26  S   UNL     1      54.911   2.882  19.414  0.00  0.00    +0.000 S 
ATOM     27  C   UNL     1      53.636   2.067  18.634  0.00  0.00    +0.000 A 
ATOM     28  N   UNL     1      53.625   0.710  18.538  0.00  0.00    +0.000 NA
ATOM     29  C   UNL     1      52.616   0.230  17.891  0.00  0.00    +0.000 A 
ATOM     30  N   UNL     1      51.607   0.983  17.346  0.00  0.00    +0.000 N 
ATOM     31  C   UNL     1      51.552   2.351  17.458  0.00  0.00    +0.000 A 
ATOM     32  O   UNL     1      50.602   2.993  17.029  0.00  0.00    +0.000 OA
ATOM     33  C   UNL     1      52.687   2.941  18.142  0.00  0.00    +0.000 A 
ATOM     34  H   UNL     1      50.831   0.542  16.873  0.00  0.00    +0.000 HD
ENDBRANCH  21  24
ENDBRANCH   2  20
TORSDOF 6
ENDMDL
MODEL 7
REMARK VINA RESULT:    -6.231      3.342      5.339
REMARK INTER + INTRA:          -9.780
REMARK INTER:                  -8.531
REMARK INTRA:                  -1.249
REMARK UNBOUND:                -1.364
REMARK  Name = 
REMARK  7 active torsions:
REMARK  status: ('A' for Active; 'I' for Inactive)
REMARK    1  A    between atoms: C_1  and  C_2
REMARK    2  A    between atoms: C_2  and  N_3
REMARK    3  A    between atoms: C_2  and  C_16
REMARK    4  A    between atoms: C_4  and  C_6
REMARK    5  A    between atoms: C_19  and  C_20
REMARK    6  A    between atoms: C_20  and  N_21
REMARK    7  A    between atoms: C_22  and  C_24
REMARK                            x       y       z     vdW  Elec       q    Type
REMARK                         _______ _______ _______ _____ _____    ______ ____
ROOT
ATOM      1  C   UNL     1      46.793   3.077  17.735  0.00  0.00    +0.000 C 
ATOM      2  C   UNL     1      47.613   3.406  16.478  0.00  0.00    +0.000 C 
ENDROOT
BRANCH   2   3
ATOM      3  C   UNL     1      48.975   3.964  16.870  0.00  0.00    +0.000 A 
ATOM      4  C   UNL     1      49.248   5.336  16.751  0.00  0.00    +0.000 A 
ATOM      5  C   UNL     1      50.522   5.843  17.043  0.00  0.00    +0.000 A 
ATOM      6  C   UNL     1      51.553   4.987  17.456  0.00  0.00    +0.000 A 
ATOM      7  C   UNL     1      51.268   3.627  17.626  0.00  0.00    +0.000 A 
ATOM      8  C   UNL     1      49.995   3.122  17.340  0.00  0.00    +0.000 A 
BRANCH   6   9
ATOM      9  C   UNL     1      52.956   5.495  17.668  0.00  0.00    +0.000 C 
BRANCH   9  10
ATOM     10  N   UNL     1      53.428   6.358  16.608  0.00  0.00    +0.000 N 
ATOM     11  C   UNL     1      53.533   7.719  16.839  0.00  0.00    +0.000 C 
ATOM     12  O   UNL     1      53.283   8.209  17.937  0.00  0.00    +0.000 OA
ATOM     13  H   UNL     1      53.592   5.979  15.685  0.00  0.00    +0.000 HD
BRANCH  11  14
ATOM     14  C   UNL     1      53.925   8.564  15.602  0.00  0.00    +0.000 C 
ATOM     15  C   UNL     1      53.206   8.108  14.340  0.00  0.00    +0.000 C 
ATOM     16  C   UNL     1      51.838   8.757  14.470  0.00  0.00    +0.000 C 
ATOM     17  C   UNL     1      52.097  10.033  15.260  0.00  0.00    +0.000 C 
ATOM     18  N   UNL     1      53.489   9.970  15.718  0.00  0.00    +0.000 NA
ATOM     19  H   UNL     1      53.581  10.331  16.664  0.00  0.00    +0.000 HD
ENDBRANCH  11  14
ENDBRANCH   9  10
ENDBRANCH   6   9
ENDBRANCH   2   3
BRANCH   2  20
ATOM     20  N   UNL     1      46.930   4.347  15.605  0.00  0.00    +0.000 N 
ATOM     21  C   UNL     1      46.918   4.207  14.237  0.00  0.00    +0.000 C 
ATOM     22  O   UNL     1      47.443   3.262  13.662  0.00  0.00    +0.000 OA
ATOM     23  H   UNL     1      46.789   5.279  15.984  0.00  0.00    +0.000 HD
BRANCH  21  24
ATOM     24  C   UNL     1      46.176   5.225  13.490  0.00  0.00    +0.000 A 
ATOM     25  C   UNL     1      46.668   6.523  13.421  0.00  0.00    +0.000 A 
ATOM     26  S   UNL     1      45.674   7.580  12.526  0.00  0.00    +0.000 S 
ATOM     27  C   UNL     1      44.534   6.348  12.238  0.00  0.00    +0.000 A 
ATOM     28  N   UNL     1      43.386   6.600  11.552  0.00  0.00    +0.000 NA
ATOM     29  C   UNL     1      42.600   5.582  11.439  0.00  0.00    +0.000 A 
ATOM     30  N   UNL     1      42.865   4.330  11.934  0.00  0.00    +0.000 N 
ATOM     31  C   UNL     1      44.030   4.018  12.592  0.00  0.00    +0.000 A 
ATOM     32  O   UNL     1      44.276   2.876  12.957  0.00  0.00    +0.000 OA
ATOM     33  C   UNL     1      44.929   5.142  12.781  0.00  0.00    +0.000 A 
ATOM     34  H   UNL     1      42.217   3.569  11.788  0.00  0.00    +0.000 HD
ENDBRANCH  21  24
ENDBRANCH   2  20
TORSDOF 6
ENDMDL
MODEL 8
REMARK VINA RESULT:    -5.708      5.349     10.057
REMARK INTER + INTRA:          -9.074
REMARK INTER:                  -7.848
REMARK INTRA:                  -1.226
REMARK UNBOUND:                -1.364
REMARK  Name = 
REMARK  7 active torsions:
REMARK  status: ('A' for Active; 'I' for Inactive)
REMARK    1  A    between atoms: C_1  and  C_2
REMARK    2  A    between atoms: C_2  and  N_3
REMARK    3  A    between atoms: C_2  and  C_16
REMARK    4  A    between atoms: C_4  and  C_6
REMARK    5  A    between atoms: C_19  and  C_20
REMARK    6  A    between atoms: C_20  and  N_21
REMARK    7  A    between atoms: C_22  and  C_24
REMARK                            x       y       z     vdW  Elec       q    Type
REMARK                         _______ _______ _______ _____ _____    ______ ____
ROOT
ATOM      1  C   UNL     1      53.455   3.250  19.367  0.00  0.00    +0.000 C 
ATOM      2  C   UNL     1      53.051   2.736  17.977  0.00  0.00    +0.000 C 
ENDROOT
BRANCH   2   3
ATOM      3  C   UNL     1      51.560   2.947  17.751  0.00  0.00    +0.000 A 
ATOM      4  C   UNL     1      50.775   1.938  17.171  0.00  0.00    +0.000 A 
ATOM      5  C   UNL     1      49.417   2.152  16.896  0.00  0.00    +0.000 A 
ATOM      6  C   UNL     1      48.815   3.383  17.193  0.00  0.00    +0.000 A 
ATOM      7  C   UNL     1      49.583   4.372  17.821  0.00  0.00    +0.000 A 
ATOM      8  C   UNL     1      50.937   4.156  18.099  0.00  0.00    +0.000 A 
BRANCH   6   9
ATOM      9  C   UNL     1      47.387   3.672  16.806  0.00  0.00    +0.000 C 
BRANCH   9  10
ATOM     10  N   UNL     1      47.160   3.667  15.378  0.00  0.00    +0.000 N 
ATOM     11  C   UNL     1      47.393   4.822  14.651  0.00  0.00    +0.000 C 
ATOM     12  O   UNL     1      47.835   5.839  15.178  0.00  0.00    +0.000 OA
ATOM     13  H   UNL     1      46.752   2.855  14.935  0.00  0.00    +0.000 HD
BRANCH  11  14
ATOM     14  C   UNL     1      46.998   4.744  13.156  0.00  0.00    +0.000 C 
ATOM     15  C   UNL     1      45.651   4.067  12.949  0.00  0.00    +0.000 C 
ATOM     16  C   UNL     1      44.657   5.176  13.253  0.00  0.00    +0.000 C 
ATOM     17  C   UNL     1      45.384   6.455  12.860  0.00  0.00    +0.000 C 
ATOM     18  N   UNL     1      46.770   6.078  12.562  0.00  0.00    +0.000 NA
ATOM     19  H   UNL     1      47.423   6.776  12.909  0.00  0.00    +0.000 HD
ENDBRANCH  11  14
ENDBRANCH   9  10
ENDBRANCH   6   9
ENDBRANCH   2   3
BRANCH   2  20
ATOM     20  N   UNL     1      53.383   1.334  17.788  0.00  0.00    +0.000 N 
ATOM     21  C   UNL     1      54.561   0.927  17.208  0.00  0.00    +0.000 C 
ATOM     22  O   UNL     1      55.430   1.711  16.849  0.00  0.00    +0.000 OA
ATOM     23  H   UNL     1      52.595   0.695  17.750  0.00  0.00    +0.000 HD
BRANCH  21  24
ATOM     24  C   UNL     1      54.762  -0.520  17.099  0.00  0.00    +0.000 A 
ATOM     25  C   UNL     1      54.881  -1.106  15.845  0.00  0.00    +0.000 A 
ATOM     26  S   UNL     1      55.095  -2.797  15.903  0.00  0.00    +0.000 S 
ATOM     27  C   UNL     1      54.992  -2.805  17.602  0.00  0.00    +0.000 A 
ATOM     28  N   UNL     1      55.053  -3.969  18.304  0.00  0.00    +0.000 NA
ATOM     29  C   UNL     1      54.927  -3.828  19.581  0.00  0.00    +0.000 A 
ATOM     30  N   UNL     1      54.765  -2.625  20.222  0.00  0.00    +0.000 N 
ATOM     31  C   UNL     1      54.745  -1.422  19.560  0.00  0.00    +0.000 A 
ATOM     32  O   UNL     1      54.675  -0.358  20.162  0.00  0.00    +0.000 OA
ATOM     33  C   UNL     1      54.840  -1.533  18.117  0.00  0.00    +0.000 A 
ATOM     34  H   UNL     1      54.698  -2.583  21.230  0.00  0.00    +0.000 HD
ENDBRANCH  21  24
ENDBRANCH   2  20
TORSDOF 6
ENDMDL
