MODEL 1
REMARK VINA RESULT:    -8.701      0.000      0.000
REMARK INTER + INTRA:         -12.734
REMARK INTER:                 -11.752
REMARK INTRA:                  -0.981
REMARK UNBOUND:                -0.981
REMARK  Name = 
REMARK  7 active torsions:
REMARK  status: ('A' for Active; 'I' for Inactive)
REMARK    1  A    between atoms: C_1  and  C_2
REMARK    2  A    between atoms: C_6  and  N_7
REMARK    3  A    between atoms: N_7  and  C_8
REMARK    4  A    between atoms: C_8  and  C_9
REMARK    5  A    between atoms: C_12  and  C_13
REMARK    6  A    between atoms: C_13  and  N_14
REMARK    7  A    between atoms: C_15  and  C_17
REMARK                            x       y       z     vdW  Elec       q    Type
REMARK                         _______ _______ _______ _____ _____    ______ ____
ROOT
ATOM      1  C   UNL     1      44.614   5.434  10.905  0.00  0.00    +0.000 A 
ATOM      2  C   UNL     1      45.907   5.778  10.502  0.00  0.00    +0.000 A 
ATOM      3  C   UNL     1      46.685   6.615  11.301  0.00  0.00    +0.000 A 
ATOM      4  C   UNL     1      46.143   7.120  12.479  0.00  0.00    +0.000 A 
ATOM      5  N   UNL     1      44.890   6.801  12.894  0.00  0.00    +0.000 NA
ATOM      6  C   UNL     1      44.162   5.976  12.103  0.00  0.00    +0.000 A 
ENDROOT
BRANCH   1   7
ATOM      7  C   UNL     1      43.755   4.492  10.106  0.00  0.00    +0.000 C 
BRANCH   7   8
ATOM      8  N   UNL     1      44.214   4.365   8.746  0.00  0.00    +0.000 N 
ATOM      9  H   UNL     1      43.940   5.035   8.040  0.00  0.00    +0.000 HD
BRANCH   8  15
ATOM     10  C   UNL     1      47.238   3.069   5.341  0.00  0.00    +0.000 C 
ATOM     11  C   UNL     1      46.553   2.723   6.630  0.00  0.00    +0.000 A 
ATOM     12  C   UNL     1      46.771   1.491   7.232  0.00  0.00    +0.000 A 
ATOM     13  C   UNL     1      46.091   1.207   8.407  0.00  0.00    +0.000 A 
ATOM     14  C   UNL     1      45.217   2.155   8.934  0.00  0.00    +0.000 A 
ATOM     15  C   UNL     1      45.050   3.377   8.291  0.00  0.00    +0.000 A 
ATOM     16  N   UNL     1      45.715   3.657   7.151  0.00  0.00    +0.000 NA
ENDBRANCH   8  15
ENDBRANCH   7   8
ENDBRANCH   1   7
BRANCH   4  17
ATOM     17  C   UNL     1      46.947   8.055  13.351  0.00  0.00    +0.000 C 
BRANCH  17  18
ATOM     18  N   UNL     1      47.486   7.401  14.522  0.00  0.00    +0.000 N 
ATOM     19  C   UNL     1      48.714   6.799  14.537  0.00  0.00    +0.000 C 
ATOM     20  O   UNL     1      49.435   6.760  13.543  0.00  0.00    +0.000 OA
ATOM     21  H   UNL     1      46.819   7.215  15.266  0.00  0.00    +0.000 HD
BRANCH  19  22
ATOM     22  C   UNL     1      49.160   6.263  15.829  0.00  0.00    +0.000 A 
ATOM     23  C   UNL     1      50.239   6.848  16.483  0.00  0.00    +0.000 A 
ATOM     24  S   UNL     1      50.604   6.124  17.983  0.00  0.00    +0.000 S 
ATOM     25  C   UNL     1      49.360   4.979  17.797  0.00  0.00    +0.000 A 
ATOM     26  N   UNL     1      49.143   4.018  18.737  0.00  0.00    +0.000 NA
ATOM     27  C   UNL     1      48.186   3.202  18.451  0.00  0.00    +0.000 A 
ATOM     28  N   UNL     1      47.416   3.260  17.321  0.00  0.00    +0.000 N 
ATOM     29  C   UNL     1      47.569   4.239  16.367  0.00  0.00    +0.000 A 
ATOM     30  O   UNL     1      46.809   4.309  15.410  0.00  0.00    +0.000 OA
ATOM     31  C   UNL     1      48.657   5.163  16.617  0.00  0.00    +0.000 A 
ATOM     32  H   UNL     1      46.666   2.605  17.171  0.00  0.00    +0.000 HD
ENDBRANCH  19  22
ENDBRANCH  17  18
ENDBRANCH   4  17
TORSDOF 6
ENDMDL
MODEL 2
REMARK VINA RESULT:    -8.265      1.520      1.717
REMARK INTER + INTRA:         -12.145
REMARK INTER:                 -11.244
REMARK INTRA:                  -0.901
REMARK UNBOUND:                -0.981
REMARK  Name = 
REMARK  7 active torsions:
REMARK  status: ('A' for Active; 'I' for Inactive)
REMARK    1  A    between atoms: C_1  and  C_2
REMARK    2  A    between atoms: C_6  and  N_7
REMARK    3  A    between atoms: N_7  and  C_8
REMARK    4  A    between atoms: C_8  and  C_9
REMARK    5  A    between atoms: C_12  and  C_13
REMARK    6  A    between atoms: C_13  and  N_14
REMARK    7  A    between atoms: C_15  and  C_17
REMARK                            x       y       z     vdW  Elec       q    Type
REMARK                         _______ _______ _______ _____ _____    ______ ____
ROOT
ATOM      1  C   UNL     1      44.960   5.069  11.201  0.00  0.00    +0.000 A 
ATOM      2  C   UNL     1      45.458   4.465  12.359  0.00  0.00    +0.000 A 
ATOM      3  C   UNL     1      46.475   5.084  13.085  0.00  0.00    +0.000 A 
ATOM      4  C   UNL     1      46.998   6.288  12.622  0.00  0.00    +0.000 A 
ATOM      5  N   UNL     1      46.532   6.895  11.501  0.00  0.00    +0.000 NA
ATOM      6  C   UNL     1      45.536   6.276  10.823  0.00  0.00    +0.000 A 
ENDROOT
BRANCH   1   7
ATOM      7  C   UNL     1      43.828   4.467  10.414  0.00  0.00    +0.000 C 
BRANCH   7   8
ATOM      8  N   UNL     1      44.145   4.356   9.013  0.00  0.00    +0.000 N 
ATOM      9  H   UNL     1      43.764   5.009   8.340  0.00  0.00    +0.000 HD
BRANCH   8  15
ATOM     10  C   UNL     1      47.115   3.328   5.472  0.00  0.00    +0.000 C 
ATOM     11  C   UNL     1      46.450   2.883   6.740  0.00  0.00    +0.000 A 
ATOM     12  C   UNL     1      46.676   1.609   7.242  0.00  0.00    +0.000 A 
ATOM     13  C   UNL     1      46.015   1.235   8.402  0.00  0.00    +0.000 A 
ATOM     14  C   UNL     1      45.149   2.139   9.014  0.00  0.00    +0.000 A 
ATOM     15  C   UNL     1      44.973   3.407   8.470  0.00  0.00    +0.000 A 
ATOM     16  N   UNL     1      45.620   3.775   7.344  0.00  0.00    +0.000 NA
ENDBRANCH   8  15
ENDBRANCH   7   8
ENDBRANCH   1   7
BRANCH   4  17
ATOM     17  C   UNL     1      48.123   6.969  13.366  0.00  0.00    +0.000 C 
BRANCH  17  18
ATOM     18  N   UNL     1      47.973   6.884  14.801  0.00  0.00    +0.000 N 
ATOM     19  C   UNL     1      49.036   6.740  15.650  0.00  0.00    +0.000 C 
ATOM     20  O   UNL     1      50.192   6.655  15.243  0.00  0.00    +0.000 OA
ATOM     21  H   UNL     1      47.030   6.712  15.134  0.00  0.00    +0.000 HD
BRANCH  19  22
ATOM     22  C   UNL     1      48.730   6.766  17.086  0.00  0.00    +0.000 A 
ATOM     23  C   UNL     1      48.370   7.963  17.693  0.00  0.00    +0.000 A 
ATOM     24  S   UNL     1      48.018   7.809  19.355  0.00  0.00    +0.000 S 
ATOM     25  C   UNL     1      48.370   6.146  19.333  0.00  0.00    +0.000 A 
ATOM     26  N   UNL     1      48.294   5.396  20.467  0.00  0.00    +0.000 NA
ATOM     27  C   UNL     1      48.616   4.158  20.308  0.00  0.00    +0.000 A 
ATOM     28  N   UNL     1      48.995   3.591  19.121  0.00  0.00    +0.000 N 
ATOM     29  C   UNL     1      49.041   4.298  17.942  0.00  0.00    +0.000 A 
ATOM     30  O   UNL     1      49.304   3.740  16.884  0.00  0.00    +0.000 OA
ATOM     31  C   UNL     1      48.726   5.707  18.068  0.00  0.00    +0.000 A 
ATOM     32  H   UNL     1      49.209   2.608  19.060  0.00  0.00    +0.000 HD
ENDBRANCH  19  22
ENDBRANCH  17  18
ENDBRANCH   4  17
TORSDOF 6
ENDMDL
MODEL 3
REMARK VINA RESULT:    -7.815      1.981      2.525
REMARK INTER + INTRA:         -11.537
REMARK INTER:                 -10.552
REMARK INTRA:                  -0.985
REMARK UNBOUND:                -0.981
REMARK  Name = 
REMARK  7 active torsions:
REMARK  status: ('A' for Active; 'I' for Inactive)
REMARK    1  A    between atoms: C_1  and  C_2
REMARK    2  A    between atoms: C_6  and  N_7
REMARK    3  A    between atoms: N_7  and  C_8
REMARK    4  A    between atoms: C_8  and  C_9
REMARK    5  A    between atoms: C_12  and  C_13
REMARK    6  A    between atoms: C_13  and  N_14
REMARK    7  A    between atoms: C_15  and  C_17
REMARK                            x       y       z     vdW  Elec       q    Type
REMARK                         _______ _______ _______ _____ _____    ______ ____
ROOT
ATOM      1  C   UNL     1      44.811   4.601  11.718  0.00  0.00    +0.000 A 
ATOM      2  C   UNL     1      45.884   4.748  12.602  0.00  0.00    +0.000 A 
ATOM      3  C   UNL     1      46.273   6.021  13.019  0.00  0.00    +0.000 A 
ATOM      4  C   UNL     1      45.598   7.131  12.519  0.00  0.00    +0.000 A 
ATOM      5  N   UNL     1      44.552   7.015  11.661  0.00  0.00    +0.000 NA
ATOM      6  C   UNL     1      44.189   5.766  11.282  0.00  0.00    +0.000 A 
ENDROOT
BRANCH   1   7
ATOM      7  C   UNL     1      44.319   3.249  11.281  0.00  0.00    +0.000 C 
BRANCH   7   8
ATOM      8  N   UNL     1      44.092   3.190   9.859  0.00  0.00    +0.000 N 
ATOM      9  H   UNL     1      43.165   3.314   9.475  0.00  0.00    +0.000 HD
BRANCH   8  15
ATOM     10  C   UNL     1      46.791  -0.017   7.657  0.00  0.00    +0.000 C 
ATOM     11  C   UNL     1      46.401   1.423   7.811  0.00  0.00    +0.000 A 
ATOM     12  C   UNL     1      47.031   2.405   7.060  0.00  0.00    +0.000 A 
ATOM     13  C   UNL     1      46.656   3.724   7.261  0.00  0.00    +0.000 A 
ATOM     14  C   UNL     1      45.674   4.017   8.204  0.00  0.00    +0.000 A 
ATOM     15  C   UNL     1      45.070   2.988   8.918  0.00  0.00    +0.000 A 
ATOM     16  N   UNL     1      45.430   1.703   8.720  0.00  0.00    +0.000 NA
ENDBRANCH   8  15
ENDBRANCH   7   8
ENDBRANCH   1   7
BRANCH   4  17
ATOM     17  C   UNL     1      46.014   8.525  12.925  0.00  0.00    +0.000 C 
BRANCH  17  18
ATOM     18  N   UNL     1      46.755   8.547  14.166  0.00  0.00    +0.000 N 
ATOM     19  C   UNL     1      48.052   8.974  14.249  0.00  0.00    +0.000 C 
ATOM     20  O   UNL     1      48.680   9.351  13.263  0.00  0.00    +0.000 OA
ATOM     21  H   UNL     1      46.342   8.023  14.932  0.00  0.00    +0.000 HD
BRANCH  19  22
ATOM     22  C   UNL     1      48.634   9.027  15.595  0.00  0.00    +0.000 A 
ATOM     23  C   UNL     1      48.851  10.257  16.205  0.00  0.00    +0.000 A 
ATOM     24  S   UNL     1      49.503  10.137  17.776  0.00  0.00    +0.000 S 
ATOM     25  C   UNL     1      49.556   8.440  17.685  0.00  0.00    +0.000 A 
ATOM     26  N   UNL     1      50.050   7.696  18.713  0.00  0.00    +0.000 NA
ATOM     27  C   UNL     1      50.056   6.425  18.495  0.00  0.00    +0.000 A 
ATOM     28  N   UNL     1      49.604   5.823  17.351  0.00  0.00    +0.000 N 
ATOM     29  C   UNL     1      49.055   6.530  16.307  0.00  0.00    +0.000 A 
ATOM     30  O   UNL     1      48.585   5.952  15.335  0.00  0.00    +0.000 OA
ATOM     31  C   UNL     1      49.058   7.969  16.481  0.00  0.00    +0.000 A 
ATOM     32  H   UNL     1      49.613   4.820  17.256  0.00  0.00    +0.000 HD
ENDBRANCH  19  22
ENDBRANCH  17  18
ENDBRANCH   4  17
TORSDOF 6
ENDMDL
MODEL 4
REMARK VINA RESULT:    -7.664      2.162      2.857
REMARK INTER + INTRA:         -11.334
REMARK INTER:                 -10.603
REMARK INTRA:                  -0.730
REMARK UNBOUND:                -0.981
REMARK  Name = 
REMARK  7 active torsions:
REMARK  status: ('A' for Active; 'I' for Inactive)
REMARK    1  A    between atoms: C_1  and  C_2
REMARK    2  A    between atoms: C_6  and  N_7
REMARK    3  A    between atoms: N_7  and  C_8
REMARK    4  A    between atoms: C_8  and  C_9
REMARK    5  A    between atoms: C_12  and  C_13
REMARK    6  A    between atoms: C_13  and  N_14
REMARK    7  A    between atoms: C_15  and  C_17
REMARK                            x       y       z     vdW  Elec       q    Type
REMARK                         _______ _______ _______ _____ _____    ______ ____
ROOT
ATOM      1  C   UNL     1      44.871   5.020  11.466  0.00  0.00    +0.000 A 
ATOM      2  C   UNL     1      45.253   4.444  12.681  0.00  0.00    +0.000 A 
ATOM      3  C   UNL     1      46.219   5.064  13.472  0.00  0.00    +0.000 A 
ATOM      4  C   UNL     1      46.811   6.239  13.017  0.00  0.00    +0.000 A 
ATOM      5  N   UNL     1      46.458   6.819  11.842  0.00  0.00    +0.000 NA
ATOM      6  C   UNL     1      45.508   6.200  11.100  0.00  0.00    +0.000 A 
ENDROOT
BRANCH   1   7
ATOM      7  C   UNL     1      43.795   4.418  10.604  0.00  0.00    +0.000 C 
BRANCH   7   8
ATOM      8  N   UNL     1      44.192   3.146  10.055  0.00  0.00    +0.000 N 
ATOM      9  H   UNL     1      43.816   2.281  10.422  0.00  0.00    +0.000 HD
BRANCH   8  15
ATOM     10  C   UNL     1      46.844   0.064   7.629  0.00  0.00    +0.000 C 
ATOM     11  C   UNL     1      46.371   1.478   7.794  0.00  0.00    +0.000 A 
ATOM     12  C   UNL     1      46.839   2.478   6.951  0.00  0.00    +0.000 A 
ATOM     13  C   UNL     1      46.395   3.774   7.164  0.00  0.00    +0.000 A 
ATOM     14  C   UNL     1      45.509   4.028   8.208  0.00  0.00    +0.000 A 
ATOM     15  C   UNL     1      45.067   2.983   9.011  0.00  0.00    +0.000 A 
ATOM     16  N   UNL     1      45.493   1.719   8.803  0.00  0.00    +0.000 NA
ENDBRANCH   8  15
ENDBRANCH   7   8
ENDBRANCH   1   7
BRANCH   4  17
ATOM     17  C   UNL     1      47.885   6.919  13.833  0.00  0.00    +0.000 C 
BRANCH  17  18
ATOM     18  N   UNL     1      47.958   6.418  15.187  0.00  0.00    +0.000 N 
ATOM     19  C   UNL     1      49.130   6.345  15.889  0.00  0.00    +0.000 C 
ATOM     20  O   UNL     1      50.206   6.688  15.404  0.00  0.00    +0.000 OA
ATOM     21  H   UNL     1      47.138   5.916  15.513  0.00  0.00    +0.000 HD
BRANCH  19  22
ATOM     22  C   UNL     1      49.026   5.904  17.285  0.00  0.00    +0.000 A 
ATOM     23  C   UNL     1      48.805   4.561  17.571  0.00  0.00    +0.000 A 
ATOM     24  S   UNL     1      48.743   4.217  19.239  0.00  0.00    +0.000 S 
ATOM     25  C   UNL     1      48.969   5.854  19.643  0.00  0.00    +0.000 A 
ATOM     26  N   UNL     1      48.986   6.261  20.942  0.00  0.00    +0.000 NA
ATOM     27  C   UNL     1      49.137   7.532  21.098  0.00  0.00    +0.000 A 
ATOM     28  N   UNL     1      49.286   8.436  20.081  0.00  0.00    +0.000 N 
ATOM     29  C   UNL     1      49.322   8.064  18.757  0.00  0.00    +0.000 A 
ATOM     30  O   UNL     1      49.540   8.889  17.878  0.00  0.00    +0.000 OA
ATOM     31  C   UNL     1      49.117   6.650  18.519  0.00  0.00    +0.000 A 
ATOM     32  H   UNL     1      49.427   9.415  20.273  0.00  0.00    +0.000 HD
ENDBRANCH  19  22
ENDBRANCH  17  18
ENDBRANCH   4  17
TORSDOF 6
ENDMDL
MODEL 5
REMARK VINA RESULT:    -7.424      2.610      4.181
REMARK INTER + INTRA:         -11.009
REMARK INTER:                  -9.959
REMARK INTRA:                  -1.050
REMARK UNBOUND:                -0.981
REMARK  Name = 
REMARK  7 active torsions:
REMARK  status: ('A' for Active; 'I' for Inactive)
REMARK    1  A    between atoms: C_1  and  C_2
REMARK    2  A    between atoms: C_6  and  N_7
REMARK    3  A    between atoms: N_7  and  C_8
REMARK    4  A    between atoms: C_8  and  C_9
REMARK    5  A    between atoms: C_12  and  C_13
REMARK    6  A    between atoms: C_13  and  N_14
REMARK    7  A    between atoms: C_15  and  C_17
REMARK                            x       y       z     vdW  Elec       q    Type
REMARK                         _______ _______ _______ _____ _____    ______ ____
ROOT
ATOM      1  C   UNL     1      44.788   4.651  11.111  0.00  0.00    +0.000 A 
ATOM      2  C   UNL     1      45.496   5.856  11.133  0.00  0.00    +0.000 A 
ATOM      3  C   UNL     1      46.343   6.147  12.202  0.00  0.00    +0.000 A 
ATOM      4  C   UNL     1      46.444   5.236  13.250  0.00  0.00    +0.000 A 
ATOM      5  N   UNL     1      45.767   4.059  13.253  0.00  0.00    +0.000 NA
ATOM      6  C   UNL     1      44.961   3.799  12.196  0.00  0.00    +0.000 A 
ENDROOT
BRANCH   1   7
ATOM      7  C   UNL     1      43.904   4.268   9.956  0.00  0.00    +0.000 C 
BRANCH   7   8
ATOM      8  N   UNL     1      44.603   4.333   8.697  0.00  0.00    +0.000 N 
ATOM      9  H   UNL     1      44.579   5.172   8.132  0.00  0.00    +0.000 HD
BRANCH   8  15
ATOM     10  C   UNL     1      47.411   3.011   5.122  0.00  0.00    +0.000 C 
ATOM     11  C   UNL     1      46.753   2.649   6.420  0.00  0.00    +0.000 A 
ATOM     12  C   UNL     1      46.913   1.379   6.958  0.00  0.00    +0.000 A 
ATOM     13  C   UNL     1      46.259   1.084   8.144  0.00  0.00    +0.000 A 
ATOM     14  C   UNL     1      45.468   2.059   8.747  0.00  0.00    +0.000 A 
ATOM     15  C   UNL     1      45.356   3.317   8.166  0.00  0.00    +0.000 A 
ATOM     16  N   UNL     1      45.996   3.609   7.014  0.00  0.00    +0.000 NA
ENDBRANCH   8  15
ENDBRANCH   7   8
ENDBRANCH   1   7
BRANCH   4  17
ATOM     17  C   UNL     1      47.326   5.535  14.439  0.00  0.00    +0.000 C 
BRANCH  17  18
ATOM     18  N   UNL     1      48.505   6.291  14.082  0.00  0.00    +0.000 N 
ATOM     19  C   UNL     1      49.094   7.190  14.929  0.00  0.00    +0.000 C 
ATOM     20  O   UNL     1      48.645   7.427  16.048  0.00  0.00    +0.000 OA
ATOM     21  H   UNL     1      48.745   6.289  13.096  0.00  0.00    +0.000 HD
BRANCH  19  22
ATOM     22  C   UNL     1      50.340   7.807  14.458  0.00  0.00    +0.000 A 
ATOM     23  C   UNL     1      51.504   7.669  15.205  0.00  0.00    +0.000 A 
ATOM     24  S   UNL     1      52.863   8.419  14.500  0.00  0.00    +0.000 S 
ATOM     25  C   UNL     1      51.940   8.989  13.190  0.00  0.00    +0.000 A 
ATOM     26  N   UNL     1      52.503   9.749  12.211  0.00  0.00    +0.000 NA
ATOM     27  C   UNL     1      51.679  10.134  11.297  0.00  0.00    +0.000 A 
ATOM     28  N   UNL     1      50.347   9.822  11.259  0.00  0.00    +0.000 N 
ATOM     29  C   UNL     1      49.745   9.020  12.201  0.00  0.00    +0.000 A 
ATOM     30  O   UNL     1      48.570   8.694  12.091  0.00  0.00    +0.000 OA
ATOM     31  C   UNL     1      50.616   8.589  13.276  0.00  0.00    +0.000 A 
ATOM     32  H   UNL     1      49.763  10.135  10.500  0.00  0.00    +0.000 HD
ENDBRANCH  19  22
ENDBRANCH  17  18
ENDBRANCH   4  17
TORSDOF 6
ENDMDL
MODEL 6
REMARK VINA RESULT:    -7.373      2.036      2.783
REMARK INTER + INTRA:         -10.941
REMARK INTER:                 -10.113
REMARK INTRA:                  -0.828
REMARK UNBOUND:                -0.981
REMARK  Name = 
REMARK  7 active torsions:
REMARK  status: ('A' for Active; 'I' for Inactive)
REMARK    1  A    between atoms: C_1  and  C_2
REMARK    2  A    between atoms: C_6  and  N_7
REMARK    3  A    between atoms: N_7  and  C_8
REMARK    4  A    between atoms: C_8  and  C_9
REMARK    5  A    between atoms: C_12  and  C_13
REMARK    6  A    between atoms: C_13  and  N_14
REMARK    7  A    between atoms: C_15  and  C_17
REMARK                            x       y       z     vdW  Elec       q    Type
REMARK                         _______ _______ _______ _____ _____    ______ ____
ROOT
ATOM      1  C   UNL     1      45.144   4.185  11.798  0.00  0.00    +0.000 A 
ATOM      2  C   UNL     1      45.256   5.510  11.367  0.00  0.00    +0.000 A 
ATOM      3  C   UNL     1      46.122   6.384  12.022  0.00  0.00    +0.000 A 
ATOM      4  C   UNL     1      46.842   5.924  13.121  0.00  0.00    +0.000 A 
ATOM      5  N   UNL     1      46.752   4.642  13.560  0.00  0.00    +0.000 NA
ATOM      6  C   UNL     1      45.911   3.813  12.896  0.00  0.00    +0.000 A 
ENDROOT
BRANCH   1   7
ATOM      7  C   UNL     1      44.265   3.190  11.092  0.00  0.00    +0.000 C 
BRANCH   7   8
ATOM      8  N   UNL     1      44.199   3.438   9.674  0.00  0.00    +0.000 N 
ATOM      9  H   UNL     1      43.391   3.885   9.261  0.00  0.00    +0.000 HD
BRANCH   8  15
ATOM     10  C   UNL     1      46.732  -0.047   7.710  0.00  0.00    +0.000 C 
ATOM     11  C   UNL     1      46.441   1.422   7.788  0.00  0.00    +0.000 A 
ATOM     12  C   UNL     1      47.163   2.323   7.017  0.00  0.00    +0.000 A 
ATOM     13  C   UNL     1      46.876   3.673   7.147  0.00  0.00    +0.000 A 
ATOM     14  C   UNL     1      45.888   4.076   8.041  0.00  0.00    +0.000 A 
ATOM     15  C   UNL     1      45.189   3.126   8.778  0.00  0.00    +0.000 A 
ATOM     16  N   UNL     1      45.463   1.810   8.649  0.00  0.00    +0.000 NA
ENDBRANCH   8  15
ENDBRANCH   7   8
ENDBRANCH   1   7
BRANCH   4  17
ATOM     17  C   UNL     1      47.765   6.854  13.874  0.00  0.00    +0.000 C 
BRANCH  17  18
ATOM     18  N   UNL     1      48.304   6.253  15.073  0.00  0.00    +0.000 N 
ATOM     19  C   UNL     1      48.682   6.986  16.164  0.00  0.00    +0.000 C 
ATOM     20  O   UNL     1      48.604   8.212  16.188  0.00  0.00    +0.000 OA
ATOM     21  H   UNL     1      48.596   5.285  14.985  0.00  0.00    +0.000 HD
BRANCH  19  22
ATOM     22  C   UNL     1      49.120   6.224  17.340  0.00  0.00    +0.000 A 
ATOM     23  C   UNL     1      48.185   5.813  18.284  0.00  0.00    +0.000 A 
ATOM     24  S   UNL     1      48.858   4.913  19.566  0.00  0.00    +0.000 S 
ATOM     25  C   UNL     1      50.427   5.072  18.930  0.00  0.00    +0.000 A 
ATOM     26  N   UNL     1      51.503   4.543  19.574  0.00  0.00    +0.000 NA
ATOM     27  C   UNL     1      52.632   4.765  18.993  0.00  0.00    +0.000 A 
ATOM     28  N   UNL     1      52.790   5.455  17.821  0.00  0.00    +0.000 N 
ATOM     29  C   UNL     1      51.727   5.966  17.112  0.00  0.00    +0.000 A 
ATOM     30  O   UNL     1      51.898   6.505  16.025  0.00  0.00    +0.000 OA
ATOM     31  C   UNL     1      50.435   5.780  17.739  0.00  0.00    +0.000 A 
ATOM     32  H   UNL     1      53.700   5.570  17.405  0.00  0.00    +0.000 HD
ENDBRANCH  19  22
ENDBRANCH  17  18
ENDBRANCH   4  17
TORSDOF 6
ENDMDL
MODEL 7
REMARK VINA RESULT:    -6.942      3.191      7.985
REMARK INTER + INTRA:         -10.358
REMARK INTER:                  -9.185
REMARK INTRA:                  -1.174
REMARK UNBOUND:                -0.981
REMARK  Name = 
REMARK  7 active torsions:
REMARK  status: ('A' for Active; 'I' for Inactive)
REMARK    1  A    between atoms: C_1  and  C_2
REMARK    2  A    between atoms: C_6  and  N_7
REMARK    3  A    between atoms: N_7  and  C_8
REMARK    4  A    between atoms: C_8  and  C_9
REMARK    5  A    between atoms: C_12  and  C_13
REMARK    6  A    between atoms: C_13  and  N_14
REMARK    7  A    between atoms: C_15  and  C_17
REMARK                            x       y       z     vdW  Elec       q    Type
REMARK                         _______ _______ _______ _____ _____    ______ ____
ROOT
ATOM      1  C   UNL     1      49.473   7.740  16.231  0.00  0.00    +0.000 A 
ATOM      2  C   UNL     1      50.013   7.042  15.147  0.00  0.00    +0.000 A 
ATOM      3  C   UNL     1      49.512   7.254  13.863  0.00  0.00    +0.000 A 
ATOM      4  C   UNL     1      48.454   8.143  13.690  0.00  0.00    +0.000 A 
ATOM      5  N   UNL     1      47.912   8.833  14.726  0.00  0.00    +0.000 NA
ATOM      6  C   UNL     1      48.428   8.615  15.960  0.00  0.00    +0.000 A 
ENDROOT
BRANCH   1   7
ATOM      7  C   UNL     1      50.015   7.586  17.626  0.00  0.00    +0.000 C 
BRANCH   7   8
ATOM      8  N   UNL     1      49.228   6.672  18.413  0.00  0.00    +0.000 N 
ATOM      9  H   UNL     1      48.893   6.931  19.332  0.00  0.00    +0.000 HD
BRANCH   8  15
ATOM     10  C   UNL     1      50.713   2.317  17.294  0.00  0.00    +0.000 C 
ATOM     11  C   UNL     1      49.559   3.260  17.466  0.00  0.00    +0.000 A 
ATOM     12  C   UNL     1      48.263   2.840  17.198  0.00  0.00    +0.000 A 
ATOM     13  C   UNL     1      47.234   3.757  17.344  0.00  0.00    +0.000 A 
ATOM     14  C   UNL     1      47.533   5.058  17.744  0.00  0.00    +0.000 A 
ATOM     15  C   UNL     1      48.850   5.416  18.010  0.00  0.00    +0.000 A 
ATOM     16  N   UNL     1      49.852   4.523  17.874  0.00  0.00    +0.000 NA
ENDBRANCH   8  15
ENDBRANCH   7   8
ENDBRANCH   1   7
BRANCH   4  17
ATOM     17  C   UNL     1      47.865   8.371  12.318  0.00  0.00    +0.000 C 
BRANCH  17  18
ATOM     18  N   UNL     1      47.265   7.179  11.763  0.00  0.00    +0.000 N 
ATOM     19  C   UNL     1      45.928   7.078  11.494  0.00  0.00    +0.000 C 
ATOM     20  O   UNL     1      45.143   7.995  11.725  0.00  0.00    +0.000 OA
ATOM     21  H   UNL     1      47.842   6.344  11.790  0.00  0.00    +0.000 HD
BRANCH  19  22
ATOM     22  C   UNL     1      45.486   5.839  10.843  0.00  0.00    +0.000 A 
ATOM     23  C   UNL     1      45.786   5.618   9.503  0.00  0.00    +0.000 A 
ATOM     24  S   UNL     1      45.228   4.118   8.915  0.00  0.00    +0.000 S 
ATOM     25  C   UNL     1      44.533   3.724  10.416  0.00  0.00    +0.000 A 
ATOM     26  N   UNL     1      43.855   2.556  10.591  0.00  0.00    +0.000 NA
ATOM     27  C   UNL     1      43.358   2.403  11.771  0.00  0.00    +0.000 A 
ATOM     28  N   UNL     1      43.483   3.299  12.799  0.00  0.00    +0.000 N 
ATOM     29  C   UNL     1      44.197   4.469  12.681  0.00  0.00    +0.000 A 
ATOM     30  O   UNL     1      44.358   5.207  13.645  0.00  0.00    +0.000 OA
ATOM     31  C   UNL     1      44.747   4.713  11.362  0.00  0.00    +0.000 A 
ATOM     32  H   UNL     1      43.091   3.105  13.706  0.00  0.00    +0.000 HD
ENDBRANCH  19  22
ENDBRANCH  17  18
ENDBRANCH   4  17
TORSDOF 6
ENDMDL
MODEL 8
REMARK VINA RESULT:    -6.918      1.874      2.847
REMARK INTER + INTRA:         -10.325
REMARK INTER:                  -9.077
REMARK INTRA:                  -1.248
REMARK UNBOUND:                -0.981
REMARK  Name = 
REMARK  7 active torsions:
REMARK  status: ('A' for Active; 'I' for Inactive)
REMARK    1  A    between atoms: C_1  and  C_2
REMARK    2  A    between atoms: C_6  and  N_7
REMARK    3  A    between atoms: N_7  and  C_8
REMARK    4  A    between atoms: C_8  and  C_9
REMARK    5  A    between atoms: C_12  and  C_13
REMARK    6  A    between atoms: C_13  and  N_14
REMARK    7  A    between atoms: C_15  and  C_17
REMARK                            x       y       z     vdW  Elec       q    Type
REMARK                         _______ _______ _______ _____ _____    ______ ____
ROOT
ATOM      1  C   UNL     1      45.533   7.791  11.789  0.00  0.00    +0.000 A 
ATOM      2  C   UNL     1      46.601   6.976  11.404  0.00  0.00    +0.000 A 
ATOM      3  C   UNL     1      47.818   7.056  12.080  0.00  0.00    +0.000 A 
ATOM      4  C   UNL     1      47.955   7.976  13.116  0.00  0.00    +0.000 A 
ATOM      5  N   UNL     1      46.933   8.778  13.511  0.00  0.00    +0.000 NA
ATOM      6  C   UNL     1      45.759   8.670  12.842  0.00  0.00    +0.000 A 
ENDROOT
BRANCH   1   7
ATOM      7  C   UNL     1      44.185   7.703  11.127  0.00  0.00    +0.000 C 
BRANCH   7   8
ATOM      8  N   UNL     1      43.368   6.665  11.701  0.00  0.00    +0.000 N 
ATOM      9  H   UNL     1      42.584   6.891  12.300  0.00  0.00    +0.000 HD
BRANCH   8  15
ATOM     10  C   UNL     1      44.658   3.335   8.592  0.00  0.00    +0.000 C 
ATOM     11  C   UNL     1      44.191   3.664   9.979  0.00  0.00    +0.000 A 
ATOM     12  C   UNL     1      43.956   2.652  10.900  0.00  0.00    +0.000 A 
ATOM     13  C   UNL     1      43.497   3.007  12.159  0.00  0.00    +0.000 A 
ATOM     14  C   UNL     1      43.282   4.351  12.452  0.00  0.00    +0.000 A 
ATOM     15  C   UNL     1      43.547   5.321  11.492  0.00  0.00    +0.000 A 
ATOM     16  N   UNL     1      43.999   4.979  10.267  0.00  0.00    +0.000 NA
ENDBRANCH   8  15
ENDBRANCH   7   8
ENDBRANCH   1   7
BRANCH   4  17
ATOM     17  C   UNL     1      49.269   8.112  13.848  0.00  0.00    +0.000 C 
BRANCH  17  18
ATOM     18  N   UNL     1      49.387   7.191  14.957  0.00  0.00    +0.000 N 
ATOM     19  C   UNL     1      49.047   7.526  16.238  0.00  0.00    +0.000 C 
ATOM     20  O   UNL     1      48.632   8.644  16.535  0.00  0.00    +0.000 OA
ATOM     21  H   UNL     1      49.943   6.360  14.778  0.00  0.00    +0.000 HD
BRANCH  19  22
ATOM     22  C   UNL     1      49.133   6.452  17.236  0.00  0.00    +0.000 A 
ATOM     23  C   UNL     1      49.889   6.638  18.387  0.00  0.00    +0.000 A 
ATOM     24  S   UNL     1      49.854   5.306  19.452  0.00  0.00    +0.000 S 
ATOM     25  C   UNL     1      48.860   4.417  18.396  0.00  0.00    +0.000 A 
ATOM     26  N   UNL     1      48.472   3.147  18.700  0.00  0.00    +0.000 NA
ATOM     27  C   UNL     1      47.744   2.585  17.796  0.00  0.00    +0.000 A 
ATOM     28  N   UNL     1      47.356   3.172  16.622  0.00  0.00    +0.000 N 
ATOM     29  C   UNL     1      47.685   4.467  16.296  0.00  0.00    +0.000 A 
ATOM     30  O   UNL     1      47.251   4.988  15.276  0.00  0.00    +0.000 OA
ATOM     31  C   UNL     1      48.536   5.137  17.258  0.00  0.00    +0.000 A 
ATOM     32  H   UNL     1      46.763   2.684  15.970  0.00  0.00    +0.000 HD
ENDBRANCH  19  22
ENDBRANCH  17  18
ENDBRANCH   4  17
TORSDOF 6
ENDMDL
MODEL 9
REMARK VINA RESULT:    -6.893      3.555      4.872
REMARK INTER + INTRA:         -10.292
REMARK INTER:                  -9.556
REMARK INTRA:                  -0.735
REMARK UNBOUND:                -0.981
REMARK  Name = 
REMARK  7 active torsions:
REMARK  status: ('A' for Active; 'I' for Inactive)
REMARK    1  A    between atoms: C_1  and  C_2
REMARK    2  A    between atoms: C_6  and  N_7
REMARK    3  A    between atoms: N_7  and  C_8
REMARK    4  A    between atoms: C_8  and  C_9
REMARK    5  A    between atoms: C_12  and  C_13
REMARK    6  A    between atoms: C_13  and  N_14
REMARK    7  A    between atoms: C_15  and  C_17
REMARK                            x       y       z     vdW  Elec       q    Type
REMARK                         _______ _______ _______ _____ _____    ______ ____
ROOT
ATOM      1  C   UNL     1      44.901   4.912  11.474  0.00  0.00    +0.000 A 
ATOM      2  C   UNL     1      45.159   4.323  12.714  0.00  0.00    +0.000 A 
ATOM      3  C   UNL     1      46.141   4.857  13.548  0.00  0.00    +0.000 A 
ATOM      4  C   UNL     1      46.871   5.960  13.112  0.00  0.00    +0.000 A 
ATOM      5  N   UNL     1      46.639   6.551  11.912  0.00  0.00    +0.000 NA
ATOM      6  C   UNL     1      45.671   6.017  11.128  0.00  0.00    +0.000 A 
ENDROOT
BRANCH   1   7
ATOM      7  C   UNL     1      43.816   4.406  10.563  0.00  0.00    +0.000 C 
BRANCH   7   8
ATOM      8  N   UNL     1      44.151   3.130   9.983  0.00  0.00    +0.000 N 
ATOM      9  H   UNL     1      43.707   2.280  10.303  0.00  0.00    +0.000 HD
BRANCH   8  15
ATOM     10  C   UNL     1      46.832  -0.010   7.665  0.00  0.00    +0.000 C 
ATOM     11  C   UNL     1      46.374   1.412   7.802  0.00  0.00    +0.000 A 
ATOM     12  C   UNL     1      46.879   2.396   6.964  0.00  0.00    +0.000 A 
ATOM     13  C   UNL     1      46.446   3.700   7.151  0.00  0.00    +0.000 A 
ATOM     14  C   UNL     1      45.533   3.976   8.166  0.00  0.00    +0.000 A 
ATOM     15  C   UNL     1      45.054   2.945   8.966  0.00  0.00    +0.000 A 
ATOM     16  N   UNL     1      45.470   1.674   8.783  0.00  0.00    +0.000 NA
ENDBRANCH   8  15
ENDBRANCH   7   8
ENDBRANCH   1   7
BRANCH   4  17
ATOM     17  C   UNL     1      47.963   6.544  13.975  0.00  0.00    +0.000 C 
BRANCH  17  18
ATOM     18  N   UNL     1      49.116   6.961  13.210  0.00  0.00    +0.000 N 
ATOM     19  C   UNL     1      49.719   8.178  13.380  0.00  0.00    +0.000 C 
ATOM     20  O   UNL     1      49.304   9.006  14.187  0.00  0.00    +0.000 OA
ATOM     21  H   UNL     1      49.322   6.402  12.387  0.00  0.00    +0.000 HD
BRANCH  19  22
ATOM     22  C   UNL     1      50.937   8.415  12.596  0.00  0.00    +0.000 A 
ATOM     23  C   UNL     1      50.853   8.556  11.215  0.00  0.00    +0.000 A 
ATOM     24  S   UNL     1      52.354   8.858  10.465  0.00  0.00    +0.000 S 
ATOM     25  C   UNL     1      53.177   8.774  11.951  0.00  0.00    +0.000 A 
ATOM     26  N   UNL     1      54.529   8.920  12.014  0.00  0.00    +0.000 NA
ATOM     27  C   UNL     1      55.021   8.805  13.201  0.00  0.00    +0.000 A 
ATOM     28  N   UNL     1      54.290   8.570  14.334  0.00  0.00    +0.000 N 
ATOM     29  C   UNL     1      52.919   8.463  14.324  0.00  0.00    +0.000 A 
ATOM     30  O   UNL     1      52.290   8.336  15.368  0.00  0.00    +0.000 OA
ATOM     31  C   UNL     1      52.314   8.545  13.010  0.00  0.00    +0.000 A 
ATOM     32  H   UNL     1      54.735   8.517  15.236  0.00  0.00    +0.000 HD
ENDBRANCH  19  22
ENDBRANCH  17  18
ENDBRANCH   4  17
TORSDOF 6
ENDMDL
