MODEL 1
REMARK VINA RESULT:    -8.417      0.000      0.000
REMARK INTER + INTRA:         -12.754
REMARK INTER:                 -11.862
REMARK INTRA:                  -0.892
REMARK UNBOUND:                -0.892
REMARK  Name = 
REMARK  8 active torsions:
REMARK  status: ('A' for Active; 'I' for Inactive)
REMARK    1  A    between atoms: C_1  and  C_2
REMARK    2  A    between atoms: C_2  and  N_3
REMARK    3  A    between atoms: C_2  and  C_25
REMARK    4  A    between atoms: N_3  and  C_4
REMARK    5  A    between atoms: C_4  and  C_5
REMARK    6  A    between atoms: C_8  and  C_9
REMARK    7  A    between atoms: C_9  and  N_10
REMARK    8  A    between atoms: C_11  and  C_13
REMARK                            x       y       z     vdW  Elec       q    Type
REMARK                         _______ _______ _______ _____ _____    ______ ____
ROOT
ATOM      1  C   UNL     1      44.561   6.139  11.759  0.00  0.00    +0.000 A 
ATOM      2  C   UNL     1      45.620   6.834  11.171  0.00  0.00    +0.000 A 
ATOM      3  C   UNL     1      46.841   6.935  11.835  0.00  0.00    +0.000 A 
ATOM      4  C   UNL     1      46.972   6.354  13.092  0.00  0.00    +0.000 A 
ATOM      5  N   UNL     1      45.962   5.667  13.684  0.00  0.00    +0.000 NA
ATOM      6  C   UNL     1      44.792   5.572  13.008  0.00  0.00    +0.000 A 
ENDROOT
BRANCH   1   7
ATOM      7  C   UNL     1      43.277   5.894  11.015  0.00  0.00    +0.000 C 
BRANCH   7   8
ATOM      8  N   UNL     1      43.381   4.847   9.993  0.00  0.00    +0.000 NA
ATOM      9  H   UNL     1      43.700   5.278   9.125  0.00  0.00    +0.000 HD
BRANCH   8  11
ATOM     10  C   UNL     1      43.660   2.500  10.816  0.00  0.00    +0.000 C 
ATOM     11  C   UNL     1      44.354   3.799  10.369  0.00  0.00    +0.000 C 
BRANCH  11  12
ATOM     12  C   UNL     1      45.307   3.419   9.235  0.00  0.00    +0.000 A 
ATOM     13  C   UNL     1      45.729   4.338   8.262  0.00  0.00    +0.000 A 
ATOM     14  C   UNL     1      46.440   3.913   7.134  0.00  0.00    +0.000 A 
ATOM     15  C   UNL     1      46.727   2.560   6.954  0.00  0.00    +0.000 A 
ATOM     16  C   UNL     1      46.337   1.641   7.922  0.00  0.00    +0.000 A 
ATOM     17 CL   UNL     1      46.645  -0.035   7.684  0.00  0.00    +0.000 Cl
ATOM     18  C   UNL     1      45.651   2.064   9.062  0.00  0.00    +0.000 A 
ENDBRANCH  11  12
ENDBRANCH   8  11
ENDBRANCH   7   8
ENDBRANCH   1   7
BRANCH   4  19
ATOM     19  C   UNL     1      48.286   6.437  13.830  0.00  0.00    +0.000 C 
BRANCH  19  20
ATOM     20  N   UNL     1      48.100   6.601  15.253  0.00  0.00    +0.000 N 
ATOM     21  C   UNL     1      49.115   6.486  16.163  0.00  0.00    +0.000 C 
ATOM     22  O   UNL     1      50.267   6.233  15.830  0.00  0.00    +0.000 OA
ATOM     23  H   UNL     1      47.134   6.551  15.567  0.00  0.00    +0.000 HD
BRANCH  21  24
ATOM     24  C   UNL     1      48.764   6.771  17.563  0.00  0.00    +0.000 A 
ATOM     25  C   UNL     1      48.448   8.068  17.946  0.00  0.00    +0.000 A 
ATOM     26  S   UNL     1      47.979   8.204  19.581  0.00  0.00    +0.000 S 
ATOM     27  C   UNL     1      48.229   6.542  19.848  0.00  0.00    +0.000 A 
ATOM     28  N   UNL     1      48.009   5.989  21.072  0.00  0.00    +0.000 NA
ATOM     29  C   UNL     1      48.265   4.725  21.139  0.00  0.00    +0.000 A 
ATOM     30  N   UNL     1      48.724   3.964  20.096  0.00  0.00    +0.000 N 
ATOM     31  C   UNL     1      48.924   4.470  18.836  0.00  0.00    +0.000 A 
ATOM     32  O   UNL     1      49.281   3.748  17.911  0.00  0.00    +0.000 OA
ATOM     33  C   UNL     1      48.659   5.891  18.705  0.00  0.00    +0.000 A 
ATOM     34  H   UNL     1      48.898   2.976  20.209  0.00  0.00    +0.000 HD
ENDBRANCH  21  24
ENDBRANCH  19  20
ENDBRANCH   4  19
TORSDOF 7
ENDMDL
MODEL 2
REMARK VINA RESULT:    -8.260      1.402      1.681
REMARK INTER + INTRA:         -12.533
REMARK INTER:                 -11.728
REMARK INTRA:                  -0.805
REMARK UNBOUND:                -0.892
REMARK  Name = 
REMARK  8 active torsions:
REMARK  status: ('A' for Active; 'I' for Inactive)
REMARK    1  A    between atoms: C_1  and  C_2
REMARK    2  A    between atoms: C_2  and  N_3
REMARK    3  A    between atoms: C_2  and  C_25
REMARK    4  A    between atoms: N_3  and  C_4
REMARK    5  A    between atoms: C_4  and  C_5
REMARK    6  A    between atoms: C_8  and  C_9
REMARK    7  A    between atoms: C_9  and  N_10
REMARK    8  A    between atoms: C_11  and  C_13
REMARK                            x       y       z     vdW  Elec       q    Type
REMARK                         _______ _______ _______ _____ _____    ______ ____
ROOT
ATOM      1  C   UNL     1      44.341   6.417  11.614  0.00  0.00    +0.000 A 
ATOM      2  C   UNL     1      45.197   5.717  12.467  0.00  0.00    +0.000 A 
ATOM      3  C   UNL     1      46.226   6.388  13.124  0.00  0.00    +0.000 A 
ATOM      4  C   UNL     1      46.394   7.750  12.897  0.00  0.00    +0.000 A 
ATOM      5  N   UNL     1      45.573   8.456  12.078  0.00  0.00    +0.000 NA
ATOM      6  C   UNL     1      44.571   7.781  11.465  0.00  0.00    +0.000 A 
ENDROOT
BRANCH   1   7
ATOM      7  C   UNL     1      43.140   5.755  10.996  0.00  0.00    +0.000 C 
BRANCH   7   8
ATOM      8  N   UNL     1      43.470   4.862   9.880  0.00  0.00    +0.000 NA
ATOM      9  H   UNL     1      43.902   5.419   9.142  0.00  0.00    +0.000 HD
BRANCH   8  11
ATOM     10  C   UNL     1      43.711   2.524  10.737  0.00  0.00    +0.000 C 
ATOM     11  C   UNL     1      44.426   3.806  10.278  0.00  0.00    +0.000 C 
BRANCH  11  12
ATOM     12  C   UNL     1      45.382   3.398   9.156  0.00  0.00    +0.000 A 
ATOM     13  C   UNL     1      45.830   4.300   8.178  0.00  0.00    +0.000 A 
ATOM     14  C   UNL     1      46.543   3.850   7.061  0.00  0.00    +0.000 A 
ATOM     15  C   UNL     1      46.804   2.490   6.895  0.00  0.00    +0.000 A 
ATOM     16  C   UNL     1      46.388   1.588   7.868  0.00  0.00    +0.000 A 
ATOM     17 CL   UNL     1      46.665  -0.096   7.648  0.00  0.00    +0.000 Cl
ATOM     18  C   UNL     1      45.700   2.034   8.998  0.00  0.00    +0.000 A 
ENDBRANCH  11  12
ENDBRANCH   8  11
ENDBRANCH   7   8
ENDBRANCH   1   7
BRANCH   4  19
ATOM     19  C   UNL     1      47.493   8.506  13.603  0.00  0.00    +0.000 C 
BRANCH  19  20
ATOM     20  N   UNL     1      47.821   7.919  14.882  0.00  0.00    +0.000 N 
ATOM     21  C   UNL     1      48.943   7.168  15.100  0.00  0.00    +0.000 C 
ATOM     22  O   UNL     1      49.760   6.940  14.215  0.00  0.00    +0.000 OA
ATOM     23  H   UNL     1      47.049   7.875  15.543  0.00  0.00    +0.000 HD
BRANCH  21  24
ATOM     24  C   UNL     1      49.164   6.723  16.484  0.00  0.00    +0.000 A 
ATOM     25  C   UNL     1      49.773   7.575  17.397  0.00  0.00    +0.000 A 
ATOM     26  S   UNL     1      49.869   6.933  18.974  0.00  0.00    +0.000 S 
ATOM     27  C   UNL     1      49.144   5.474  18.485  0.00  0.00    +0.000 A 
ATOM     28  N   UNL     1      48.931   4.465  19.373  0.00  0.00    +0.000 NA
ATOM     29  C   UNL     1      48.400   3.406  18.859  0.00  0.00    +0.000 A 
ATOM     30  N   UNL     1      48.064   3.262  17.538  0.00  0.00    +0.000 N 
ATOM     31  C   UNL     1      48.226   4.264  16.615  0.00  0.00    +0.000 A 
ATOM     32  O   UNL     1      47.861   4.121  15.453  0.00  0.00    +0.000 OA
ATOM     33  C   UNL     1      48.828   5.477  17.137  0.00  0.00    +0.000 A 
ATOM     34  H   UNL     1      47.642   2.410  17.198  0.00  0.00    +0.000 HD
ENDBRANCH  21  24
ENDBRANCH  19  20
ENDBRANCH   4  19
TORSDOF 7
ENDMDL
MODEL 3
REMARK VINA RESULT:    -8.017      1.343      1.939
REMARK INTER + INTRA:         -12.190
REMARK INTER:                 -11.230
REMARK INTRA:                  -0.960
REMARK UNBOUND:                -0.892
REMARK  Name = 
REMARK  8 active torsions:
REMARK  status: ('A' for Active; 'I' for Inactive)
REMARK    1  A    between atoms: C_1  and  C_2
REMARK    2  A    between atoms: C_2  and  N_3
REMARK    3  A    between atoms: C_2  and  C_25
REMARK    4  A    between atoms: N_3  and  C_4
REMARK    5  A    between atoms: C_4  and  C_5
REMARK    6  A    between atoms: C_8  and  C_9
REMARK    7  A    between atoms: C_9  and  N_10
REMARK    8  A    between atoms: C_11  and  C_13
REMARK                            x       y       z     vdW  Elec       q    Type
REMARK                         _______ _______ _______ _____ _____    ______ ____
ROOT
ATOM      1  C   UNL     1      44.426   6.131  11.703  0.00  0.00    +0.000 A 
ATOM      2  C   UNL     1      44.965   7.379  11.383  0.00  0.00    +0.000 A 
ATOM      3  C   UNL     1      46.085   7.850  12.065  0.00  0.00    +0.000 A 
ATOM      4  C   UNL     1      46.634   7.068  13.076  0.00  0.00    +0.000 A 
ATOM      5  N   UNL     1      46.134   5.849  13.404  0.00  0.00    +0.000 NA
ATOM      6  C   UNL     1      45.055   5.411  12.713  0.00  0.00    +0.000 A 
ENDROOT
BRANCH   1   7
ATOM      7  C   UNL     1      43.305   5.534  10.898  0.00  0.00    +0.000 C 
BRANCH   7   8
ATOM      8  N   UNL     1      43.759   4.808   9.706  0.00  0.00    +0.000 NA
ATOM      9  H   UNL     1      44.286   5.456   9.120  0.00  0.00    +0.000 HD
BRANCH   8  11
ATOM     10  C   UNL     1      43.851   2.444  10.520  0.00  0.00    +0.000 C 
ATOM     11  C   UNL     1      44.645   3.675  10.051  0.00  0.00    +0.000 C 
BRANCH  11  12
ATOM     12  C   UNL     1      45.523   3.215   8.886  0.00  0.00    +0.000 A 
ATOM     13  C   UNL     1      45.897   4.068   7.836  0.00  0.00    +0.000 A 
ATOM     14  C   UNL     1      46.533   3.566   6.696  0.00  0.00    +0.000 A 
ATOM     15  C   UNL     1      46.791   2.201   6.579  0.00  0.00    +0.000 A 
ATOM     16  C   UNL     1      46.449   1.346   7.622  0.00  0.00    +0.000 A 
ATOM     17 CL   UNL     1      46.720  -0.346   7.466  0.00  0.00    +0.000 Cl
ATOM     18  C   UNL     1      45.839   1.846   8.774  0.00  0.00    +0.000 A 
ENDBRANCH  11  12
ENDBRANCH   8  11
ENDBRANCH   7   8
ENDBRANCH   1   7
BRANCH   4  19
ATOM     19  C   UNL     1      47.854   7.546  13.825  0.00  0.00    +0.000 C 
BRANCH  19  20
ATOM     20  N   UNL     1      47.889   7.048  15.181  0.00  0.00    +0.000 N 
ATOM     21  C   UNL     1      49.037   6.639  15.803  0.00  0.00    +0.000 C 
ATOM     22  O   UNL     1      50.128   6.667  15.246  0.00  0.00    +0.000 OA
ATOM     23  H   UNL     1      46.986   6.775  15.560  0.00  0.00    +0.000 HD
BRANCH  21  24
ATOM     24  C   UNL     1      48.902   6.244  17.213  0.00  0.00    +0.000 A 
ATOM     25  C   UNL     1      49.267   4.964  17.611  0.00  0.00    +0.000 A 
ATOM     26  S   UNL     1      49.131   4.704  19.291  0.00  0.00    +0.000 S 
ATOM     27  C   UNL     1      48.533   6.277  19.542  0.00  0.00    +0.000 A 
ATOM     28  N   UNL     1      48.203   6.711  20.789  0.00  0.00    +0.000 NA
ATOM     29  C   UNL     1      47.736   7.914  20.829  0.00  0.00    +0.000 A 
ATOM     30  N   UNL     1      47.566   8.723  19.736  0.00  0.00    +0.000 N 
ATOM     31  C   UNL     1      47.918   8.343  18.466  0.00  0.00    +0.000 A 
ATOM     32  O   UNL     1      47.805   9.113  17.518  0.00  0.00    +0.000 OA
ATOM     33  C   UNL     1      48.442   6.993  18.361  0.00  0.00    +0.000 A 
ATOM     34  H   UNL     1      47.202   9.660  19.833  0.00  0.00    +0.000 HD
ENDBRANCH  21  24
ENDBRANCH  19  20
ENDBRANCH   4  19
TORSDOF 7
ENDMDL
MODEL 4
REMARK VINA RESULT:    -7.847      3.611      8.886
REMARK INTER + INTRA:         -11.951
REMARK INTER:                 -10.331
REMARK INTRA:                  -1.620
REMARK UNBOUND:                -0.892
REMARK  Name = 
REMARK  8 active torsions:
REMARK  status: ('A' for Active; 'I' for Inactive)
REMARK    1  A    between atoms: C_1  and  C_2
REMARK    2  A    between atoms: C_2  and  N_3
REMARK    3  A    between atoms: C_2  and  C_25
REMARK    4  A    between atoms: N_3  and  C_4
REMARK    5  A    between atoms: C_4  and  C_5
REMARK    6  A    between atoms: C_8  and  C_9
REMARK    7  A    between atoms: C_9  and  N_10
REMARK    8  A    between atoms: C_11  and  C_13
REMARK                            x       y       z     vdW  Elec       q    Type
REMARK                         _______ _______ _______ _____ _____    ______ ____
ROOT
ATOM      1  C   UNL     1      49.220   8.013  16.191  0.00  0.00    +0.000 A 
ATOM      2  C   UNL     1      48.292   8.940  15.712  0.00  0.00    +0.000 A 
ATOM      3  C   UNL     1      47.829   8.849  14.401  0.00  0.00    +0.000 A 
ATOM      4  C   UNL     1      48.323   7.839  13.583  0.00  0.00    +0.000 A 
ATOM      5  N   UNL     1      49.220   6.920  14.024  0.00  0.00    +0.000 NA
ATOM      6  C   UNL     1      49.639   7.024  15.308  0.00  0.00    +0.000 A 
ENDROOT
BRANCH   1   7
ATOM      7  C   UNL     1      49.637   7.999  17.636  0.00  0.00    +0.000 C 
BRANCH   7   8
ATOM      8  N   UNL     1      48.558   7.620  18.556  0.00  0.00    +0.000 NA
ATOM      9  H   UNL     1      47.697   7.526  18.017  0.00  0.00    +0.000 HD
BRANCH   8  11
ATOM     10  C   UNL     1      47.917   6.107  20.444  0.00  0.00    +0.000 C 
ATOM     11  C   UNL     1      48.826   6.327  19.222  0.00  0.00    +0.000 C 
BRANCH  11  12
ATOM     12  C   UNL     1      48.629   5.118  18.306  0.00  0.00    +0.000 A 
ATOM     13  C   UNL     1      47.374   4.758  17.789  0.00  0.00    +0.000 A 
ATOM     14  C   UNL     1      47.197   3.543  17.118  0.00  0.00    +0.000 A 
ATOM     15  C   UNL     1      48.268   2.662  16.966  0.00  0.00    +0.000 A 
ATOM     16  C   UNL     1      49.522   3.017  17.451  0.00  0.00    +0.000 A 
ATOM     17 CL   UNL     1      50.837   1.915  17.310  0.00  0.00    +0.000 Cl
ATOM     18  C   UNL     1      49.710   4.240  18.097  0.00  0.00    +0.000 A 
ENDBRANCH  11  12
ENDBRANCH   8  11
ENDBRANCH   7   8
ENDBRANCH   1   7
BRANCH   4  19
ATOM     19  C   UNL     1      47.831   7.707  12.162  0.00  0.00    +0.000 C 
BRANCH  19  20
ATOM     20  N   UNL     1      47.064   6.499  11.962  0.00  0.00    +0.000 N 
ATOM     21  C   UNL     1      45.702   6.444  12.077  0.00  0.00    +0.000 C 
ATOM     22  O   UNL     1      45.029   7.429  12.360  0.00  0.00    +0.000 OA
ATOM     23  H   UNL     1      47.607   5.640  11.986  0.00  0.00    +0.000 HD
BRANCH  21  24
ATOM     24  C   UNL     1      45.078   5.153  11.753  0.00  0.00    +0.000 A 
ATOM     25  C   UNL     1      44.387   4.453  12.734  0.00  0.00    +0.000 A 
ATOM     26  S   UNL     1      43.652   3.023  12.165  0.00  0.00    +0.000 S 
ATOM     27  C   UNL     1      44.272   3.261  10.598  0.00  0.00    +0.000 A 
ATOM     28  N   UNL     1      44.014   2.373   9.600  0.00  0.00    +0.000 NA
ATOM     29  C   UNL     1      44.571   2.663   8.472  0.00  0.00    +0.000 A 
ATOM     30  N   UNL     1      45.363   3.758   8.250  0.00  0.00    +0.000 N 
ATOM     31  C   UNL     1      45.620   4.699   9.215  0.00  0.00    +0.000 A 
ATOM     32  O   UNL     1      46.288   5.697   8.966  0.00  0.00    +0.000 OA
ATOM     33  C   UNL     1      45.026   4.418  10.509  0.00  0.00    +0.000 A 
ATOM     34  H   UNL     1      45.764   3.935   7.340  0.00  0.00    +0.000 HD
ENDBRANCH  21  24
ENDBRANCH  19  20
ENDBRANCH   4  19
TORSDOF 7
ENDMDL
MODEL 5
REMARK VINA RESULT:    -7.729      3.865      8.519
REMARK INTER + INTRA:         -11.784
REMARK INTER:                 -10.161
REMARK INTRA:                  -1.623
REMARK UNBOUND:                -0.892
REMARK  Name = 
REMARK  8 active torsions:
REMARK  status: ('A' for Active; 'I' for Inactive)
REMARK    1  A    between atoms: C_1  and  C_2
REMARK    2  A    between atoms: C_2  and  N_3
REMARK    3  A    between atoms: C_2  and  C_25
REMARK    4  A    between atoms: N_3  and  C_4
REMARK    5  A    between atoms: C_4  and  C_5
REMARK    6  A    between atoms: C_8  and  C_9
REMARK    7  A    between atoms: C_9  and  N_10
REMARK    8  A    between atoms: C_11  and  C_13
REMARK                            x       y       z     vdW  Elec       q    Type
REMARK                         _______ _______ _______ _____ _____    ______ ____
ROOT
ATOM      1  C   UNL     1      48.736   8.059  16.137  0.00  0.00    +0.000 A 
ATOM      2  C   UNL     1      49.014   6.898  15.412  0.00  0.00    +0.000 A 
ATOM      3  C   UNL     1      48.884   6.896  14.024  0.00  0.00    +0.000 A 
ATOM      4  C   UNL     1      48.455   8.054  13.388  0.00  0.00    +0.000 A 
ATOM      5  N   UNL     1      48.184   9.199  14.066  0.00  0.00    +0.000 NA
ATOM      6  C   UNL     1      48.335   9.176  15.412  0.00  0.00    +0.000 A 
ENDROOT
BRANCH   1   7
ATOM      7  C   UNL     1      48.995   8.138  17.616  0.00  0.00    +0.000 C 
BRANCH   7   8
ATOM      8  N   UNL     1      47.915   7.575  18.434  0.00  0.00    +0.000 NA
ATOM      9  H   UNL     1      47.144   7.322  17.814  0.00  0.00    +0.000 HD
BRANCH   8  11
ATOM     10  C   UNL     1      47.427   6.042  20.350  0.00  0.00    +0.000 C 
ATOM     11  C   UNL     1      48.342   6.355  19.154  0.00  0.00    +0.000 C 
BRANCH  11  12
ATOM     12  C   UNL     1      48.358   5.104  18.274  0.00  0.00    +0.000 A 
ATOM     13  C   UNL     1      47.188   4.532  17.751  0.00  0.00    +0.000 A 
ATOM     14  C   UNL     1      47.220   3.285  17.117  0.00  0.00    +0.000 A 
ATOM     15  C   UNL     1      48.420   2.582  17.011  0.00  0.00    +0.000 A 
ATOM     16  C   UNL     1      49.592   3.147  17.503  0.00  0.00    +0.000 A 
ATOM     17 CL   UNL     1      51.068   2.266  17.418  0.00  0.00    +0.000 Cl
ATOM     18  C   UNL     1      49.569   4.404  18.111  0.00  0.00    +0.000 A 
ENDBRANCH  11  12
ENDBRANCH   8  11
ENDBRANCH   7   8
ENDBRANCH   1   7
BRANCH   4  19
ATOM     19  C   UNL     1      48.316   8.086  11.885  0.00  0.00    +0.000 C 
BRANCH  19  20
ATOM     20  N   UNL     1      47.557   6.962  11.386  0.00  0.00    +0.000 N 
ATOM     21  C   UNL     1      46.190   6.928  11.362  0.00  0.00    +0.000 C 
ATOM     22  O   UNL     1      45.505   7.860  11.768  0.00  0.00    +0.000 OA
ATOM     23  H   UNL     1      48.084   6.098  11.293  0.00  0.00    +0.000 HD
BRANCH  21  24
ATOM     24  C   UNL     1      45.584   5.742  10.739  0.00  0.00    +0.000 A 
ATOM     25  C   UNL     1      45.760   5.507   9.382  0.00  0.00    +0.000 A 
ATOM     26  S   UNL     1      45.067   4.044   8.844  0.00  0.00    +0.000 S 
ATOM     27  C   UNL     1      44.463   3.696  10.396  0.00  0.00    +0.000 A 
ATOM     28  N   UNL     1      43.750   2.560  10.632  0.00  0.00    +0.000 NA
ATOM     29  C   UNL     1      43.329   2.438  11.847  0.00  0.00    +0.000 A 
ATOM     30  N   UNL     1      43.554   3.347  12.847  0.00  0.00    +0.000 N 
ATOM     31  C   UNL     1      44.298   4.485  12.666  0.00  0.00    +0.000 A 
ATOM     32  O   UNL     1      44.528   5.249  13.598  0.00  0.00    +0.000 OA
ATOM     33  C   UNL     1      44.790   4.679  11.314  0.00  0.00    +0.000 A 
ATOM     34  H   UNL     1      43.205   3.190  13.781  0.00  0.00    +0.000 HD
ENDBRANCH  21  24
ENDBRANCH  19  20
ENDBRANCH   4  19
TORSDOF 7
ENDMDL
MODEL 6
REMARK VINA RESULT:    -7.683      2.507      3.021
REMARK INTER + INTRA:         -11.720
REMARK INTER:                 -10.677
REMARK INTRA:                  -1.043
REMARK UNBOUND:                -0.892
REMARK  Name = 
REMARK  8 active torsions:
REMARK  status: ('A' for Active; 'I' for Inactive)
REMARK    1  A    between atoms: C_1  and  C_2
REMARK    2  A    between atoms: C_2  and  N_3
REMARK    3  A    between atoms: C_2  and  C_25
REMARK    4  A    between atoms: N_3  and  C_4
REMARK    5  A    between atoms: C_4  and  C_5
REMARK    6  A    between atoms: C_8  and  C_9
REMARK    7  A    between atoms: C_9  and  N_10
REMARK    8  A    between atoms: C_11  and  C_13
REMARK                            x       y       z     vdW  Elec       q    Type
REMARK                         _______ _______ _______ _____ _____    ______ ____
ROOT
ATOM      1  C   UNL     1      45.712   4.974  12.963  0.00  0.00    +0.000 A 
ATOM      2  C   UNL     1      46.531   4.705  14.062  0.00  0.00    +0.000 A 
ATOM      3  C   UNL     1      47.557   5.586  14.398  0.00  0.00    +0.000 A 
ATOM      4  C   UNL     1      47.759   6.714  13.610  0.00  0.00    +0.000 A 
ATOM      5  N   UNL     1      46.974   7.004  12.541  0.00  0.00    +0.000 NA
ATOM      6  C   UNL     1      45.975   6.138  12.248  0.00  0.00    +0.000 A 
ENDROOT
BRANCH   1   7
ATOM      7  C   UNL     1      44.514   4.119  12.654  0.00  0.00    +0.000 C 
BRANCH   7   8
ATOM      8  N   UNL     1      44.807   3.001  11.750  0.00  0.00    +0.000 NA
ATOM      9  H   UNL     1      44.415   2.150  12.157  0.00  0.00    +0.000 HD
BRANCH   8  11
ATOM     10  C   UNL     1      43.583   4.593  10.257  0.00  0.00    +0.000 C 
ATOM     11  C   UNL     1      44.199   3.192  10.415  0.00  0.00    +0.000 C 
BRANCH  11  12
ATOM     12  C   UNL     1      45.192   3.018   9.265  0.00  0.00    +0.000 A 
ATOM     13  C   UNL     1      45.539   4.067   8.399  0.00  0.00    +0.000 A 
ATOM     14  C   UNL     1      46.295   3.825   7.247  0.00  0.00    +0.000 A 
ATOM     15  C   UNL     1      46.702   2.529   6.933  0.00  0.00    +0.000 A 
ATOM     16  C   UNL     1      46.387   1.483   7.794  0.00  0.00    +0.000 A 
ATOM     17 CL   UNL     1      46.845  -0.125   7.390  0.00  0.00    +0.000 Cl
ATOM     18  C   UNL     1      45.657   1.723   8.959  0.00  0.00    +0.000 A 
ENDBRANCH  11  12
ENDBRANCH   8  11
ENDBRANCH   7   8
ENDBRANCH   1   7
BRANCH   4  19
ATOM     19  C   UNL     1      48.855   7.693  13.956  0.00  0.00    +0.000 C 
BRANCH  19  20
ATOM     20  N   UNL     1      49.989   7.044  14.571  0.00  0.00    +0.000 N 
ATOM     21  C   UNL     1      50.716   7.601  15.587  0.00  0.00    +0.000 C 
ATOM     22  O   UNL     1      50.451   8.703  16.053  0.00  0.00    +0.000 OA
ATOM     23  H   UNL     1      50.378   6.268  14.040  0.00  0.00    +0.000 HD
BRANCH  21  24
ATOM     24  C   UNL     1      51.783   6.762  16.154  0.00  0.00    +0.000 A 
ATOM     25  C   UNL     1      53.114   7.083  15.918  0.00  0.00    +0.000 A 
ATOM     26  S   UNL     1      54.218   6.061  16.721  0.00  0.00    +0.000 S 
ATOM     27  C   UNL     1      52.958   5.122  17.374  0.00  0.00    +0.000 A 
ATOM     28  N   UNL     1      53.223   4.053  18.175  0.00  0.00    +0.000 NA
ATOM     29  C   UNL     1      52.175   3.415  18.576  0.00  0.00    +0.000 A 
ATOM     30  N   UNL     1      50.886   3.745  18.248  0.00  0.00    +0.000 N 
ATOM     31  C   UNL     1      50.569   4.834  17.475  0.00  0.00    +0.000 A 
ATOM     32  O   UNL     1      49.401   5.133  17.249  0.00  0.00    +0.000 OA
ATOM     33  C   UNL     1      51.712   5.584  16.989  0.00  0.00    +0.000 A 
ATOM     34  H   UNL     1      50.106   3.210  18.601  0.00  0.00    +0.000 HD
ENDBRANCH  21  24
ENDBRANCH  19  20
ENDBRANCH   4  19
TORSDOF 7
ENDMDL
MODEL 7
REMARK VINA RESULT:    -7.359      3.741      8.896
REMARK INTER + INTRA:         -11.263
REMARK INTER:                  -9.654
REMARK INTRA:                  -1.608
REMARK UNBOUND:                -0.892
REMARK  Name = 
REMARK  8 active torsions:
REMARK  status: ('A' for Active; 'I' for Inactive)
REMARK    1  A    between atoms: C_1  and  C_2
REMARK    2  A    between atoms: C_2  and  N_3
REMARK    3  A    between atoms: C_2  and  C_25
REMARK    4  A    between atoms: N_3  and  C_4
REMARK    5  A    between atoms: C_4  and  C_5
REMARK    6  A    between atoms: C_8  and  C_9
REMARK    7  A    between atoms: C_9  and  N_10
REMARK    8  A    between atoms: C_11  and  C_13
REMARK                            x       y       z     vdW  Elec       q    Type
REMARK                         _______ _______ _______ _____ _____    ______ ____
ROOT
ATOM      1  C   UNL     1      49.885   8.220  15.211  0.00  0.00    +0.000 A 
ATOM      2  C   UNL     1      48.606   8.767  15.333  0.00  0.00    +0.000 A 
ATOM      3  C   UNL     1      47.730   8.737  14.250  0.00  0.00    +0.000 A 
ATOM      4  C   UNL     1      48.161   8.178  13.052  0.00  0.00    +0.000 A 
ATOM      5  N   UNL     1      49.396   7.634  12.907  0.00  0.00    +0.000 NA
ATOM      6  C   UNL     1      50.220   7.662  13.982  0.00  0.00    +0.000 A 
ENDROOT
BRANCH   1   7
ATOM      7  C   UNL     1      50.806   8.113  16.396  0.00  0.00    +0.000 C 
BRANCH   7   8
ATOM      8  N   UNL     1      51.070   6.731  16.812  0.00  0.00    +0.000 NA
ATOM      9  H   UNL     1      52.064   6.646  17.025  0.00  0.00    +0.000 HD
BRANCH   8  11
ATOM     10  C   UNL     1      49.595   7.574  18.649  0.00  0.00    +0.000 C 
ATOM     11  C   UNL     1      50.308   6.362  18.025  0.00  0.00    +0.000 C 
BRANCH  11  12
ATOM     12  C   UNL     1      49.233   5.304  17.769  0.00  0.00    +0.000 A 
ATOM     13  C   UNL     1      49.099   4.154  18.562  0.00  0.00    +0.000 A 
ATOM     14  C   UNL     1      48.237   3.119  18.184  0.00  0.00    +0.000 A 
ATOM     15  C   UNL     1      47.507   3.210  16.999  0.00  0.00    +0.000 A 
ATOM     16  C   UNL     1      47.610   4.355  16.216  0.00  0.00    +0.000 A 
ATOM     17 CL   UNL     1      46.749   4.455  14.730  0.00  0.00    +0.000 Cl
ATOM     18  C   UNL     1      48.448   5.402  16.603  0.00  0.00    +0.000 A 
ENDBRANCH  11  12
ENDBRANCH   8  11
ENDBRANCH   7   8
ENDBRANCH   1   7
BRANCH   4  19
ATOM     19  C   UNL     1      47.230   8.121  11.865  0.00  0.00    +0.000 C 
BRANCH  19  20
ATOM     20  N   UNL     1      46.575   6.839  11.750  0.00  0.00    +0.000 N 
ATOM     21  C   UNL     1      45.222   6.694  11.615  0.00  0.00    +0.000 C 
ATOM     22  O   UNL     1      44.461   7.654  11.582  0.00  0.00    +0.000 OA
ATOM     23  H   UNL     1      47.141   6.042  12.031  0.00  0.00    +0.000 HD
BRANCH  21  24
ATOM     24  C   UNL     1      44.735   5.320  11.422  0.00  0.00    +0.000 A 
ATOM     25  C   UNL     1      43.988   4.704  12.418  0.00  0.00    +0.000 A 
ATOM     26  S   UNL     1      43.429   3.149  11.993  0.00  0.00    +0.000 S 
ATOM     27  C   UNL     1      44.207   3.223  10.481  0.00  0.00    +0.000 A 
ATOM     28  N   UNL     1      44.131   2.186   9.602  0.00  0.00    +0.000 NA
ATOM     29  C   UNL     1      44.791   2.365   8.507  0.00  0.00    +0.000 A 
ATOM     30  N   UNL     1      45.522   3.485   8.210  0.00  0.00    +0.000 N 
ATOM     31  C   UNL     1      45.597   4.570   9.047  0.00  0.00    +0.000 A 
ATOM     32  O   UNL     1      46.214   5.579   8.725  0.00  0.00    +0.000 OA
ATOM     33  C   UNL     1      44.879   4.419  10.300  0.00  0.00    +0.000 A 
ATOM     34  H   UNL     1      46.010   3.570   7.331  0.00  0.00    +0.000 HD
ENDBRANCH  21  24
ENDBRANCH  19  20
ENDBRANCH   4  19
TORSDOF 7
ENDMDL
MODEL 8
REMARK VINA RESULT:    -7.238      3.984      8.727
REMARK INTER + INTRA:         -11.092
REMARK INTER:                  -9.705
REMARK INTRA:                  -1.386
REMARK UNBOUND:                -0.892
REMARK  Name = 
REMARK  8 active torsions:
REMARK  status: ('A' for Active; 'I' for Inactive)
REMARK    1  A    between atoms: C_1  and  C_2
REMARK    2  A    between atoms: C_2  and  N_3
REMARK    3  A    between atoms: C_2  and  C_25
REMARK    4  A    between atoms: N_3  and  C_4
REMARK    5  A    between atoms: C_4  and  C_5
REMARK    6  A    between atoms: C_8  and  C_9
REMARK    7  A    between atoms: C_9  and  N_10
REMARK    8  A    between atoms: C_11  and  C_13
REMARK                            x       y       z     vdW  Elec       q    Type
REMARK                         _______ _______ _______ _____ _____    ______ ____
ROOT
ATOM      1  C   UNL     1      50.260   7.345  15.572  0.00  0.00    +0.000 A 
ATOM      2  C   UNL     1      49.031   6.737  15.307  0.00  0.00    +0.000 A 
ATOM      3  C   UNL     1      48.387   6.969  14.094  0.00  0.00    +0.000 A 
ATOM      4  C   UNL     1      48.977   7.828  13.173  0.00  0.00    +0.000 A 
ATOM      5  N   UNL     1      50.173   8.428  13.401  0.00  0.00    +0.000 NA
ATOM      6  C   UNL     1      50.784   8.170  14.583  0.00  0.00    +0.000 A 
ENDROOT
BRANCH   1   7
ATOM      7  C   UNL     1      51.047   7.012  16.810  0.00  0.00    +0.000 C 
BRANCH   7   8
ATOM      8  N   UNL     1      50.227   6.932  18.024  0.00  0.00    +0.000 NA
ATOM      9  H   UNL     1      49.245   6.935  17.747  0.00  0.00    +0.000 HD
BRANCH   8  11
ATOM     10  C   UNL     1      49.636   5.615  20.068  0.00  0.00    +0.000 C 
ATOM     11  C   UNL     1      50.484   5.691  18.787  0.00  0.00    +0.000 C 
BRANCH  11  12
ATOM     12  C   UNL     1      50.193   4.417  17.992  0.00  0.00    +0.000 A 
ATOM     13  C   UNL     1      48.911   4.101  17.513  0.00  0.00    +0.000 A 
ATOM     14  C   UNL     1      48.642   2.843  16.963  0.00  0.00    +0.000 A 
ATOM     15  C   UNL     1      49.645   1.876  16.898  0.00  0.00    +0.000 A 
ATOM     16  C   UNL     1      50.925   2.183  17.345  0.00  0.00    +0.000 A 
ATOM     17 CL   UNL     1      52.155   0.980  17.311  0.00  0.00    +0.000 Cl
ATOM     18  C   UNL     1      51.206   3.446  17.869  0.00  0.00    +0.000 A 
ENDBRANCH  11  12
ENDBRANCH   8  11
ENDBRANCH   7   8
ENDBRANCH   1   7
BRANCH   4  19
ATOM     19  C   UNL     1      48.308   8.089  11.845  0.00  0.00    +0.000 C 
BRANCH  19  20
ATOM     20  N   UNL     1      47.547   6.950  11.386  0.00  0.00    +0.000 N 
ATOM     21  C   UNL     1      46.181   6.936  11.317  0.00  0.00    +0.000 C 
ATOM     22  O   UNL     1      45.499   7.901  11.643  0.00  0.00    +0.000 OA
ATOM     23  H   UNL     1      48.062   6.074  11.362  0.00  0.00    +0.000 HD
BRANCH  21  24
ATOM     24  C   UNL     1      45.576   5.724  10.744  0.00  0.00    +0.000 A 
ATOM     25  C   UNL     1      45.751   5.435   9.396  0.00  0.00    +0.000 A 
ATOM     26  S   UNL     1      45.059   3.950   8.919  0.00  0.00    +0.000 S 
ATOM     27  C   UNL     1      44.457   3.664  10.485  0.00  0.00    +0.000 A 
ATOM     28  N   UNL     1      43.746   2.539  10.768  0.00  0.00    +0.000 NA
ATOM     29  C   UNL     1      43.327   2.465  11.987  0.00  0.00    +0.000 A 
ATOM     30  N   UNL     1      43.552   3.414  12.949  0.00  0.00    +0.000 N 
ATOM     31  C   UNL     1      44.294   4.546  12.721  0.00  0.00    +0.000 A 
ATOM     32  O   UNL     1      44.523   5.347  13.621  0.00  0.00    +0.000 OA
ATOM     33  C   UNL     1      44.784   4.685  11.361  0.00  0.00    +0.000 A 
ATOM     34  H   UNL     1      43.204   3.295  13.889  0.00  0.00    +0.000 HD
ENDBRANCH  21  24
ENDBRANCH  19  20
ENDBRANCH   4  19
TORSDOF 7
ENDMDL
MODEL 9
REMARK VINA RESULT:    -7.216      2.120      2.814
REMARK INTER + INTRA:         -11.061
REMARK INTER:                  -9.856
REMARK INTRA:                  -1.205
REMARK UNBOUND:                -0.892
REMARK  Name = 
REMARK  8 active torsions:
REMARK  status: ('A' for Active; 'I' for Inactive)
REMARK    1  A    between atoms: C_1  and  C_2
REMARK    2  A    between atoms: C_2  and  N_3
REMARK    3  A    between atoms: C_2  and  C_25
REMARK    4  A    between atoms: N_3  and  C_4
REMARK    5  A    between atoms: C_4  and  C_5
REMARK    6  A    between atoms: C_8  and  C_9
REMARK    7  A    between atoms: C_9  and  N_10
REMARK    8  A    between atoms: C_11  and  C_13
REMARK                            x       y       z     vdW  Elec       q    Type
REMARK                         _______ _______ _______ _____ _____    ______ ____
ROOT
ATOM      1  C   UNL     1      45.952   8.050  11.955  0.00  0.00    +0.000 A 
ATOM      2  C   UNL     1      47.059   7.454  11.347  0.00  0.00    +0.000 A 
ATOM      3  C   UNL     1      48.291   7.444  11.999  0.00  0.00    +0.000 A 
ATOM      4  C   UNL     1      48.397   8.054  13.244  0.00  0.00    +0.000 A 
ATOM      5  N   UNL     1      47.336   8.635  13.861  0.00  0.00    +0.000 NA
ATOM      6  C   UNL     1      46.148   8.615  13.211  0.00  0.00    +0.000 A 
ENDROOT
BRANCH   1   7
ATOM      7  C   UNL     1      44.581   7.960  11.343  0.00  0.00    +0.000 C 
BRANCH   7   8
ATOM      8  N   UNL     1      43.887   6.702  11.639  0.00  0.00    +0.000 NA
ATOM      9  H   UNL     1      43.264   6.490  10.858  0.00  0.00    +0.000 HD
BRANCH   8  11
ATOM     10  C   UNL     1      44.598   4.806  13.108  0.00  0.00    +0.000 C 
ATOM     11  C   UNL     1      44.829   5.572  11.794  0.00  0.00    +0.000 C 
BRANCH  11  12
ATOM     12  C   UNL     1      44.736   4.544  10.665  0.00  0.00    +0.000 A 
ATOM     13  C   UNL     1      44.108   3.299  10.825  0.00  0.00    +0.000 A 
ATOM     14  C   UNL     1      44.212   2.312   9.839  0.00  0.00    +0.000 A 
ATOM     15  C   UNL     1      44.960   2.547   8.686  0.00  0.00    +0.000 A 
ATOM     16  C   UNL     1      45.568   3.784   8.502  0.00  0.00    +0.000 A 
ATOM     17 CL   UNL     1      46.531   4.065   7.105  0.00  0.00    +0.000 Cl
ATOM     18  C   UNL     1      45.444   4.783   9.470  0.00  0.00    +0.000 A 
ENDBRANCH  11  12
ENDBRANCH   8  11
ENDBRANCH   7   8
ENDBRANCH   1   7
BRANCH   4  19
ATOM     19  C   UNL     1      49.715   8.049  13.979  0.00  0.00    +0.000 C 
BRANCH  19  20
ATOM     20  N   UNL     1      49.737   7.077  15.048  0.00  0.00    +0.000 N 
ATOM     21  C   UNL     1      49.603   7.407  16.369  0.00  0.00    +0.000 C 
ATOM     22  O   UNL     1      49.453   8.565  16.742  0.00  0.00    +0.000 OA
ATOM     23  H   UNL     1      50.114   6.168  14.791  0.00  0.00    +0.000 HD
BRANCH  21  24
ATOM     24  C   UNL     1      49.561   6.282  17.315  0.00  0.00    +0.000 A 
ATOM     25  C   UNL     1      50.321   6.325  18.476  0.00  0.00    +0.000 A 
ATOM     26  S   UNL     1      50.084   4.982  19.500  0.00  0.00    +0.000 S 
ATOM     27  C   UNL     1      48.994   4.270  18.406  0.00  0.00    +0.000 A 
ATOM     28  N   UNL     1      48.410   3.071  18.679  0.00  0.00    +0.000 NA
ATOM     29  C   UNL     1      47.627   2.635  17.749  0.00  0.00    +0.000 A 
ATOM     30  N   UNL     1      47.375   3.287  16.570  0.00  0.00    +0.000 N 
ATOM     31  C   UNL     1      47.912   4.513  16.268  0.00  0.00    +0.000 A 
ATOM     32  O   UNL     1      47.620   5.094  15.228  0.00  0.00    +0.000 OA
ATOM     33  C   UNL     1      48.809   5.048  17.277  0.00  0.00    +0.000 A 
ATOM     34  H   UNL     1      46.745   2.898  15.884  0.00  0.00    +0.000 HD
ENDBRANCH  21  24
ENDBRANCH  19  20
ENDBRANCH   4  19
TORSDOF 7
ENDMDL
