MODEL 1
REMARK VINA RESULT:    -8.607      0.000      0.000
REMARK INTER + INTRA:         -12.705
REMARK INTER:                 -11.626
REMARK INTRA:                  -1.079
REMARK UNBOUND:                -1.079
REMARK  Name = 
REMARK  7 active torsions:
REMARK  status: ('A' for Active; 'I' for Inactive)
REMARK    1  A    between atoms: C_1  and  C_2
REMARK    2  A    between atoms: C_2  and  C_3
REMARK    3  A    between atoms: C_2  and  C_15
REMARK    4  A    between atoms: C_3  and  N_4
REMARK    5  A    between atoms: N_4  and  C_5
REMARK    6  A    between atoms: C_8  and  C_9
REMARK    7  A    between atoms: C_19  and  C_20
REMARK                            x       y       z     vdW  Elec       q    Type
REMARK                         _______ _______ _______ _____ _____    ______ ____
ROOT
ATOM      1  N   UNL     1      43.760   4.815   9.980  0.00  0.00    +0.000 N 
ATOM      2  H   UNL     1      43.138   5.284   9.322  0.00  0.00    +0.000 HD
ENDROOT
BRANCH   1   3
ATOM      3  C   UNL     1      44.677   3.986   9.308  0.00  0.00    +0.000 A 
ATOM      4  C   UNL     1      45.569   4.585   8.404  0.00  0.00    +0.000 A 
ATOM      5  C   UNL     1      46.466   3.817   7.639  0.00  0.00    +0.000 A 
ATOM      6  C   UNL     1      46.479   2.423   7.762  0.00  0.00    +0.000 A 
ATOM      7  C   UNL     1      45.592   1.815   8.649  0.00  0.00    +0.000 A 
ATOM      8  C   UNL     1      44.700   2.584   9.391  0.00  0.00    +0.000 A 
ATOM      9  F   UNL     1      43.875   1.924  10.216  0.00  0.00    +0.000 F 
BRANCH   6  10
ATOM     10  C   UNL     1      47.384   1.521   6.996  0.00  0.00    +0.000 C 
ATOM     11  N   UNL     1      48.458   2.056   6.347  0.00  0.00    +0.000 N 
ATOM     12  O   UNL     1      47.176   0.315   6.933  0.00  0.00    +0.000 OA
ATOM     13  H   UNL     1      48.688   3.036   6.308  0.00  0.00    +0.000 HD
ATOM     14  H   UNL     1      49.029   1.409   5.821  0.00  0.00    +0.000 HD
ENDBRANCH   6  10
ENDBRANCH   1   3
BRANCH   1  15
ATOM     15  C   UNL     1      44.271   5.712  11.013  0.00  0.00    +0.000 C 
BRANCH  15  17
ATOM     16  C   UNL     1      43.613   4.039  12.858  0.00  0.00    +0.000 C 
ATOM     17  C   UNL     1      44.654   4.889  12.204  0.00  0.00    +0.000 C 
BRANCH  17  18
ATOM     18  C   UNL     1      45.876   5.264  12.924  0.00  0.00    +0.000 A 
ATOM     19  C   UNL     1      46.586   6.425  12.595  0.00  0.00    +0.000 A 
ATOM     20  C   UNL     1      47.664   6.844  13.375  0.00  0.00    +0.000 A 
ATOM     21  C   UNL     1      48.028   6.114  14.508  0.00  0.00    +0.000 A 
ATOM     22  C   UNL     1      47.335   4.943  14.847  0.00  0.00    +0.000 A 
ATOM     23  C   UNL     1      46.283   4.510  14.026  0.00  0.00    +0.000 A 
BRANCH  22  24
ATOM     24  C   UNL     1      47.646   4.159  16.095  0.00  0.00    +0.000 C 
ATOM     25  F   UNL     1      46.678   4.238  17.048  0.00  0.00    +0.000 F 
ATOM     26  F   UNL     1      47.807   2.830  15.836  0.00  0.00    +0.000 F 
ATOM     27  F   UNL     1      48.801   4.564  16.692  0.00  0.00    +0.000 F 
ENDBRANCH  22  24
ENDBRANCH  17  18
ENDBRANCH  15  17
ENDBRANCH   1  15
TORSDOF 6
ENDMDL
MODEL 2
REMARK VINA RESULT:    -8.376      2.351      3.007
REMARK INTER + INTRA:         -12.393
REMARK INTER:                 -11.231
REMARK INTRA:                  -1.161
REMARK UNBOUND:                -1.079
REMARK  Name = 
REMARK  7 active torsions:
REMARK  status: ('A' for Active; 'I' for Inactive)
REMARK    1  A    between atoms: C_1  and  C_2
REMARK    2  A    between atoms: C_2  and  C_3
REMARK    3  A    between atoms: C_2  and  C_15
REMARK    4  A    between atoms: C_3  and  N_4
REMARK    5  A    between atoms: N_4  and  C_5
REMARK    6  A    between atoms: C_8  and  C_9
REMARK    7  A    between atoms: C_19  and  C_20
REMARK                            x       y       z     vdW  Elec       q    Type
REMARK                         _______ _______ _______ _____ _____    ______ ____
ROOT
ATOM      1  N   UNL     1      43.766   4.803   9.883  0.00  0.00    +0.000 N 
ATOM      2  H   UNL     1      43.774   5.773   9.571  0.00  0.00    +0.000 HD
ENDROOT
BRANCH   1   3
ATOM      3  C   UNL     1      44.727   4.041   9.194  0.00  0.00    +0.000 A 
ATOM      4  C   UNL     1      45.644   4.719   8.375  0.00  0.00    +0.000 A 
ATOM      5  C   UNL     1      46.588   4.025   7.596  0.00  0.00    +0.000 A 
ATOM      6  C   UNL     1      46.625   2.625   7.619  0.00  0.00    +0.000 A 
ATOM      7  C   UNL     1      45.713   1.939   8.421  0.00  0.00    +0.000 A 
ATOM      8  C   UNL     1      44.776   2.638   9.177  0.00  0.00    +0.000 A 
ATOM      9  F   UNL     1      43.930   1.905   9.917  0.00  0.00    +0.000 F 
BRANCH   6  10
ATOM     10  C   UNL     1      47.578   1.798   6.830  0.00  0.00    +0.000 C 
ATOM     11  N   UNL     1      48.612   2.412   6.185  0.00  0.00    +0.000 N 
ATOM     12  O   UNL     1      47.447   0.582   6.745  0.00  0.00    +0.000 OA
ATOM     13  H   UNL     1      48.780   3.404   6.164  0.00  0.00    +0.000 HD
ATOM     14  H   UNL     1      49.219   1.812   5.643  0.00  0.00    +0.000 HD
ENDBRANCH   6  10
ENDBRANCH   1   3
BRANCH   1  15
ATOM     15  C   UNL     1      43.701   4.677  11.336  0.00  0.00    +0.000 C 
BRANCH  15  17
ATOM     16  C   UNL     1      45.670   3.789  12.741  0.00  0.00    +0.000 C 
ATOM     17  C   UNL     1      45.081   4.867  11.889  0.00  0.00    +0.000 C 
BRANCH  17  18
ATOM     18  C   UNL     1      45.612   6.233  11.934  0.00  0.00    +0.000 A 
ATOM     19  C   UNL     1      44.774   7.331  12.163  0.00  0.00    +0.000 A 
ATOM     20  C   UNL     1      45.309   8.607  12.342  0.00  0.00    +0.000 A 
ATOM     21  C   UNL     1      46.693   8.792  12.315  0.00  0.00    +0.000 A 
ATOM     22  C   UNL     1      47.546   7.706  12.076  0.00  0.00    +0.000 A 
ATOM     23  C   UNL     1      46.991   6.438  11.852  0.00  0.00    +0.000 A 
BRANCH  22  24
ATOM     24  C   UNL     1      49.046   7.842  12.104  0.00  0.00    +0.000 C 
ATOM     25  F   UNL     1      49.477   9.100  12.393  0.00  0.00    +0.000 F 
ATOM     26  F   UNL     1      49.614   7.029  13.041  0.00  0.00    +0.000 F 
ATOM     27  F   UNL     1      49.624   7.504  10.919  0.00  0.00    +0.000 F 
ENDBRANCH  22  24
ENDBRANCH  17  18
ENDBRANCH  15  17
ENDBRANCH   1  15
TORSDOF 6
ENDMDL
MODEL 3
REMARK VINA RESULT:    -7.548      3.248      6.569
REMARK INTER + INTRA:         -11.275
REMARK INTER:                  -9.858
REMARK INTRA:                  -1.417
REMARK UNBOUND:                -1.079
REMARK  Name = 
REMARK  7 active torsions:
REMARK  status: ('A' for Active; 'I' for Inactive)
REMARK    1  A    between atoms: C_1  and  C_2
REMARK    2  A    between atoms: C_2  and  C_3
REMARK    3  A    between atoms: C_2  and  C_15
REMARK    4  A    between atoms: C_3  and  N_4
REMARK    5  A    between atoms: N_4  and  C_5
REMARK    6  A    between atoms: C_8  and  C_9
REMARK    7  A    between atoms: C_19  and  C_20
REMARK                            x       y       z     vdW  Elec       q    Type
REMARK                         _______ _______ _______ _____ _____    ______ ____
ROOT
ATOM      1  N   UNL     1      43.694   5.178  12.367  0.00  0.00    +0.000 N 
ATOM      2  H   UNL     1      43.522   4.393  12.994  0.00  0.00    +0.000 HD
ENDROOT
BRANCH   1   3
ATOM      3  C   UNL     1      44.989   5.698  12.547  0.00  0.00    +0.000 A 
ATOM      4  C   UNL     1      45.275   6.960  12.004  0.00  0.00    +0.000 A 
ATOM      5  C   UNL     1      46.565   7.517  12.076  0.00  0.00    +0.000 A 
ATOM      6  C   UNL     1      47.602   6.808  12.694  0.00  0.00    +0.000 A 
ATOM      7  C   UNL     1      47.334   5.549  13.230  0.00  0.00    +0.000 A 
ATOM      8  C   UNL     1      46.057   5.004  13.139  0.00  0.00    +0.000 A 
ATOM      9  F   UNL     1      45.881   3.785  13.673  0.00  0.00    +0.000 F 
BRANCH   6  10
ATOM     10  C   UNL     1      49.001   7.304  12.818  0.00  0.00    +0.000 C 
ATOM     11  N   UNL     1      49.508   8.107  11.838  0.00  0.00    +0.000 N 
ATOM     12  O   UNL     1      49.701   7.001  13.777  0.00  0.00    +0.000 OA
ATOM     13  H   UNL     1      49.025   8.377  10.997  0.00  0.00    +0.000 HD
ATOM     14  H   UNL     1      50.469   8.399  11.954  0.00  0.00    +0.000 HD
ENDBRANCH   6  10
ENDBRANCH   1   3
BRANCH   1  15
ATOM     15  C   UNL     1      43.238   4.923  11.003  0.00  0.00    +0.000 C 
BRANCH  15  17
ATOM     16  C   UNL     1      43.780   2.448  11.475  0.00  0.00    +0.000 C 
ATOM     17  C   UNL     1      43.822   3.620  10.548  0.00  0.00    +0.000 C 
BRANCH  17  18
ATOM     18  C   UNL     1      44.765   3.654   9.425  0.00  0.00    +0.000 A 
ATOM     19  C   UNL     1      45.326   4.859   8.984  0.00  0.00    +0.000 A 
ATOM     20  C   UNL     1      46.324   4.863   8.010  0.00  0.00    +0.000 A 
ATOM     21  C   UNL     1      46.788   3.656   7.484  0.00  0.00    +0.000 A 
ATOM     22  C   UNL     1      46.230   2.441   7.906  0.00  0.00    +0.000 A 
ATOM     23  C   UNL     1      45.195   2.456   8.852  0.00  0.00    +0.000 A 
BRANCH  22  24
ATOM     24  C   UNL     1      46.743   1.111   7.418  0.00  0.00    +0.000 C 
ATOM     25  F   UNL     1      46.141   0.042   8.008  0.00  0.00    +0.000 F 
ATOM     26  F   UNL     1      46.554   0.952   6.077  0.00  0.00    +0.000 F 
ATOM     27  F   UNL     1      48.079   0.957   7.626  0.00  0.00    +0.000 F 
ENDBRANCH  22  24
ENDBRANCH  17  18
ENDBRANCH  15  17
ENDBRANCH   1  15
TORSDOF 6
ENDMDL
MODEL 4
REMARK VINA RESULT:    -7.317      2.123      2.881
REMARK INTER + INTRA:         -10.963
REMARK INTER:                 -10.106
REMARK INTRA:                  -0.857
REMARK UNBOUND:                -1.079
REMARK  Name = 
REMARK  7 active torsions:
REMARK  status: ('A' for Active; 'I' for Inactive)
REMARK    1  A    between atoms: C_1  and  C_2
REMARK    2  A    between atoms: C_2  and  C_3
REMARK    3  A    between atoms: C_2  and  C_15
REMARK    4  A    between atoms: C_3  and  N_4
REMARK    5  A    between atoms: N_4  and  C_5
REMARK    6  A    between atoms: C_8  and  C_9
REMARK    7  A    between atoms: C_19  and  C_20
REMARK                            x       y       z     vdW  Elec       q    Type
REMARK                         _______ _______ _______ _____ _____    ______ ____
ROOT
ATOM      1  N   UNL     1      44.487   3.525  10.623  0.00  0.00    +0.000 N 
ATOM      2  H   UNL     1      44.024   2.680  10.956  0.00  0.00    +0.000 HD
ENDROOT
BRANCH   1   3
ATOM      3  C   UNL     1      45.204   3.279   9.438  0.00  0.00    +0.000 A 
ATOM      4  C   UNL     1      45.395   1.944   9.048  0.00  0.00    +0.000 A 
ATOM      5  C   UNL     1      46.164   1.611   7.917  0.00  0.00    +0.000 A 
ATOM      6  C   UNL     1      46.764   2.620   7.154  0.00  0.00    +0.000 A 
ATOM      7  C   UNL     1      46.590   3.950   7.537  0.00  0.00    +0.000 A 
ATOM      8  C   UNL     1      45.839   4.264   8.665  0.00  0.00    +0.000 A 
ATOM      9  F   UNL     1      45.724   5.566   8.970  0.00  0.00    +0.000 F 
BRANCH   6  10
ATOM     10  C   UNL     1      47.599   2.374   5.946  0.00  0.00    +0.000 C 
ATOM     11  N   UNL     1      47.443   3.182   4.858  0.00  0.00    +0.000 N 
ATOM     12  O   UNL     1      48.415   1.460   5.912  0.00  0.00    +0.000 OA
ATOM     13  H   UNL     1      46.774   3.930   4.777  0.00  0.00    +0.000 HD
ATOM     14  H   UNL     1      48.015   2.962   4.053  0.00  0.00    +0.000 HD
ENDBRANCH   6  10
ENDBRANCH   1   3
BRANCH   1  15
ATOM     15  C   UNL     1      43.621   4.700  10.672  0.00  0.00    +0.000 C 
BRANCH  15  17
ATOM     16  C   UNL     1      42.816   5.297  13.045  0.00  0.00    +0.000 C 
ATOM     17  C   UNL     1      43.853   5.403  11.974  0.00  0.00    +0.000 C 
BRANCH  17  18
ATOM     18  C   UNL     1      44.845   6.484  11.995  0.00  0.00    +0.000 A 
ATOM     19  C   UNL     1      44.508   7.786  11.605  0.00  0.00    +0.000 A 
ATOM     20  C   UNL     1      45.418   8.832  11.760  0.00  0.00    +0.000 A 
ATOM     21  C   UNL     1      46.669   8.587  12.330  0.00  0.00    +0.000 A 
ATOM     22  C   UNL     1      47.027   7.287  12.716  0.00  0.00    +0.000 A 
ATOM     23  C   UNL     1      46.118   6.239  12.510  0.00  0.00    +0.000 A 
BRANCH  22  24
ATOM     24  C   UNL     1      48.337   6.984  13.396  0.00  0.00    +0.000 C 
ATOM     25  F   UNL     1      49.247   6.377  12.587  0.00  0.00    +0.000 F 
ATOM     26  F   UNL     1      48.944   8.114  13.859  0.00  0.00    +0.000 F 
ATOM     27  F   UNL     1      48.188   6.172  14.478  0.00  0.00    +0.000 F 
ENDBRANCH  22  24
ENDBRANCH  17  18
ENDBRANCH  15  17
ENDBRANCH   1  15
TORSDOF 6
ENDMDL
MODEL 5
REMARK VINA RESULT:    -7.011      3.611      7.212
REMARK INTER + INTRA:         -10.549
REMARK INTER:                  -9.935
REMARK INTRA:                  -0.614
REMARK UNBOUND:                -1.079
REMARK  Name = 
REMARK  7 active torsions:
REMARK  status: ('A' for Active; 'I' for Inactive)
REMARK    1  A    between atoms: C_1  and  C_2
REMARK    2  A    between atoms: C_2  and  C_3
REMARK    3  A    between atoms: C_2  and  C_15
REMARK    4  A    between atoms: C_3  and  N_4
REMARK    5  A    between atoms: N_4  and  C_5
REMARK    6  A    between atoms: C_8  and  C_9
REMARK    7  A    between atoms: C_19  and  C_20
REMARK                            x       y       z     vdW  Elec       q    Type
REMARK                         _______ _______ _______ _____ _____    ______ ____
ROOT
ATOM      1  N   UNL     1      46.322   5.895  11.479  0.00  0.00    +0.000 N 
ATOM      2  H   UNL     1      47.069   6.210  10.861  0.00  0.00    +0.000 HD
ENDROOT
BRANCH   1   3
ATOM      3  C   UNL     1      46.789   5.728  12.795  0.00  0.00    +0.000 A 
ATOM      4  C   UNL     1      47.606   6.732  13.339  0.00  0.00    +0.000 A 
ATOM      5  C   UNL     1      48.173   6.605  14.620  0.00  0.00    +0.000 A 
ATOM      6  C   UNL     1      47.936   5.456  15.383  0.00  0.00    +0.000 A 
ATOM      7  C   UNL     1      47.134   4.446  14.851  0.00  0.00    +0.000 A 
ATOM      8  C   UNL     1      46.590   4.578  13.577  0.00  0.00    +0.000 A 
ATOM      9  F   UNL     1      45.837   3.560  13.134  0.00  0.00    +0.000 F 
BRANCH   6  10
ATOM     10  C   UNL     1      48.492   5.222  16.744  0.00  0.00    +0.000 C 
ATOM     11  N   UNL     1      47.909   5.837  17.813  0.00  0.00    +0.000 N 
ATOM     12  O   UNL     1      49.464   4.495  16.918  0.00  0.00    +0.000 OA
ATOM     13  H   UNL     1      47.135   6.480  17.766  0.00  0.00    +0.000 HD
ATOM     14  H   UNL     1      48.336   5.667  18.713  0.00  0.00    +0.000 HD
ENDBRANCH   6  10
ENDBRANCH   1   3
BRANCH   1  15
ATOM     15  C   UNL     1      45.076   6.630  11.279  0.00  0.00    +0.000 C 
BRANCH  15  17
ATOM     16  C   UNL     1      42.649   5.784  11.459  0.00  0.00    +0.000 C 
ATOM     17  C   UNL     1      44.015   5.655  10.867  0.00  0.00    +0.000 C 
BRANCH  17  18
ATOM     18  C   UNL     1      44.452   4.395  10.256  0.00  0.00    +0.000 A 
ATOM     19  C   UNL     1      43.889   3.170  10.636  0.00  0.00    +0.000 A 
ATOM     20  C   UNL     1      44.212   1.998   9.952  0.00  0.00    +0.000 A 
ATOM     21  C   UNL     1      45.085   2.045   8.863  0.00  0.00    +0.000 A 
ATOM     22  C   UNL     1      45.666   3.261   8.476  0.00  0.00    +0.000 A 
ATOM     23  C   UNL     1      45.368   4.423   9.203  0.00  0.00    +0.000 A 
BRANCH  22  24
ATOM     24  C   UNL     1      46.560   3.375   7.269  0.00  0.00    +0.000 C 
ATOM     25  F   UNL     1      45.912   3.190   6.087  0.00  0.00    +0.000 F 
ATOM     26  F   UNL     1      47.149   4.602   7.184  0.00  0.00    +0.000 F 
ATOM     27  F   UNL     1      47.580   2.474   7.288  0.00  0.00    +0.000 F 
ENDBRANCH  22  24
ENDBRANCH  17  18
ENDBRANCH  15  17
ENDBRANCH   1  15
TORSDOF 6
ENDMDL
MODEL 6
REMARK VINA RESULT:    -6.814      3.743      7.303
REMARK INTER + INTRA:         -10.284
REMARK INTER:                  -9.195
REMARK INTRA:                  -1.089
REMARK UNBOUND:                -1.079
REMARK  Name = 
REMARK  7 active torsions:
REMARK  status: ('A' for Active; 'I' for Inactive)
REMARK    1  A    between atoms: C_1  and  C_2
REMARK    2  A    between atoms: C_2  and  C_3
REMARK    3  A    between atoms: C_2  and  C_15
REMARK    4  A    between atoms: C_3  and  N_4
REMARK    5  A    between atoms: N_4  and  C_5
REMARK    6  A    between atoms: C_8  and  C_9
REMARK    7  A    between atoms: C_19  and  C_20
REMARK                            x       y       z     vdW  Elec       q    Type
REMARK                         _______ _______ _______ _____ _____    ______ ____
ROOT
ATOM      1  N   UNL     1      47.139   6.591  12.884  0.00  0.00    +0.000 N 
ATOM      2  H   UNL     1      48.011   6.832  12.416  0.00  0.00    +0.000 HD
ENDROOT
BRANCH   1   3
ATOM      3  C   UNL     1      47.382   5.929  14.101  0.00  0.00    +0.000 A 
ATOM      4  C   UNL     1      48.281   6.516  15.005  0.00  0.00    +0.000 A 
ATOM      5  C   UNL     1      48.634   5.880  16.209  0.00  0.00    +0.000 A 
ATOM      6  C   UNL     1      48.091   4.630  16.529  0.00  0.00    +0.000 A 
ATOM      7  C   UNL     1      47.203   4.031  15.636  0.00  0.00    +0.000 A 
ATOM      8  C   UNL     1      46.873   4.664  14.441  0.00  0.00    +0.000 A 
ATOM      9  F   UNL     1      46.018   4.020  13.633  0.00  0.00    +0.000 F 
BRANCH   6  10
ATOM     10  C   UNL     1      48.403   3.873  17.773  0.00  0.00    +0.000 C 
ATOM     11  N   UNL     1      47.515   2.939  18.219  0.00  0.00    +0.000 N 
ATOM     12  O   UNL     1      49.436   4.079  18.401  0.00  0.00    +0.000 OA
ATOM     13  H   UNL     1      46.627   2.728  17.796  0.00  0.00    +0.000 HD
ATOM     14  H   UNL     1      47.759   2.468  19.080  0.00  0.00    +0.000 HD
ENDBRANCH   6  10
ENDBRANCH   1   3
BRANCH   1  15
ATOM     15  C   UNL     1      46.173   7.687  12.878  0.00  0.00    +0.000 C 
BRANCH  15  17
ATOM     16  C   UNL     1      44.531   8.706  11.174  0.00  0.00    +0.000 C 
ATOM     17  C   UNL     1      45.276   7.517  11.690  0.00  0.00    +0.000 C 
BRANCH  17  18
ATOM     18  C   UNL     1      44.839   6.157  11.359  0.00  0.00    +0.000 A 
ATOM     19  C   UNL     1      43.793   5.540  12.055  0.00  0.00    +0.000 A 
ATOM     20  C   UNL     1      43.295   4.304  11.641  0.00  0.00    +0.000 A 
ATOM     21  C   UNL     1      43.827   3.684  10.508  0.00  0.00    +0.000 A 
ATOM     22  C   UNL     1      44.883   4.283   9.805  0.00  0.00    +0.000 A 
ATOM     23  C   UNL     1      45.402   5.503  10.262  0.00  0.00    +0.000 A 
BRANCH  22  24
ATOM     24  C   UNL     1      45.444   3.687   8.541  0.00  0.00    +0.000 C 
ATOM     25  F   UNL     1      46.467   4.405   8.003  0.00  0.00    +0.000 F 
ATOM     26  F   UNL     1      45.935   2.431   8.743  0.00  0.00    +0.000 F 
ATOM     27  F   UNL     1      44.508   3.566   7.560  0.00  0.00    +0.000 F 
ENDBRANCH  22  24
ENDBRANCH  17  18
ENDBRANCH  15  17
ENDBRANCH   1  15
TORSDOF 6
ENDMDL
MODEL 7
REMARK VINA RESULT:    -6.689      3.857      7.178
REMARK INTER + INTRA:         -10.114
REMARK INTER:                  -9.291
REMARK INTRA:                  -0.823
REMARK UNBOUND:                -1.079
REMARK  Name = 
REMARK  7 active torsions:
REMARK  status: ('A' for Active; 'I' for Inactive)
REMARK    1  A    between atoms: C_1  and  C_2
REMARK    2  A    between atoms: C_2  and  C_3
REMARK    3  A    between atoms: C_2  and  C_15
REMARK    4  A    between atoms: C_3  and  N_4
REMARK    5  A    between atoms: N_4  and  C_5
REMARK    6  A    between atoms: C_8  and  C_9
REMARK    7  A    between atoms: C_19  and  C_20
REMARK                            x       y       z     vdW  Elec       q    Type
REMARK                         _______ _______ _______ _____ _____    ______ ____
ROOT
ATOM      1  N   UNL     1      45.879   5.906  12.346  0.00  0.00    +0.000 N 
ATOM      2  H   UNL     1      46.020   4.909  12.186  0.00  0.00    +0.000 HD
ENDROOT
BRANCH   1   3
ATOM      3  C   UNL     1      47.099   6.556  12.608  0.00  0.00    +0.000 A 
ATOM      4  C   UNL     1      47.641   7.374  11.604  0.00  0.00    +0.000 A 
ATOM      5  C   UNL     1      48.891   7.999  11.760  0.00  0.00    +0.000 A 
ATOM      6  C   UNL     1      49.631   7.807  12.933  0.00  0.00    +0.000 A 
ATOM      7  C   UNL     1      49.109   6.989  13.934  0.00  0.00    +0.000 A 
ATOM      8  C   UNL     1      47.877   6.366  13.762  0.00  0.00    +0.000 A 
ATOM      9  F   UNL     1      47.448   5.589  14.768  0.00  0.00    +0.000 F 
BRANCH   6  10
ATOM     10  C   UNL     1      50.965   8.417  13.193  0.00  0.00    +0.000 C 
ATOM     11  N   UNL     1      51.823   7.792  14.049  0.00  0.00    +0.000 N 
ATOM     12  O   UNL     1      51.299   9.469  12.659  0.00  0.00    +0.000 OA
ATOM     13  H   UNL     1      51.625   6.949  14.563  0.00  0.00    +0.000 HD
ATOM     14  H   UNL     1      52.707   8.256  14.213  0.00  0.00    +0.000 HD
ENDBRANCH   6  10
ENDBRANCH   1   3
BRANCH   1  15
ATOM     15  C   UNL     1      44.972   6.511  11.375  0.00  0.00    +0.000 C 
BRANCH  15  17
ATOM     16  C   UNL     1      42.609   5.524  11.656  0.00  0.00    +0.000 C 
ATOM     17  C   UNL     1      43.946   5.490  10.988  0.00  0.00    +0.000 C 
BRANCH  17  18
ATOM     18  C   UNL     1      44.417   4.276  10.314  0.00  0.00    +0.000 A 
ATOM     19  C   UNL     1      43.853   3.025  10.592  0.00  0.00    +0.000 A 
ATOM     20  C   UNL     1      44.213   1.902   9.846  0.00  0.00    +0.000 A 
ATOM     21  C   UNL     1      45.126   2.027   8.796  0.00  0.00    +0.000 A 
ATOM     22  C   UNL     1      45.709   3.270   8.511  0.00  0.00    +0.000 A 
ATOM     23  C   UNL     1      45.372   4.379   9.300  0.00  0.00    +0.000 A 
BRANCH  22  24
ATOM     24  C   UNL     1      46.646   3.469   7.349  0.00  0.00    +0.000 C 
ATOM     25  F   UNL     1      47.683   2.588   7.323  0.00  0.00    +0.000 F 
ATOM     26  F   UNL     1      46.009   3.330   6.151  0.00  0.00    +0.000 F 
ATOM     27  F   UNL     1      47.201   4.711   7.332  0.00  0.00    +0.000 F 
ENDBRANCH  22  24
ENDBRANCH  17  18
ENDBRANCH  15  17
ENDBRANCH   1  15
TORSDOF 6
ENDMDL
MODEL 8
REMARK VINA RESULT:    -6.679      2.930      4.852
REMARK INTER + INTRA:         -10.101
REMARK INTER:                  -8.977
REMARK INTRA:                  -1.124
REMARK UNBOUND:                -1.079
REMARK  Name = 
REMARK  7 active torsions:
REMARK  status: ('A' for Active; 'I' for Inactive)
REMARK    1  A    between atoms: C_1  and  C_2
REMARK    2  A    between atoms: C_2  and  C_3
REMARK    3  A    between atoms: C_2  and  C_15
REMARK    4  A    between atoms: C_3  and  N_4
REMARK    5  A    between atoms: N_4  and  C_5
REMARK    6  A    between atoms: C_8  and  C_9
REMARK    7  A    between atoms: C_19  and  C_20
REMARK                            x       y       z     vdW  Elec       q    Type
REMARK                         _______ _______ _______ _____ _____    ______ ____
ROOT
ATOM      1  N   UNL     1      47.222   7.322  13.899  0.00  0.00    +0.000 N 
ATOM      2  H   UNL     1      47.035   8.305  13.709  0.00  0.00    +0.000 HD
ENDROOT
BRANCH   1   3
ATOM      3  C   UNL     1      46.496   6.489  13.029  0.00  0.00    +0.000 A 
ATOM      4  C   UNL     1      46.200   6.974  11.745  0.00  0.00    +0.000 A 
ATOM      5  C   UNL     1      45.415   6.233  10.842  0.00  0.00    +0.000 A 
ATOM      6  C   UNL     1      44.904   4.985  11.216  0.00  0.00    +0.000 A 
ATOM      7  C   UNL     1      45.183   4.496  12.491  0.00  0.00    +0.000 A 
ATOM      8  C   UNL     1      45.949   5.244  13.380  0.00  0.00    +0.000 A 
ATOM      9  F   UNL     1      46.167   4.707  14.590  0.00  0.00    +0.000 F 
BRANCH   6  10
ATOM     10  C   UNL     1      44.060   4.127  10.338  0.00  0.00    +0.000 C 
ATOM     11  N   UNL     1      44.025   4.383   8.998  0.00  0.00    +0.000 N 
ATOM     12  O   UNL     1      43.397   3.204  10.798  0.00  0.00    +0.000 OA
ATOM     13  H   UNL     1      44.501   5.139   8.535  0.00  0.00    +0.000 HD
ATOM     14  H   UNL     1      43.420   3.789   8.447  0.00  0.00    +0.000 HD
ENDBRANCH   6  10
ENDBRANCH   1   3
BRANCH   1  15
ATOM     15  C   UNL     1      48.643   7.044  14.092  0.00  0.00    +0.000 C 
BRANCH  15  17
ATOM     16  C   UNL     1      50.075   8.630  15.532  0.00  0.00    +0.000 C 
ATOM     17  C   UNL     1      49.043   7.552  15.444  0.00  0.00    +0.000 C 
BRANCH  17  18
ATOM     18  C   UNL     1      48.742   6.706  16.604  0.00  0.00    +0.000 A 
ATOM     19  C   UNL     1      48.405   7.265  17.843  0.00  0.00    +0.000 A 
ATOM     20  C   UNL     1      47.986   6.453  18.897  0.00  0.00    +0.000 A 
ATOM     21  C   UNL     1      47.878   5.073  18.713  0.00  0.00    +0.000 A 
ATOM     22  C   UNL     1      48.222   4.496  17.483  0.00  0.00    +0.000 A 
ATOM     23  C   UNL     1      48.686   5.320  16.447  0.00  0.00    +0.000 A 
BRANCH  22  24
ATOM     24  C   UNL     1      48.059   3.022  17.215  0.00  0.00    +0.000 C 
ATOM     25  F   UNL     1      46.942   2.483  17.774  0.00  0.00    +0.000 F 
ATOM     26  F   UNL     1      47.975   2.753  15.880  0.00  0.00    +0.000 F 
ATOM     27  F   UNL     1      49.108   2.288  17.676  0.00  0.00    +0.000 F 
ENDBRANCH  22  24
ENDBRANCH  17  18
ENDBRANCH  15  17
ENDBRANCH   1  15
TORSDOF 6
ENDMDL
MODEL 9
REMARK VINA RESULT:    -5.971      3.984      5.841
REMARK INTER + INTRA:          -9.144
REMARK INTER:                  -7.825
REMARK INTRA:                  -1.320
REMARK UNBOUND:                -1.079
REMARK  Name = 
REMARK  7 active torsions:
REMARK  status: ('A' for Active; 'I' for Inactive)
REMARK    1  A    between atoms: C_1  and  C_2
REMARK    2  A    between atoms: C_2  and  C_3
REMARK    3  A    between atoms: C_2  and  C_15
REMARK    4  A    between atoms: C_3  and  N_4
REMARK    5  A    between atoms: N_4  and  C_5
REMARK    6  A    between atoms: C_8  and  C_9
REMARK    7  A    between atoms: C_19  and  C_20
REMARK                            x       y       z     vdW  Elec       q    Type
REMARK                         _______ _______ _______ _____ _____    ______ ____
ROOT
ATOM      1  N   UNL     1      48.454   8.090  13.734  0.00  0.00    +0.000 N 
ATOM      2  H   UNL     1      49.267   7.538  13.463  0.00  0.00    +0.000 HD
ENDROOT
BRANCH   1   3
ATOM      3  C   UNL     1      47.259   7.447  13.364  0.00  0.00    +0.000 A 
ATOM      4  C   UNL     1      47.226   6.044  13.398  0.00  0.00    +0.000 A 
ATOM      5  C   UNL     1      46.094   5.324  12.973  0.00  0.00    +0.000 A 
ATOM      6  C   UNL     1      44.968   6.004  12.495  0.00  0.00    +0.000 A 
ATOM      7  C   UNL     1      44.991   7.398  12.447  0.00  0.00    +0.000 A 
ATOM      8  C   UNL     1      46.121   8.097  12.858  0.00  0.00    +0.000 A 
ATOM      9  F   UNL     1      46.066   9.435  12.774  0.00  0.00    +0.000 F 
BRANCH   6  10
ATOM     10  C   UNL     1      43.725   5.338  12.017  0.00  0.00    +0.000 C 
ATOM     11  N   UNL     1      43.397   5.416  10.695  0.00  0.00    +0.000 N 
ATOM     12  O   UNL     1      42.992   4.728  12.789  0.00  0.00    +0.000 OA
ATOM     13  H   UNL     1      43.912   5.925   9.995  0.00  0.00    +0.000 HD
ATOM     14  H   UNL     1      42.533   4.969  10.423  0.00  0.00    +0.000 HD
ENDBRANCH   6  10
ENDBRANCH   1   3
BRANCH   1  15
ATOM     15  C   UNL     1      48.558   8.622  15.090  0.00  0.00    +0.000 C 
BRANCH  15  17
ATOM     16  C   UNL     1      50.856   7.485  15.336  0.00  0.00    +0.000 C 
ATOM     17  C   UNL     1      49.485   7.743  15.872  0.00  0.00    +0.000 C 
BRANCH  17  18
ATOM     18  C   UNL     1      48.892   6.852  16.874  0.00  0.00    +0.000 A 
ATOM     19  C   UNL     1      48.364   7.352  18.070  0.00  0.00    +0.000 A 
ATOM     20  C   UNL     1      47.679   6.514  18.950  0.00  0.00    +0.000 A 
ATOM     21  C   UNL     1      47.496   5.167  18.628  0.00  0.00    +0.000 A 
ATOM     22  C   UNL     1      48.028   4.647  17.440  0.00  0.00    +0.000 A 
ATOM     23  C   UNL     1      48.754   5.492  16.588  0.00  0.00    +0.000 A 
BRANCH  22  24
ATOM     24  C   UNL     1      47.800   3.219  17.016  0.00  0.00    +0.000 C 
ATOM     25  F   UNL     1      46.776   2.609  17.672  0.00  0.00    +0.000 F 
ATOM     26  F   UNL     1      47.503   3.122  15.689  0.00  0.00    +0.000 F 
ATOM     27  F   UNL     1      48.896   2.435  17.210  0.00  0.00    +0.000 F 
ENDBRANCH  22  24
ENDBRANCH  17  18
ENDBRANCH  15  17
ENDBRANCH   1  15
TORSDOF 6
ENDMDL
