MODEL 1
REMARK VINA RESULT:    -7.906      0.000      0.000
REMARK INTER + INTRA:         -11.716
REMARK INTER:                 -10.679
REMARK INTRA:                  -1.037
REMARK UNBOUND:                -1.037
REMARK  Name = 
REMARK  7 active torsions:
REMARK  status: ('A' for Active; 'I' for Inactive)
REMARK    1  A    between atoms: C_1  and  C_2
REMARK    2  A    between atoms: C_2  and  N_3
REMARK    3  A    between atoms: C_2  and  C_11
REMARK    4  A    between atoms: C_4  and  C_6
REMARK    5  A    between atoms: C_14  and  C_15
REMARK    6  A    between atoms: C_15  and  N_16
REMARK    7  A    between atoms: C_17  and  C_19
REMARK                            x       y       z     vdW  Elec       q    Type
REMARK                         _______ _______ _______ _____ _____    ______ ____
ROOT
ATOM      1  C   UNL     1      45.637   4.960  11.487  0.00  0.00    +0.000 A 
ATOM      2  C   UNL     1      46.177   6.161  11.005  0.00  0.00    +0.000 A 
ATOM      3  C   UNL     1      46.947   6.986  11.833  0.00  0.00    +0.000 A 
ATOM      4  C   UNL     1      47.197   6.627  13.162  0.00  0.00    +0.000 A 
ATOM      5  C   UNL     1      46.629   5.447  13.658  0.00  0.00    +0.000 A 
ATOM      6  C   UNL     1      45.869   4.618  12.829  0.00  0.00    +0.000 A 
ENDROOT
BRANCH   1   8
ATOM      7  C   UNL     1      43.474   4.700  10.215  0.00  0.00    +0.000 C 
ATOM      8  C   UNL     1      44.825   4.068  10.562  0.00  0.00    +0.000 C 
BRANCH   8   9
ATOM      9  N   UNL     1      45.584   3.758   9.361  0.00  0.00    +0.000 N 
ATOM     10  C   UNL     1      45.512   2.535   8.741  0.00  0.00    +0.000 C 
ATOM     11  O   UNL     1      44.808   1.620   9.157  0.00  0.00    +0.000 OA
ATOM     12  H   UNL     1      46.179   4.475   8.976  0.00  0.00    +0.000 HD
BRANCH  10  13
ATOM     13  C   UNL     1      46.338   2.386   7.572  0.00  0.00    +0.000 A 
ATOM     14  C   UNL     1      46.485   3.111   6.404  0.00  0.00    +0.000 A 
ATOM     15  C   UNL     1      47.481   2.434   5.674  0.00  0.00    +0.000 A 
ATOM     16  N   UNL     1      47.934   1.357   6.314  0.00  0.00    +0.000 NA
ATOM     17  N   UNL     1      47.221   1.344   7.453  0.00  0.00    +0.000 N 
ATOM     18  H   UNL     1      47.379   0.601   8.128  0.00  0.00    +0.000 HD
ENDBRANCH  10  13
ENDBRANCH   8   9
ENDBRANCH   1   8
BRANCH   4  19
ATOM     19  C   UNL     1      48.039   7.503  14.055  0.00  0.00    +0.000 C 
BRANCH  19  20
ATOM     20  N   UNL     1      47.958   7.084  15.430  0.00  0.00    +0.000 N 
ATOM     21  C   UNL     1      49.060   6.598  16.088  0.00  0.00    +0.000 C 
ATOM     22  O   UNL     1      50.168   6.556  15.559  0.00  0.00    +0.000 OA
ATOM     23  H   UNL     1      47.035   6.911  15.805  0.00  0.00    +0.000 HD
BRANCH  21  24
ATOM     24  C   UNL     1      48.862   6.167  17.478  0.00  0.00    +0.000 A 
ATOM     25  C   UNL     1      49.188   4.869  17.848  0.00  0.00    +0.000 A 
ATOM     26  S   UNL     1      48.924   4.541  19.501  0.00  0.00    +0.000 S 
ATOM     27  C   UNL     1      48.321   6.108  19.772  0.00  0.00    +0.000 A 
ATOM     28  N   UNL     1      47.880   6.482  21.003  0.00  0.00    +0.000 NA
ATOM     29  C   UNL     1      47.429   7.690  21.063  0.00  0.00    +0.000 A 
ATOM     30  N   UNL     1      47.383   8.560  20.005  0.00  0.00    +0.000 N 
ATOM     31  C   UNL     1      47.841   8.234  18.750  0.00  0.00    +0.000 A 
ATOM     32  O   UNL     1      47.821   9.052  17.835  0.00  0.00    +0.000 OA
ATOM     33  C   UNL     1      48.345   6.880  18.624  0.00  0.00    +0.000 A 
ATOM     34  H   UNL     1      47.027   9.497  20.121  0.00  0.00    +0.000 HD
ENDBRANCH  21  24
ENDBRANCH  19  20
ENDBRANCH   4  19
TORSDOF 6
ENDMDL
MODEL 2
REMARK VINA RESULT:    -7.789      2.374      3.435
REMARK INTER + INTRA:         -11.557
REMARK INTER:                 -10.582
REMARK INTRA:                  -0.975
REMARK UNBOUND:                -1.037
REMARK  Name = 
REMARK  7 active torsions:
REMARK  status: ('A' for Active; 'I' for Inactive)
REMARK    1  A    between atoms: C_1  and  C_2
REMARK    2  A    between atoms: C_2  and  N_3
REMARK    3  A    between atoms: C_2  and  C_11
REMARK    4  A    between atoms: C_4  and  C_6
REMARK    5  A    between atoms: C_14  and  C_15
REMARK    6  A    between atoms: C_15  and  N_16
REMARK    7  A    between atoms: C_17  and  C_19
REMARK                            x       y       z     vdW  Elec       q    Type
REMARK                         _______ _______ _______ _____ _____    ______ ____
ROOT
ATOM      1  C   UNL     1      45.703   4.948  11.901  0.00  0.00    +0.000 A 
ATOM      2  C   UNL     1      46.038   4.415  13.154  0.00  0.00    +0.000 A 
ATOM      3  C   UNL     1      46.825   5.140  14.055  0.00  0.00    +0.000 A 
ATOM      4  C   UNL     1      47.293   6.418  13.725  0.00  0.00    +0.000 A 
ATOM      5  C   UNL     1      46.992   6.938  12.461  0.00  0.00    +0.000 A 
ATOM      6  C   UNL     1      46.197   6.218  11.564  0.00  0.00    +0.000 A 
ENDROOT
BRANCH   1   8
ATOM      7  C   UNL     1      43.528   4.897  10.623  0.00  0.00    +0.000 C 
ATOM      8  C   UNL     1      44.826   4.152  10.947  0.00  0.00    +0.000 C 
BRANCH   8   9
ATOM      9  N   UNL     1      45.560   3.825   9.736  0.00  0.00    +0.000 N 
ATOM     10  C   UNL     1      45.368   2.648   9.054  0.00  0.00    +0.000 C 
ATOM     11  O   UNL     1      44.568   1.792   9.420  0.00  0.00    +0.000 OA
ATOM     12  H   UNL     1      46.231   4.494   9.390  0.00  0.00    +0.000 HD
BRANCH  10  13
ATOM     13  C   UNL     1      46.186   2.473   7.883  0.00  0.00    +0.000 A 
ATOM     14  C   UNL     1      46.495   3.275   6.801  0.00  0.00    +0.000 A 
ATOM     15  C   UNL     1      47.372   2.507   6.011  0.00  0.00    +0.000 A 
ATOM     16  N   UNL     1      47.604   1.305   6.537  0.00  0.00    +0.000 NA
ATOM     17  N   UNL     1      46.868   1.304   7.661  0.00  0.00    +0.000 N 
ATOM     18  H   UNL     1      46.871   0.480   8.254  0.00  0.00    +0.000 HD
ENDBRANCH  10  13
ENDBRANCH   8   9
ENDBRANCH   1   8
BRANCH   4  19
ATOM     19  C   UNL     1      48.128   7.211  14.698  0.00  0.00    +0.000 C 
BRANCH  19  20
ATOM     20  N   UNL     1      49.164   6.401  15.285  0.00  0.00    +0.000 N 
ATOM     21  C   UNL     1      49.201   6.170  16.637  0.00  0.00    +0.000 C 
ATOM     22  O   UNL     1      48.327   6.589  17.393  0.00  0.00    +0.000 OA
ATOM     23  H   UNL     1      49.989   6.235  14.726  0.00  0.00    +0.000 HD
BRANCH  21  24
ATOM     24  C   UNL     1      50.317   5.358  17.137  0.00  0.00    +0.000 A 
ATOM     25  C   UNL     1      51.441   5.984  17.659  0.00  0.00    +0.000 A 
ATOM     26  S   UNL     1      52.631   4.898  18.221  0.00  0.00    +0.000 S 
ATOM     27  C   UNL     1      51.706   3.553  17.744  0.00  0.00    +0.000 A 
ATOM     28  N   UNL     1      52.175   2.288  17.918  0.00  0.00    +0.000 NA
ATOM     29  C   UNL     1      51.382   1.362  17.491  0.00  0.00    +0.000 A 
ATOM     30  N   UNL     1      50.160   1.587  16.912  0.00  0.00    +0.000 N 
ATOM     31  C   UNL     1      49.635   2.846  16.740  0.00  0.00    +0.000 A 
ATOM     32  O   UNL     1      48.520   3.008  16.253  0.00  0.00    +0.000 OA
ATOM     33  C   UNL     1      50.495   3.926  17.188  0.00  0.00    +0.000 A 
ATOM     34  H   UNL     1      49.582   0.817  16.609  0.00  0.00    +0.000 HD
ENDBRANCH  21  24
ENDBRANCH  19  20
ENDBRANCH   4  19
TORSDOF 6
ENDMDL
MODEL 3
REMARK VINA RESULT:    -7.749      5.188      9.768
REMARK INTER + INTRA:         -11.505
REMARK INTER:                 -10.581
REMARK INTRA:                  -0.923
REMARK UNBOUND:                -1.037
REMARK  Name = 
REMARK  7 active torsions:
REMARK  status: ('A' for Active; 'I' for Inactive)
REMARK    1  A    between atoms: C_1  and  C_2
REMARK    2  A    between atoms: C_2  and  N_3
REMARK    3  A    between atoms: C_2  and  C_11
REMARK    4  A    between atoms: C_4  and  C_6
REMARK    5  A    between atoms: C_14  and  C_15
REMARK    6  A    between atoms: C_15  and  N_16
REMARK    7  A    between atoms: C_17  and  C_19
REMARK                            x       y       z     vdW  Elec       q    Type
REMARK                         _______ _______ _______ _____ _____    ______ ____
ROOT
ATOM      1  C   UNL     1      51.363   3.124  17.703  0.00  0.00    +0.000 A 
ATOM      2  C   UNL     1      50.700   4.348  17.874  0.00  0.00    +0.000 A 
ATOM      3  C   UNL     1      49.335   4.471  17.594  0.00  0.00    +0.000 A 
ATOM      4  C   UNL     1      48.599   3.370  17.139  0.00  0.00    +0.000 A 
ATOM      5  C   UNL     1      49.264   2.156  16.931  0.00  0.00    +0.000 A 
ATOM      6  C   UNL     1      50.626   2.031  17.220  0.00  0.00    +0.000 A 
ENDROOT
BRANCH   1   8
ATOM      7  C   UNL     1      53.292   4.124  18.983  0.00  0.00    +0.000 C 
ATOM      8  C   UNL     1      52.841   3.009  18.036  0.00  0.00    +0.000 C 
BRANCH   8   9
ATOM      9  N   UNL     1      53.135   1.698  18.593  0.00  0.00    +0.000 N 
ATOM     10  C   UNL     1      53.929   0.784  17.944  0.00  0.00    +0.000 C 
ATOM     11  O   UNL     1      54.442   1.008  16.852  0.00  0.00    +0.000 OA
ATOM     12  H   UNL     1      52.738   1.461  19.489  0.00  0.00    +0.000 HD
BRANCH  10  13
ATOM     13  C   UNL     1      54.107  -0.472  18.623  0.00  0.00    +0.000 A 
ATOM     14  C   UNL     1      55.211  -1.162  19.089  0.00  0.00    +0.000 A 
ATOM     15  C   UNL     1      54.692  -2.330  19.681  0.00  0.00    +0.000 A 
ATOM     16  N   UNL     1      53.364  -2.392  19.597  0.00  0.00    +0.000 NA
ATOM     17  N   UNL     1      53.035  -1.264  18.945  0.00  0.00    +0.000 N 
ATOM     18  H   UNL     1      52.057  -1.073  18.749  0.00  0.00    +0.000 HD
ENDBRANCH  10  13
ENDBRANCH   8   9
ENDBRANCH   1   8
BRANCH   4  19
ATOM     19  C   UNL     1      47.124   3.491  16.851  0.00  0.00    +0.000 C 
BRANCH  19  20
ATOM     20  N   UNL     1      46.864   4.488  15.845  0.00  0.00    +0.000 N 
ATOM     21  C   UNL     1      47.002   4.199  14.511  0.00  0.00    +0.000 C 
ATOM     22  O   UNL     1      47.291   3.072  14.115  0.00  0.00    +0.000 OA
ATOM     23  H   UNL     1      46.839   5.452  16.148  0.00  0.00    +0.000 HD
BRANCH  21  24
ATOM     24  C   UNL     1      46.745   5.295  13.568  0.00  0.00    +0.000 A 
ATOM     25  C   UNL     1      47.770   6.172  13.240  0.00  0.00    +0.000 A 
ATOM     26  S   UNL     1      47.314   7.369  12.113  0.00  0.00    +0.000 S 
ATOM     27  C   UNL     1      45.717   6.785  12.058  0.00  0.00    +0.000 A 
ATOM     28  N   UNL     1      44.778   7.395  11.287  0.00  0.00    +0.000 NA
ATOM     29  C   UNL     1      43.603   6.864  11.356  0.00  0.00    +0.000 A 
ATOM     30  N   UNL     1      43.284   5.773  12.123  0.00  0.00    +0.000 N 
ATOM     31  C   UNL     1      44.206   5.109  12.897  0.00  0.00    +0.000 A 
ATOM     32  O   UNL     1      43.894   4.111  13.541  0.00  0.00    +0.000 OA
ATOM     33  C   UNL     1      45.541   5.677  12.868  0.00  0.00    +0.000 A 
ATOM     34  H   UNL     1      42.347   5.398  12.124  0.00  0.00    +0.000 HD
ENDBRANCH  21  24
ENDBRANCH  19  20
ENDBRANCH   4  19
TORSDOF 6
ENDMDL
MODEL 4
REMARK VINA RESULT:    -7.649      1.304      1.965
REMARK INTER + INTRA:         -11.370
REMARK INTER:                 -10.490
REMARK INTRA:                  -0.880
REMARK UNBOUND:                -1.037
REMARK  Name = 
REMARK  7 active torsions:
REMARK  status: ('A' for Active; 'I' for Inactive)
REMARK    1  A    between atoms: C_1  and  C_2
REMARK    2  A    between atoms: C_2  and  N_3
REMARK    3  A    between atoms: C_2  and  C_11
REMARK    4  A    between atoms: C_4  and  C_6
REMARK    5  A    between atoms: C_14  and  C_15
REMARK    6  A    between atoms: C_15  and  N_16
REMARK    7  A    between atoms: C_17  and  C_19
REMARK                            x       y       z     vdW  Elec       q    Type
REMARK                         _______ _______ _______ _____ _____    ______ ____
ROOT
ATOM      1  C   UNL     1      45.635   5.236  11.709  0.00  0.00    +0.000 A 
ATOM      2  C   UNL     1      45.907   6.535  11.256  0.00  0.00    +0.000 A 
ATOM      3  C   UNL     1      46.728   7.396  11.995  0.00  0.00    +0.000 A 
ATOM      4  C   UNL     1      47.298   6.974  13.202  0.00  0.00    +0.000 A 
ATOM      5  C   UNL     1      46.999   5.691  13.675  0.00  0.00    +0.000 A 
ATOM      6  C   UNL     1      46.188   4.828  12.933  0.00  0.00    +0.000 A 
ENDROOT
BRANCH   1   8
ATOM      7  C   UNL     1      43.403   4.948  10.569  0.00  0.00    +0.000 C 
ATOM      8  C   UNL     1      44.761   4.311  10.877  0.00  0.00    +0.000 C 
BRANCH   8   9
ATOM      9  N   UNL     1      45.449   3.924   9.656  0.00  0.00    +0.000 N 
ATOM     10  C   UNL     1      45.238   2.713   9.045  0.00  0.00    +0.000 C 
ATOM     11  O   UNL     1      44.460   1.873   9.487  0.00  0.00    +0.000 OA
ATOM     12  H   UNL     1      46.100   4.578   9.249  0.00  0.00    +0.000 HD
BRANCH  10  13
ATOM     13  C   UNL     1      46.010   2.480   7.853  0.00  0.00    +0.000 A 
ATOM     14  C   UNL     1      46.258   3.221   6.712  0.00  0.00    +0.000 A 
ATOM     15  C   UNL     1      47.117   2.421   5.934  0.00  0.00    +0.000 A 
ATOM     16  N   UNL     1      47.393   1.257   6.519  0.00  0.00    +0.000 NA
ATOM     17  N   UNL     1      46.704   1.312   7.672  0.00  0.00    +0.000 N 
ATOM     18  H   UNL     1      46.747   0.525   8.313  0.00  0.00    +0.000 HD
ENDBRANCH  10  13
ENDBRANCH   8   9
ENDBRANCH   1   8
BRANCH   4  19
ATOM     19  C   UNL     1      48.196   7.890  13.994  0.00  0.00    +0.000 C 
BRANCH  19  20
ATOM     20  N   UNL     1      48.005   7.718  15.411  0.00  0.00    +0.000 N 
ATOM     21  C   UNL     1      49.046   7.354  16.227  0.00  0.00    +0.000 C 
ATOM     22  O   UNL     1      50.191   7.220  15.801  0.00  0.00    +0.000 OA
ATOM     23  H   UNL     1      47.054   7.613  15.737  0.00  0.00    +0.000 HD
BRANCH  21  24
ATOM     24  C   UNL     1      48.737   7.173  17.651  0.00  0.00    +0.000 A 
ATOM     25  C   UNL     1      48.365   8.269  18.417  0.00  0.00    +0.000 A 
ATOM     26  S   UNL     1      48.013   7.883  20.041  0.00  0.00    +0.000 S 
ATOM     27  C   UNL     1      48.390   6.244  19.790  0.00  0.00    +0.000 A 
ATOM     28  N   UNL     1      48.323   5.348  20.811  0.00  0.00    +0.000 NA
ATOM     29  C   UNL     1      48.656   4.144  20.487  0.00  0.00    +0.000 A 
ATOM     30  N   UNL     1      49.046   3.753  19.232  0.00  0.00    +0.000 N 
ATOM     31  C   UNL     1      49.104   4.617  18.165  0.00  0.00    +0.000 A 
ATOM     32  O   UNL     1      49.419   4.223  17.046  0.00  0.00    +0.000 OA
ATOM     33  C   UNL     1      48.753   5.989  18.479  0.00  0.00    +0.000 A 
ATOM     34  H   UNL     1      49.284   2.791  19.041  0.00  0.00    +0.000 HD
ENDBRANCH  21  24
ENDBRANCH  19  20
ENDBRANCH   4  19
TORSDOF 6
ENDMDL
MODEL 5
REMARK VINA RESULT:    -7.444      5.123      9.542
REMARK INTER + INTRA:         -11.092
REMARK INTER:                  -9.875
REMARK INTRA:                  -1.216
REMARK UNBOUND:                -1.037
REMARK  Name = 
REMARK  7 active torsions:
REMARK  status: ('A' for Active; 'I' for Inactive)
REMARK    1  A    between atoms: C_1  and  C_2
REMARK    2  A    between atoms: C_2  and  N_3
REMARK    3  A    between atoms: C_2  and  C_11
REMARK    4  A    between atoms: C_4  and  C_6
REMARK    5  A    between atoms: C_14  and  C_15
REMARK    6  A    between atoms: C_15  and  N_16
REMARK    7  A    between atoms: C_17  and  C_19
REMARK                            x       y       z     vdW  Elec       q    Type
REMARK                         _______ _______ _______ _____ _____    ______ ____
ROOT
ATOM      1  C   UNL     1      51.465   3.037  17.743  0.00  0.00    +0.000 A 
ATOM      2  C   UNL     1      50.683   2.013  17.188  0.00  0.00    +0.000 A 
ATOM      3  C   UNL     1      49.324   2.213  16.921  0.00  0.00    +0.000 A 
ATOM      4  C   UNL     1      48.716   3.444  17.198  0.00  0.00    +0.000 A 
ATOM      5  C   UNL     1      49.485   4.456  17.786  0.00  0.00    +0.000 A 
ATOM      6  C   UNL     1      50.844   4.260  18.044  0.00  0.00    +0.000 A 
ENDROOT
BRANCH   1   8
ATOM      7  C   UNL     1      53.554   3.939  18.832  0.00  0.00    +0.000 C 
ATOM      8  C   UNL     1      52.945   2.805  18.003  0.00  0.00    +0.000 C 
BRANCH   8   9
ATOM      9  N   UNL     1      53.151   1.516  18.644  0.00  0.00    +0.000 N 
ATOM     10  C   UNL     1      53.739   0.458  17.995  0.00  0.00    +0.000 C 
ATOM     11  O   UNL     1      54.126   0.523  16.833  0.00  0.00    +0.000 OA
ATOM     12  H   UNL     1      52.851   1.407  19.600  0.00  0.00    +0.000 HD
BRANCH  10  13
ATOM     13  C   UNL     1      53.855  -0.752  18.767  0.00  0.00    +0.000 A 
ATOM     14  C   UNL     1      54.906  -1.388  19.399  0.00  0.00    +0.000 A 
ATOM     15  C   UNL     1      54.339  -2.530  19.997  0.00  0.00    +0.000 A 
ATOM     16  N   UNL     1      53.031  -2.627  19.764  0.00  0.00    +0.000 NA
ATOM     17  N   UNL     1      52.765  -1.547  19.010  0.00  0.00    +0.000 N 
ATOM     18  H   UNL     1      51.813  -1.389  18.690  0.00  0.00    +0.000 HD
ENDBRANCH  10  13
ENDBRANCH   8   9
ENDBRANCH   1   8
BRANCH   4  19
ATOM     19  C   UNL     1      47.257   3.671  16.896  0.00  0.00    +0.000 C 
BRANCH  19  20
ATOM     20  N   UNL     1      47.082   4.656  15.860  0.00  0.00    +0.000 N 
ATOM     21  C   UNL     1      47.123   4.302  14.534  0.00  0.00    +0.000 C 
ATOM     22  O   UNL     1      47.249   3.133  14.176  0.00  0.00    +0.000 OA
ATOM     23  H   UNL     1      47.192   5.625  16.122  0.00  0.00    +0.000 HD
BRANCH  21  24
ATOM     24  C   UNL     1      46.966   5.387  13.557  0.00  0.00    +0.000 A 
ATOM     25  C   UNL     1      45.918   5.345  12.648  0.00  0.00    +0.000 A 
ATOM     26  S   UNL     1      45.862   6.692  11.603  0.00  0.00    +0.000 S 
ATOM     27  C   UNL     1      47.264   7.358  12.299  0.00  0.00    +0.000 A 
ATOM     28  N   UNL     1      47.786   8.525  11.835  0.00  0.00    +0.000 NA
ATOM     29  C   UNL     1      48.863   8.904  12.437  0.00  0.00    +0.000 A 
ATOM     30  N   UNL     1      49.463   8.225  13.466  0.00  0.00    +0.000 N 
ATOM     31  C   UNL     1      48.957   7.056  13.984  0.00  0.00    +0.000 A 
ATOM     32  O   UNL     1      49.498   6.496  14.933  0.00  0.00    +0.000 OA
ATOM     33  C   UNL     1      47.753   6.577  13.331  0.00  0.00    +0.000 A 
ATOM     34  H   UNL     1      50.299   8.582  13.903  0.00  0.00    +0.000 HD
ENDBRANCH  21  24
ENDBRANCH  19  20
ENDBRANCH   4  19
TORSDOF 6
ENDMDL
MODEL 6
REMARK VINA RESULT:    -7.306      2.802      4.129
REMARK INTER + INTRA:         -10.906
REMARK INTER:                  -9.760
REMARK INTRA:                  -1.145
REMARK UNBOUND:                -1.037
REMARK  Name = 
REMARK  7 active torsions:
REMARK  status: ('A' for Active; 'I' for Inactive)
REMARK    1  A    between atoms: C_1  and  C_2
REMARK    2  A    between atoms: C_2  and  N_3
REMARK    3  A    between atoms: C_2  and  C_11
REMARK    4  A    between atoms: C_4  and  C_6
REMARK    5  A    between atoms: C_14  and  C_15
REMARK    6  A    between atoms: C_15  and  N_16
REMARK    7  A    between atoms: C_17  and  C_19
REMARK                            x       y       z     vdW  Elec       q    Type
REMARK                         _______ _______ _______ _____ _____    ______ ____
ROOT
ATOM      1  C   UNL     1      45.277   4.256  11.788  0.00  0.00    +0.000 A 
ATOM      2  C   UNL     1      45.496   5.592  12.153  0.00  0.00    +0.000 A 
ATOM      3  C   UNL     1      46.276   5.913  13.270  0.00  0.00    +0.000 A 
ATOM      4  C   UNL     1      46.859   4.904  14.045  0.00  0.00    +0.000 A 
ATOM      5  C   UNL     1      46.613   3.568  13.706  0.00  0.00    +0.000 A 
ATOM      6  C   UNL     1      45.842   3.248  12.585  0.00  0.00    +0.000 A 
ENDROOT
BRANCH   1   8
ATOM      7  C   UNL     1      43.445   5.048  10.246  0.00  0.00    +0.000 C 
ATOM      8  C   UNL     1      44.446   3.931  10.557  0.00  0.00    +0.000 C 
BRANCH   8   9
ATOM      9  N   UNL     1      45.309   3.667   9.418  0.00  0.00    +0.000 N 
ATOM     10  C   UNL     1      45.333   2.451   8.780  0.00  0.00    +0.000 C 
ATOM     11  O   UNL     1      44.632   1.505   9.127  0.00  0.00    +0.000 OA
ATOM     12  H   UNL     1      45.906   4.410   9.090  0.00  0.00    +0.000 HD
BRANCH  10  13
ATOM     13  C   UNL     1      46.255   2.349   7.679  0.00  0.00    +0.000 A 
ATOM     14  C   UNL     1      46.538   3.150   6.589  0.00  0.00    +0.000 A 
ATOM     15  C   UNL     1      47.567   2.481   5.899  0.00  0.00    +0.000 A 
ATOM     16  N   UNL     1      47.914   1.339   6.490  0.00  0.00    +0.000 NA
ATOM     17  N   UNL     1      47.100   1.276   7.557  0.00  0.00    +0.000 N 
ATOM     18  H   UNL     1      47.166   0.479   8.184  0.00  0.00    +0.000 HD
ENDBRANCH  10  13
ENDBRANCH   8   9
ENDBRANCH   1   8
BRANCH   4  19
ATOM     19  C   UNL     1      47.715   5.243  15.240  0.00  0.00    +0.000 C 
BRANCH  19  20
ATOM     20  N   UNL     1      48.332   6.536  15.094  0.00  0.00    +0.000 N 
ATOM     21  C   UNL     1      49.559   6.801  15.649  0.00  0.00    +0.000 C 
ATOM     22  O   UNL     1      50.208   5.938  16.237  0.00  0.00    +0.000 OA
ATOM     23  H   UNL     1      47.736   7.301  14.810  0.00  0.00    +0.000 HD
BRANCH  21  24
ATOM     24  C   UNL     1      50.085   8.160  15.470  0.00  0.00    +0.000 A 
ATOM     25  C   UNL     1      50.475   8.897  16.580  0.00  0.00    +0.000 A 
ATOM     26  S   UNL     1      51.087  10.442  16.196  0.00  0.00    +0.000 S 
ATOM     27  C   UNL     1      50.809  10.200  14.536  0.00  0.00    +0.000 A 
ATOM     28  N   UNL     1      51.094  11.174  13.631  0.00  0.00    +0.000 NA
ATOM     29  C   UNL     1      50.814  10.867  12.409  0.00  0.00    +0.000 A 
ATOM     30  N   UNL     1      50.279   9.670  12.009  0.00  0.00    +0.000 N 
ATOM     31  C   UNL     1      49.999   8.647  12.883  0.00  0.00    +0.000 A 
ATOM     32  O   UNL     1      49.558   7.573  12.484  0.00  0.00    +0.000 OA
ATOM     33  C   UNL     1      50.281   8.947  14.275  0.00  0.00    +0.000 A 
ATOM     34  H   UNL     1      50.093   9.487  11.034  0.00  0.00    +0.000 HD
ENDBRANCH  21  24
ENDBRANCH  19  20
ENDBRANCH   4  19
TORSDOF 6
ENDMDL
MODEL 7
REMARK VINA RESULT:    -7.272      3.832      5.438
REMARK INTER + INTRA:         -10.860
REMARK INTER:                  -9.900
REMARK INTRA:                  -0.960
REMARK UNBOUND:                -1.037
REMARK  Name = 
REMARK  7 active torsions:
REMARK  status: ('A' for Active; 'I' for Inactive)
REMARK    1  A    between atoms: C_1  and  C_2
REMARK    2  A    between atoms: C_2  and  N_3
REMARK    3  A    between atoms: C_2  and  C_11
REMARK    4  A    between atoms: C_4  and  C_6
REMARK    5  A    between atoms: C_14  and  C_15
REMARK    6  A    between atoms: C_15  and  N_16
REMARK    7  A    between atoms: C_17  and  C_19
REMARK                            x       y       z     vdW  Elec       q    Type
REMARK                         _______ _______ _______ _____ _____    ______ ____
ROOT
ATOM      1  C   UNL     1      47.573   5.876  14.300  0.00  0.00    +0.000 A 
ATOM      2  C   UNL     1      46.966   4.614  14.385  0.00  0.00    +0.000 A 
ATOM      3  C   UNL     1      47.163   3.797  15.504  0.00  0.00    +0.000 A 
ATOM      4  C   UNL     1      47.968   4.224  16.566  0.00  0.00    +0.000 A 
ATOM      5  C   UNL     1      48.606   5.467  16.468  0.00  0.00    +0.000 A 
ATOM      6  C   UNL     1      48.402   6.288  15.355  0.00  0.00    +0.000 A 
ENDROOT
BRANCH   1   8
ATOM      7  C   UNL     1      48.585   7.534  12.690  0.00  0.00    +0.000 C 
ATOM      8  C   UNL     1      47.326   6.757  13.085  0.00  0.00    +0.000 C 
BRANCH   8   9
ATOM      9  N   UNL     1      46.830   5.961  11.974  0.00  0.00    +0.000 N 
ATOM     10  C   UNL     1      45.573   6.134  11.450  0.00  0.00    +0.000 C 
ATOM     11  O   UNL     1      44.782   6.966  11.881  0.00  0.00    +0.000 OA
ATOM     12  H   UNL     1      47.440   5.261  11.580  0.00  0.00    +0.000 HD
BRANCH  10  13
ATOM     13  C   UNL     1      45.231   5.255  10.362  0.00  0.00    +0.000 A 
ATOM     14  C   UNL     1      44.367   4.184  10.231  0.00  0.00    +0.000 A 
ATOM     15  C   UNL     1      44.492   3.772   8.890  0.00  0.00    +0.000 A 
ATOM     16  N   UNL     1      45.370   4.511   8.213  0.00  0.00    +0.000 NA
ATOM     17  N   UNL     1      45.810   5.393   9.127  0.00  0.00    +0.000 N 
ATOM     18  H   UNL     1      46.506   6.082   8.856  0.00  0.00    +0.000 HD
ENDBRANCH  10  13
ENDBRANCH   8   9
ENDBRANCH   1   8
BRANCH   4  19
ATOM     19  C   UNL     1      48.171   3.356  17.781  0.00  0.00    +0.000 C 
BRANCH  19  20
ATOM     20  N   UNL     1      49.567   3.091  18.011  0.00  0.00    +0.000 N 
ATOM     21  C   UNL     1      50.276   2.260  17.180  0.00  0.00    +0.000 C 
ATOM     22  O   UNL     1      49.773   1.759  16.177  0.00  0.00    +0.000 OA
ATOM     23  H   UNL     1      49.933   3.313  18.927  0.00  0.00    +0.000 HD
BRANCH  21  24
ATOM     24  C   UNL     1      51.685   2.031  17.522  0.00  0.00    +0.000 A 
ATOM     25  C   UNL     1      52.150   0.732  17.681  0.00  0.00    +0.000 A 
ATOM     26  S   UNL     1      53.814   0.640  18.049  0.00  0.00    +0.000 S 
ATOM     27  C   UNL     1      53.962   2.334  18.055  0.00  0.00    +0.000 A 
ATOM     28  N   UNL     1      55.151   2.929  18.337  0.00  0.00    +0.000 NA
ATOM     29  C   UNL     1      55.118   4.220  18.329  0.00  0.00    +0.000 A 
ATOM     30  N   UNL     1      54.002   4.970  18.059  0.00  0.00    +0.000 N 
ATOM     31  C   UNL     1      52.786   4.412  17.744  0.00  0.00    +0.000 A 
ATOM     32  O   UNL     1      51.818   5.115  17.468  0.00  0.00    +0.000 OA
ATOM     33  C   UNL     1      52.765   2.961  17.754  0.00  0.00    +0.000 A 
ATOM     34  H   UNL     1      54.045   5.978  18.058  0.00  0.00    +0.000 HD
ENDBRANCH  21  24
ENDBRANCH  19  20
ENDBRANCH   4  19
TORSDOF 6
ENDMDL
MODEL 8
REMARK VINA RESULT:    -6.948      4.200      9.329
REMARK INTER + INTRA:         -10.423
REMARK INTER:                  -9.271
REMARK INTRA:                  -1.152
REMARK UNBOUND:                -1.037
REMARK  Name = 
REMARK  7 active torsions:
REMARK  status: ('A' for Active; 'I' for Inactive)
REMARK    1  A    between atoms: C_1  and  C_2
REMARK    2  A    between atoms: C_2  and  N_3
REMARK    3  A    between atoms: C_2  and  C_11
REMARK    4  A    between atoms: C_4  and  C_6
REMARK    5  A    between atoms: C_14  and  C_15
REMARK    6  A    between atoms: C_15  and  N_16
REMARK    7  A    between atoms: C_17  and  C_19
REMARK                            x       y       z     vdW  Elec       q    Type
REMARK                         _______ _______ _______ _____ _____    ______ ____
ROOT
ATOM      1  C   UNL     1      49.285   5.258  17.201  0.00  0.00    +0.000 A 
ATOM      2  C   UNL     1      49.966   6.349  16.642  0.00  0.00    +0.000 A 
ATOM      3  C   UNL     1      49.514   6.948  15.460  0.00  0.00    +0.000 A 
ATOM      4  C   UNL     1      48.367   6.473  14.814  0.00  0.00    +0.000 A 
ATOM      5  C   UNL     1      47.706   5.361  15.349  0.00  0.00    +0.000 A 
ATOM      6  C   UNL     1      48.151   4.768  16.534  0.00  0.00    +0.000 A 
ENDROOT
BRANCH   1   8
ATOM      7  C   UNL     1      48.618   4.175  19.379  0.00  0.00    +0.000 C 
ATOM      8  C   UNL     1      49.781   4.638  18.498  0.00  0.00    +0.000 C 
BRANCH   8   9
ATOM      9  N   UNL     1      50.697   3.544  18.220  0.00  0.00    +0.000 N 
ATOM     10  C   UNL     1      52.038   3.617  18.507  0.00  0.00    +0.000 C 
ATOM     11  O   UNL     1      52.556   4.607  19.013  0.00  0.00    +0.000 OA
ATOM     12  H   UNL     1      50.324   2.705  17.803  0.00  0.00    +0.000 HD
BRANCH  10  13
ATOM     13  C   UNL     1      52.808   2.453  18.154  0.00  0.00    +0.000 A 
ATOM     14  C   UNL     1      54.008   2.262  17.494  0.00  0.00    +0.000 A 
ATOM     15  C   UNL     1      54.212   0.868  17.498  0.00  0.00    +0.000 A 
ATOM     16  N   UNL     1      53.222   0.214  18.104  0.00  0.00    +0.000 NA
ATOM     17  N   UNL     1      52.382   1.192  18.482  0.00  0.00    +0.000 N 
ATOM     18  H   UNL     1      51.527   0.948  18.974  0.00  0.00    +0.000 HD
ENDBRANCH  10  13
ENDBRANCH   8   9
ENDBRANCH   1   8
BRANCH   4  19
ATOM     19  C   UNL     1      47.865   7.124  13.550  0.00  0.00    +0.000 C 
BRANCH  19  20
ATOM     20  N   UNL     1      47.239   6.165  12.677  0.00  0.00    +0.000 N 
ATOM     21  C   UNL     1      46.295   6.553  11.760  0.00  0.00    +0.000 C 
ATOM     22  O   UNL     1      45.988   7.733  11.602  0.00  0.00    +0.000 OA
ATOM     23  H   UNL     1      47.316   5.190  12.934  0.00  0.00    +0.000 HD
BRANCH  21  24
ATOM     24  C   UNL     1      45.695   5.492  10.941  0.00  0.00    +0.000 A 
ATOM     25  C   UNL     1      45.823   5.536   9.559  0.00  0.00    +0.000 A 
ATOM     26  S   UNL     1      45.094   4.217   8.761  0.00  0.00    +0.000 S 
ATOM     27  C   UNL     1      44.542   3.563  10.231  0.00  0.00    +0.000 A 
ATOM     28  N   UNL     1      43.804   2.421  10.252  0.00  0.00    +0.000 NA
ATOM     29  C   UNL     1      43.431   2.049  11.431  0.00  0.00    +0.000 A 
ATOM     30  N   UNL     1      43.734   2.713  12.591  0.00  0.00    +0.000 N 
ATOM     31  C   UNL     1      44.497   3.855  12.620  0.00  0.00    +0.000 A 
ATOM     32  O   UNL     1      44.783   4.402  13.682  0.00  0.00    +0.000 OA
ATOM     33  C   UNL     1      44.930   4.327  11.318  0.00  0.00    +0.000 A 
ATOM     34  H   UNL     1      43.420   2.363  13.484  0.00  0.00    +0.000 HD
ENDBRANCH  21  24
ENDBRANCH  19  20
ENDBRANCH   4  19
TORSDOF 6
ENDMDL
MODEL 9
REMARK VINA RESULT:    -6.862      3.471      4.878
REMARK INTER + INTRA:         -10.305
REMARK INTER:                  -9.274
REMARK INTRA:                  -1.032
REMARK UNBOUND:                -1.037
REMARK  Name = 
REMARK  7 active torsions:
REMARK  status: ('A' for Active; 'I' for Inactive)
REMARK    1  A    between atoms: C_1  and  C_2
REMARK    2  A    between atoms: C_2  and  N_3
REMARK    3  A    between atoms: C_2  and  C_11
REMARK    4  A    between atoms: C_4  and  C_6
REMARK    5  A    between atoms: C_14  and  C_15
REMARK    6  A    between atoms: C_15  and  N_16
REMARK    7  A    between atoms: C_17  and  C_19
REMARK                            x       y       z     vdW  Elec       q    Type
REMARK                         _______ _______ _______ _____ _____    ______ ____
ROOT
ATOM      1  C   UNL     1      45.608   4.640  11.791  0.00  0.00    +0.000 A 
ATOM      2  C   UNL     1      46.105   5.930  11.552  0.00  0.00    +0.000 A 
ATOM      3  C   UNL     1      46.924   6.568  12.491  0.00  0.00    +0.000 A 
ATOM      4  C   UNL     1      47.268   5.930  13.688  0.00  0.00    +0.000 A 
ATOM      5  C   UNL     1      46.744   4.657  13.946  0.00  0.00    +0.000 A 
ATOM      6  C   UNL     1      45.934   4.015  13.005  0.00  0.00    +0.000 A 
ENDROOT
BRANCH   1   8
ATOM      7  C   UNL     1      43.486   4.778  10.434  0.00  0.00    +0.000 C 
ATOM      8  C   UNL     1      44.739   3.956  10.747  0.00  0.00    +0.000 C 
BRANCH   8   9
ATOM      9  N   UNL     1      45.508   3.692   9.542  0.00  0.00    +0.000 N 
ATOM     10  C   UNL     1      45.380   2.525   8.829  0.00  0.00    +0.000 C 
ATOM     11  O   UNL     1      44.613   1.627   9.158  0.00  0.00    +0.000 OA
ATOM     12  H   UNL     1      46.155   4.398   9.225  0.00  0.00    +0.000 HD
BRANCH  10  13
ATOM     13  C   UNL     1      46.225   2.415   7.669  0.00  0.00    +0.000 A 
ATOM     14  C   UNL     1      46.367   3.158   6.512  0.00  0.00    +0.000 A 
ATOM     15  C   UNL     1      47.392   2.519   5.787  0.00  0.00    +0.000 A 
ATOM     16  N   UNL     1      47.867   1.448   6.420  0.00  0.00    +0.000 NA
ATOM     17  N   UNL     1      47.139   1.400   7.549  0.00  0.00    +0.000 N 
ATOM     18  H   UNL     1      47.310   0.653   8.217  0.00  0.00    +0.000 HD
ENDBRANCH  10  13
ENDBRANCH   8   9
ENDBRANCH   1   8
BRANCH   4  19
ATOM     19  C   UNL     1      48.164   6.605  14.695  0.00  0.00    +0.000 C 
BRANCH  19  20
ATOM     20  N   UNL     1      49.374   7.089  14.081  0.00  0.00    +0.000 N 
ATOM     21  C   UNL     1      49.598   8.433  13.922  0.00  0.00    +0.000 C 
ATOM     22  O   UNL     1      48.813   9.278  14.346  0.00  0.00    +0.000 OA
ATOM     23  H   UNL     1      49.915   6.424  13.545  0.00  0.00    +0.000 HD
BRANCH  21  24
ATOM     24  C   UNL     1      50.848   8.819  13.255  0.00  0.00    +0.000 A 
ATOM     25  C   UNL     1      50.799   9.522  12.059  0.00  0.00    +0.000 A 
ATOM     26  S   UNL     1      52.336   9.916  11.432  0.00  0.00    +0.000 S 
ATOM     27  C   UNL     1      53.122   9.122  12.714  0.00  0.00    +0.000 A 
ATOM     28  N   UNL     1      54.480   9.058  12.767  0.00  0.00    +0.000 NA
ATOM     29  C   UNL     1      54.944   8.407  13.780  0.00  0.00    +0.000 A 
ATOM     30  N   UNL     1      54.174   7.816  14.748  0.00  0.00    +0.000 N 
ATOM     31  C   UNL     1      52.800   7.877  14.750  0.00  0.00    +0.000 A 
ATOM     32  O   UNL     1      52.144   7.371  15.655  0.00  0.00    +0.000 OA
ATOM     33  C   UNL     1      52.225   8.585  13.622  0.00  0.00    +0.000 A 
ATOM     34  H   UNL     1      54.600   7.330  15.523  0.00  0.00    +0.000 HD
ENDBRANCH  21  24
ENDBRANCH  19  20
ENDBRANCH   4  19
TORSDOF 6
ENDMDL
