MODEL 1
REMARK VINA RESULT:    -7.729      0.000      0.000
REMARK INTER + INTRA:         -12.605
REMARK INTER:                 -11.344
REMARK INTRA:                  -1.261
REMARK UNBOUND:                -1.261
REMARK  Name = 
REMARK  10 active torsions:
REMARK  status: ('A' for Active; 'I' for Inactive)
REMARK    1  A    between atoms: C_1  and  C_2
REMARK    2  A    between atoms: C_2  and  C_3
REMARK    3  A    between atoms: C_2  and  C_4
REMARK    4  A    between atoms: C_2  and  C_21
REMARK    5  A    between atoms: C_4  and  N_5
REMARK    6  A    between atoms: N_5  and  C_6
REMARK    7  A    between atoms: C_9  and  C_10
REMARK    8  A    between atoms: C_14  and  N_15
REMARK    9  A    between atoms: C_25  and  O_26
REMARK   10  A    between atoms: O_26  and  C_27
REMARK                            x       y       z     vdW  Elec       q    Type
REMARK                         _______ _______ _______ _____ _____    ______ ____
ROOT
ATOM      1  N   UNL     1      47.263   5.322  13.567  0.00  0.00    +0.000 N 
ATOM      2  H   UNL     1      47.860   5.967  13.068  0.00  0.00    +0.000 HD
ENDROOT
BRANCH   1   3
ATOM      3  C   UNL     1      47.622   5.218  14.925  0.00  0.00    +0.000 A 
ATOM      4  C   UNL     1      47.155   4.106  15.651  0.00  0.00    +0.000 A 
ATOM      5  C   UNL     1      47.632   3.823  16.929  0.00  0.00    +0.000 A 
ATOM      6  C   UNL     1      48.570   4.664  17.514  0.00  0.00    +0.000 A 
ATOM      7  C   UNL     1      48.986   5.825  16.836  0.00  0.00    +0.000 A 
ATOM      8  C   UNL     1      48.509   6.157  15.546  0.00  0.00    +0.000 A 
BRANCH   8   9
ATOM      9  N   UNL     1      48.892   7.364  14.965  0.00  0.00    +0.000 N 
ATOM     10  C   UNL     1      48.114   8.616  15.078  0.00  0.00    +0.000 C 
ATOM     11  C   UNL     1      47.951   9.260  13.689  0.00  0.00    +0.000 C 
ATOM     12  O   UNL     1      49.222   9.497  13.064  0.00  0.00    +0.000 OA
ATOM     13  C   UNL     1      49.912   8.255  12.884  0.00  0.00    +0.000 C 
ATOM     14  C   UNL     1      50.144   7.531  14.213  0.00  0.00    +0.000 C 
ENDBRANCH   8   9
BRANCH   6  15
ATOM     15  C   UNL     1      49.100   4.289  18.852  0.00  0.00    +0.000 C 
ATOM     16  N   UNL     1      48.341   3.466  19.639  0.00  0.00    +0.000 N 
ATOM     17  O   UNL     1      50.192   4.679  19.245  0.00  0.00    +0.000 OA
ATOM     18  H   UNL     1      47.578   2.920  19.270  0.00  0.00    +0.000 HD
ATOM     19  H   UNL     1      48.780   3.145  20.494  0.00  0.00    +0.000 HD
ENDBRANCH   6  15
ENDBRANCH   1   3
BRANCH   1  20
ATOM     20  C   UNL     1      45.853   5.264  13.167  0.00  0.00    +0.000 C 
BRANCH  20  22
ATOM     21  C   UNL     1      44.418   6.902  11.792  0.00  0.00    +0.000 C 
ATOM     22  C   UNL     1      45.585   5.890  11.751  0.00  0.00    +0.000 C 
ATOM     23  C   UNL     1      46.843   6.672  11.295  0.00  0.00    +0.000 C 
BRANCH  22  24
ATOM     24  C   UNL     1      45.192   4.759  10.770  0.00  0.00    +0.000 A 
ATOM     25  C   UNL     1      44.439   3.645  11.168  0.00  0.00    +0.000 A 
ATOM     26  C   UNL     1      44.140   2.616  10.270  0.00  0.00    +0.000 A 
ATOM     27  C   UNL     1      44.562   2.686   8.944  0.00  0.00    +0.000 A 
ATOM     28  C   UNL     1      45.255   3.805   8.502  0.00  0.00    +0.000 A 
ATOM     29  C   UNL     1      45.596   4.811   9.419  0.00  0.00    +0.000 A 
BRANCH  28  30
ATOM     30  O   UNL     1      45.698   4.020   7.232  0.00  0.00    +0.000 OA
BRANCH  30  31
ATOM     31  C   UNL     1      46.661   3.134   6.675  0.00  0.00    +0.000 C 
ATOM     32  F   UNL     1      46.365   1.826   6.825  0.00  0.00    +0.000 F 
ATOM     33  F   UNL     1      46.750   3.382   5.348  0.00  0.00    +0.000 F 
ATOM     34  F   UNL     1      47.868   3.376   7.230  0.00  0.00    +0.000 F 
ENDBRANCH  30  31
ENDBRANCH  28  30
ENDBRANCH  22  24
ENDBRANCH  20  22
ENDBRANCH   1  20
TORSDOF 8
ENDMDL
MODEL 2
REMARK VINA RESULT:    -7.584      1.709      4.372
REMARK INTER + INTRA:         -12.391
REMARK INTER:                 -11.697
REMARK INTRA:                  -0.695
REMARK UNBOUND:                -1.261
REMARK  Name = 
REMARK  10 active torsions:
REMARK  status: ('A' for Active; 'I' for Inactive)
REMARK    1  A    between atoms: C_1  and  C_2
REMARK    2  A    between atoms: C_2  and  C_3
REMARK    3  A    between atoms: C_2  and  C_4
REMARK    4  A    between atoms: C_2  and  C_21
REMARK    5  A    between atoms: C_4  and  N_5
REMARK    6  A    between atoms: N_5  and  C_6
REMARK    7  A    between atoms: C_9  and  C_10
REMARK    8  A    between atoms: C_14  and  N_15
REMARK    9  A    between atoms: C_25  and  O_26
REMARK   10  A    between atoms: O_26  and  C_27
REMARK                            x       y       z     vdW  Elec       q    Type
REMARK                         _______ _______ _______ _____ _____    ______ ____
ROOT
ATOM      1  N   UNL     1      45.856   5.429  13.564  0.00  0.00    +0.000 N 
ATOM      2  H   UNL     1      45.476   5.610  14.482  0.00  0.00    +0.000 HD
ENDROOT
BRANCH   1   3
ATOM      3  C   UNL     1      47.113   6.037  13.385  0.00  0.00    +0.000 A 
ATOM      4  C   UNL     1      47.396   6.622  12.137  0.00  0.00    +0.000 A 
ATOM      5  C   UNL     1      48.523   7.418  11.949  0.00  0.00    +0.000 A 
ATOM      6  C   UNL     1      49.403   7.625  13.004  0.00  0.00    +0.000 A 
ATOM      7  C   UNL     1      49.179   6.980  14.235  0.00  0.00    +0.000 A 
ATOM      8  C   UNL     1      48.057   6.148  14.458  0.00  0.00    +0.000 A 
BRANCH   8   9
ATOM      9  N   UNL     1      47.939   5.470  15.669  0.00  0.00    +0.000 N 
ATOM     10  C   UNL     1      48.400   6.015  16.965  0.00  0.00    +0.000 C 
ATOM     11  C   UNL     1      49.235   4.957  17.711  0.00  0.00    +0.000 C 
ATOM     12  O   UNL     1      48.500   3.737  17.895  0.00  0.00    +0.000 OA
ATOM     13  C   UNL     1      48.149   3.186  16.621  0.00  0.00    +0.000 C 
ATOM     14  C   UNL     1      47.298   4.154  15.794  0.00  0.00    +0.000 C 
ENDBRANCH   8   9
BRANCH   6  15
ATOM     15  C   UNL     1      50.557   8.534  12.777  0.00  0.00    +0.000 C 
ATOM     16  N   UNL     1      51.804   8.095  13.132  0.00  0.00    +0.000 N 
ATOM     17  O   UNL     1      50.418   9.640  12.270  0.00  0.00    +0.000 OA
ATOM     18  H   UNL     1      52.003   7.122  13.306  0.00  0.00    +0.000 HD
ATOM     19  H   UNL     1      52.576   8.694  12.864  0.00  0.00    +0.000 HD
ENDBRANCH   6  15
ENDBRANCH   1   3
BRANCH   1  20
ATOM     20  C   UNL     1      45.576   4.117  12.968  0.00  0.00    +0.000 C 
BRANCH  20  22
ATOM     21  C   UNL     1      43.384   3.023  12.176  0.00  0.00    +0.000 C 
ATOM     22  C   UNL     1      44.408   4.151  11.918  0.00  0.00    +0.000 C 
ATOM     23  C   UNL     1      43.644   5.492  12.051  0.00  0.00    +0.000 C 
BRANCH  22  24
ATOM     24  C   UNL     1      44.999   3.934  10.504  0.00  0.00    +0.000 A 
ATOM     25  C   UNL     1      45.366   5.000   9.669  0.00  0.00    +0.000 A 
ATOM     26  C   UNL     1      45.852   4.774   8.379  0.00  0.00    +0.000 A 
ATOM     27  C   UNL     1      46.011   3.476   7.897  0.00  0.00    +0.000 A 
ATOM     28  C   UNL     1      45.719   2.397   8.721  0.00  0.00    +0.000 A 
ATOM     29  C   UNL     1      45.183   2.631   9.997  0.00  0.00    +0.000 A 
BRANCH  28  30
ATOM     30  O   UNL     1      45.857   1.082   8.394  0.00  0.00    +0.000 OA
BRANCH  30  31
ATOM     31  C   UNL     1      46.812   0.710   7.409  0.00  0.00    +0.000 C 
ATOM     32  F   UNL     1      48.074   1.103   7.682  0.00  0.00    +0.000 F 
ATOM     33  F   UNL     1      46.817  -0.639   7.310  0.00  0.00    +0.000 F 
ATOM     34  F   UNL     1      46.445   1.218   6.213  0.00  0.00    +0.000 F 
ENDBRANCH  30  31
ENDBRANCH  28  30
ENDBRANCH  22  24
ENDBRANCH  20  22
ENDBRANCH   1  20
TORSDOF 8
ENDMDL
MODEL 3
REMARK VINA RESULT:    -7.275      1.699      2.494
REMARK INTER + INTRA:         -11.938
REMARK INTER:                 -10.679
REMARK INTRA:                  -1.259
REMARK UNBOUND:                -1.261
REMARK  Name = 
REMARK  10 active torsions:
REMARK  status: ('A' for Active; 'I' for Inactive)
REMARK    1  A    between atoms: C_1  and  C_2
REMARK    2  A    between atoms: C_2  and  C_3
REMARK    3  A    between atoms: C_2  and  C_4
REMARK    4  A    between atoms: C_2  and  C_21
REMARK    5  A    between atoms: C_4  and  N_5
REMARK    6  A    between atoms: N_5  and  C_6
REMARK    7  A    between atoms: C_9  and  C_10
REMARK    8  A    between atoms: C_14  and  N_15
REMARK    9  A    between atoms: C_25  and  O_26
REMARK   10  A    between atoms: O_26  and  C_27
REMARK                            x       y       z     vdW  Elec       q    Type
REMARK                         _______ _______ _______ _____ _____    ______ ____
ROOT
ATOM      1  N   UNL     1      46.413   5.157  12.946  0.00  0.00    +0.000 N 
ATOM      2  H   UNL     1      45.999   5.974  12.520  0.00  0.00    +0.000 HD
ENDROOT
BRANCH   1   3
ATOM      3  C   UNL     1      47.160   5.484  14.094  0.00  0.00    +0.000 A 
ATOM      4  C   UNL     1      47.068   4.631  15.210  0.00  0.00    +0.000 A 
ATOM      5  C   UNL     1      47.926   4.767  16.298  0.00  0.00    +0.000 A 
ATOM      6  C   UNL     1      48.881   5.777  16.299  0.00  0.00    +0.000 A 
ATOM      7  C   UNL     1      48.931   6.690  15.228  0.00  0.00    +0.000 A 
ATOM      8  C   UNL     1      48.063   6.596  14.115  0.00  0.00    +0.000 A 
BRANCH   8   9
ATOM      9  N   UNL     1      48.106   7.581  13.131  0.00  0.00    +0.000 N 
ATOM     10  C   UNL     1      49.043   7.560  11.987  0.00  0.00    +0.000 C 
ATOM     11  C   UNL     1      49.726   8.933  11.844  0.00  0.00    +0.000 C 
ATOM     12  O   UNL     1      48.764   9.990  11.704  0.00  0.00    +0.000 OA
ATOM     13  C   UNL     1      47.931  10.044  12.868  0.00  0.00    +0.000 C 
ATOM     14  C   UNL     1      47.186   8.726  13.099  0.00  0.00    +0.000 C 
ENDBRANCH   8   9
BRANCH   6  15
ATOM     15  C   UNL     1      49.819   5.845  17.450  0.00  0.00    +0.000 C 
ATOM     16  N   UNL     1      50.451   4.695  17.838  0.00  0.00    +0.000 N 
ATOM     17  O   UNL     1      50.047   6.897  18.034  0.00  0.00    +0.000 OA
ATOM     18  H   UNL     1      50.498   3.880  17.244  0.00  0.00    +0.000 HD
ATOM     19  H   UNL     1      51.161   4.800  18.552  0.00  0.00    +0.000 HD
ENDBRANCH   6  15
ENDBRANCH   1   3
BRANCH   1  20
ATOM     20  C   UNL     1      45.642   3.909  12.893  0.00  0.00    +0.000 C 
BRANCH  20  22
ATOM     21  C   UNL     1      43.423   2.830  12.157  0.00  0.00    +0.000 C 
ATOM     22  C   UNL     1      44.433   3.970  11.892  0.00  0.00    +0.000 C 
ATOM     23  C   UNL     1      43.671   5.303  12.095  0.00  0.00    +0.000 C 
BRANCH  22  24
ATOM     24  C   UNL     1      44.968   3.798  10.450  0.00  0.00    +0.000 A 
ATOM     25  C   UNL     1      45.313   4.889   9.639  0.00  0.00    +0.000 A 
ATOM     26  C   UNL     1      45.747   4.704   8.323  0.00  0.00    +0.000 A 
ATOM     27  C   UNL     1      45.875   3.422   7.792  0.00  0.00    +0.000 A 
ATOM     28  C   UNL     1      45.603   2.318   8.588  0.00  0.00    +0.000 A 
ATOM     29  C   UNL     1      45.119   2.511   9.891  0.00  0.00    +0.000 A 
BRANCH  28  30
ATOM     30  O   UNL     1      45.715   1.014   8.210  0.00  0.00    +0.000 OA
BRANCH  30  31
ATOM     31  C   UNL     1      46.815   0.620   7.400  0.00  0.00    +0.000 C 
ATOM     32  F   UNL     1      47.993   1.179   7.750  0.00  0.00    +0.000 F 
ATOM     33  F   UNL     1      46.955  -0.722   7.497  0.00  0.00    +0.000 F 
ATOM     34  F   UNL     1      46.554   0.923   6.110  0.00  0.00    +0.000 F 
ENDBRANCH  30  31
ENDBRANCH  28  30
ENDBRANCH  22  24
ENDBRANCH  20  22
ENDBRANCH   1  20
TORSDOF 8
ENDMDL
MODEL 4
REMARK VINA RESULT:    -7.117      1.402      3.866
REMARK INTER + INTRA:         -11.707
REMARK INTER:                 -11.125
REMARK INTRA:                  -0.582
REMARK UNBOUND:                -1.261
REMARK  Name = 
REMARK  10 active torsions:
REMARK  status: ('A' for Active; 'I' for Inactive)
REMARK    1  A    between atoms: C_1  and  C_2
REMARK    2  A    between atoms: C_2  and  C_3
REMARK    3  A    between atoms: C_2  and  C_4
REMARK    4  A    between atoms: C_2  and  C_21
REMARK    5  A    between atoms: C_4  and  N_5
REMARK    6  A    between atoms: N_5  and  C_6
REMARK    7  A    between atoms: C_9  and  C_10
REMARK    8  A    between atoms: C_14  and  N_15
REMARK    9  A    between atoms: C_25  and  O_26
REMARK   10  A    between atoms: O_26  and  C_27
REMARK                            x       y       z     vdW  Elec       q    Type
REMARK                         _______ _______ _______ _____ _____    ______ ____
ROOT
ATOM      1  N   UNL     1      46.519   5.969  13.917  0.00  0.00    +0.000 N 
ATOM      2  H   UNL     1      46.034   5.929  14.802  0.00  0.00    +0.000 HD
ENDROOT
BRANCH   1   3
ATOM      3  C   UNL     1      47.852   6.398  14.067  0.00  0.00    +0.000 A 
ATOM      4  C   UNL     1      48.443   7.110  13.007  0.00  0.00    +0.000 A 
ATOM      5  C   UNL     1      49.674   7.744  13.158  0.00  0.00    +0.000 A 
ATOM      6  C   UNL     1      50.349   7.656  14.369  0.00  0.00    +0.000 A 
ATOM      7  C   UNL     1      49.811   6.879  15.412  0.00  0.00    +0.000 A 
ATOM      8  C   UNL     1      48.574   6.204  15.290  0.00  0.00    +0.000 A 
BRANCH   8   9
ATOM      9  N   UNL     1      48.139   5.381  16.327  0.00  0.00    +0.000 N 
ATOM     10  C   UNL     1      48.178   5.766  17.754  0.00  0.00    +0.000 C 
ATOM     11  C   UNL     1      48.806   4.632  18.586  0.00  0.00    +0.000 C 
ATOM     12  O   UNL     1      48.104   3.393  18.404  0.00  0.00    +0.000 OA
ATOM     13  C   UNL     1      48.164   2.999  17.028  0.00  0.00    +0.000 C 
ATOM     14  C   UNL     1      47.548   4.054  16.105  0.00  0.00    +0.000 C 
ENDBRANCH   8   9
BRANCH   6  15
ATOM     15  C   UNL     1      51.628   8.401  14.507  0.00  0.00    +0.000 C 
ATOM     16  N   UNL     1      52.781   7.681  14.661  0.00  0.00    +0.000 N 
ATOM     17  O   UNL     1      51.669   9.625  14.466  0.00  0.00    +0.000 OA
ATOM     18  H   UNL     1      52.835   6.698  14.445  0.00  0.00    +0.000 HD
ATOM     19  H   UNL     1      53.642   8.216  14.643  0.00  0.00    +0.000 HD
ENDBRANCH   6  15
ENDBRANCH   1   3
BRANCH   1  20
ATOM     20  C   UNL     1      46.176   4.952  12.917  0.00  0.00    +0.000 C 
BRANCH  20  22
ATOM     21  C   UNL     1      43.636   5.370  12.845  0.00  0.00    +0.000 C 
ATOM     22  C   UNL     1      44.946   5.351  12.025  0.00  0.00    +0.000 C 
ATOM     23  C   UNL     1      45.157   6.786  11.481  0.00  0.00    +0.000 C 
BRANCH  22  24
ATOM     24  C   UNL     1      44.781   4.300  10.900  0.00  0.00    +0.000 A 
ATOM     25  C   UNL     1      44.159   3.061  11.113  0.00  0.00    +0.000 A 
ATOM     26  C   UNL     1      44.067   2.113  10.090  0.00  0.00    +0.000 A 
ATOM     27  C   UNL     1      44.569   2.389   8.819  0.00  0.00    +0.000 A 
ATOM     28  C   UNL     1      45.133   3.630   8.558  0.00  0.00    +0.000 A 
ATOM     29  C   UNL     1      45.268   4.558   9.602  0.00  0.00    +0.000 A 
BRANCH  28  30
ATOM     30  O   UNL     1      45.632   4.045   7.360  0.00  0.00    +0.000 OA
BRANCH  30  31
ATOM     31  C   UNL     1      46.610   3.248   6.705  0.00  0.00    +0.000 C 
ATOM     32  F   UNL     1      46.717   3.478   5.379  0.00  0.00    +0.000 F 
ATOM     33  F   UNL     1      47.814   3.509   7.262  0.00  0.00    +0.000 F 
ATOM     34  F   UNL     1      46.331   1.941   6.901  0.00  0.00    +0.000 F 
ENDBRANCH  30  31
ENDBRANCH  28  30
ENDBRANCH  22  24
ENDBRANCH  20  22
ENDBRANCH   1  20
TORSDOF 8
ENDMDL
MODEL 5
REMARK VINA RESULT:    -6.986      1.240      1.323
REMARK INTER + INTRA:         -11.514
REMARK INTER:                 -10.107
REMARK INTRA:                  -1.407
REMARK UNBOUND:                -1.261
REMARK  Name = 
REMARK  10 active torsions:
REMARK  status: ('A' for Active; 'I' for Inactive)
REMARK    1  A    between atoms: C_1  and  C_2
REMARK    2  A    between atoms: C_2  and  C_3
REMARK    3  A    between atoms: C_2  and  C_4
REMARK    4  A    between atoms: C_2  and  C_21
REMARK    5  A    between atoms: C_4  and  N_5
REMARK    6  A    between atoms: N_5  and  C_6
REMARK    7  A    between atoms: C_9  and  C_10
REMARK    8  A    between atoms: C_14  and  N_15
REMARK    9  A    between atoms: C_25  and  O_26
REMARK   10  A    between atoms: O_26  and  C_27
REMARK                            x       y       z     vdW  Elec       q    Type
REMARK                         _______ _______ _______ _____ _____    ______ ____
ROOT
ATOM      1  N   UNL     1      47.200   6.062  14.642  0.00  0.00    +0.000 N 
ATOM      2  H   UNL     1      46.258   6.079  15.009  0.00  0.00    +0.000 HD
ENDROOT
BRANCH   1   3
ATOM      3  C   UNL     1      48.150   5.787  15.645  0.00  0.00    +0.000 A 
ATOM      4  C   UNL     1      47.936   4.668  16.472  0.00  0.00    +0.000 A 
ATOM      5  C   UNL     1      48.924   4.211  17.341  0.00  0.00    +0.000 A 
ATOM      6  C   UNL     1      50.138   4.881  17.415  0.00  0.00    +0.000 A 
ATOM      7  C   UNL     1      50.337   6.050  16.657  0.00  0.00    +0.000 A 
ATOM      8  C   UNL     1      49.350   6.557  15.779  0.00  0.00    +0.000 A 
BRANCH   8   9
ATOM      9  N   UNL     1      49.575   7.765  15.122  0.00  0.00    +0.000 N 
ATOM     10  C   UNL     1      48.731   8.966  15.298  0.00  0.00    +0.000 C 
ATOM     11  C   UNL     1      48.355   9.549  13.922  0.00  0.00    +0.000 C 
ATOM     12  O   UNL     1      49.521   9.847  13.139  0.00  0.00    +0.000 OA
ATOM     13  C   UNL     1      50.269   8.647  12.907  0.00  0.00    +0.000 C 
ATOM     14  C   UNL     1      50.711   7.988  14.216  0.00  0.00    +0.000 C 
ENDBRANCH   8   9
BRANCH   6  15
ATOM     15  C   UNL     1      51.187   4.321  18.308  0.00  0.00    +0.000 C 
ATOM     16  N   UNL     1      50.926   4.254  19.649  0.00  0.00    +0.000 N 
ATOM     17  O   UNL     1      52.254   3.909  17.869  0.00  0.00    +0.000 OA
ATOM     18  H   UNL     1      49.991   4.335  20.020  0.00  0.00    +0.000 HD
ATOM     19  H   UNL     1      51.616   3.769  20.210  0.00  0.00    +0.000 HD
ENDBRANCH   6  15
ENDBRANCH   1   3
BRANCH   1  20
ATOM     20  C   UNL     1      47.382   5.536  13.285  0.00  0.00    +0.000 C 
BRANCH  20  22
ATOM     21  C   UNL     1      45.524   7.272  12.877  0.00  0.00    +0.000 C 
ATOM     22  C   UNL     1      46.487   6.260  12.216  0.00  0.00    +0.000 C 
ATOM     23  C   UNL     1      47.396   7.066  11.254  0.00  0.00    +0.000 C 
BRANCH  22  24
ATOM     24  C   UNL     1      45.626   5.202  11.483  0.00  0.00    +0.000 A 
ATOM     25  C   UNL     1      44.776   4.319  12.166  0.00  0.00    +0.000 A 
ATOM     26  C   UNL     1      44.047   3.343  11.481  0.00  0.00    +0.000 A 
ATOM     27  C   UNL     1      44.127   3.240  10.094  0.00  0.00    +0.000 A 
ATOM     28  C   UNL     1      44.909   4.140   9.382  0.00  0.00    +0.000 A 
ATOM     29  C   UNL     1      45.678   5.085  10.079  0.00  0.00    +0.000 A 
BRANCH  28  30
ATOM     30  O   UNL     1      45.054   4.175   8.028  0.00  0.00    +0.000 OA
BRANCH  30  31
ATOM     31  C   UNL     1      46.171   3.528   7.434  0.00  0.00    +0.000 C 
ATOM     32  F   UNL     1      46.551   2.391   8.055  0.00  0.00    +0.000 F 
ATOM     33  F   UNL     1      45.849   3.207   6.160  0.00  0.00    +0.000 F 
ATOM     34  F   UNL     1      47.219   4.379   7.400  0.00  0.00    +0.000 F 
ENDBRANCH  30  31
ENDBRANCH  28  30
ENDBRANCH  22  24
ENDBRANCH  20  22
ENDBRANCH   1  20
TORSDOF 8
ENDMDL
MODEL 6
REMARK VINA RESULT:    -6.875      1.965      3.962
REMARK INTER + INTRA:         -11.351
REMARK INTER:                  -9.909
REMARK INTRA:                  -1.442
REMARK UNBOUND:                -1.261
REMARK  Name = 
REMARK  10 active torsions:
REMARK  status: ('A' for Active; 'I' for Inactive)
REMARK    1  A    between atoms: C_1  and  C_2
REMARK    2  A    between atoms: C_2  and  C_3
REMARK    3  A    between atoms: C_2  and  C_4
REMARK    4  A    between atoms: C_2  and  C_21
REMARK    5  A    between atoms: C_4  and  N_5
REMARK    6  A    between atoms: N_5  and  C_6
REMARK    7  A    between atoms: C_9  and  C_10
REMARK    8  A    between atoms: C_14  and  N_15
REMARK    9  A    between atoms: C_25  and  O_26
REMARK   10  A    between atoms: O_26  and  C_27
REMARK                            x       y       z     vdW  Elec       q    Type
REMARK                         _______ _______ _______ _____ _____    ______ ____
ROOT
ATOM      1  N   UNL     1      47.675   6.849  14.634  0.00  0.00    +0.000 N 
ATOM      2  H   UNL     1      47.072   6.977  15.434  0.00  0.00    +0.000 HD
ENDROOT
BRANCH   1   3
ATOM      3  C   UNL     1      49.036   6.961  14.978  0.00  0.00    +0.000 A 
ATOM      4  C   UNL     1      49.877   7.700  14.126  0.00  0.00    +0.000 A 
ATOM      5  C   UNL     1      51.178   8.030  14.500  0.00  0.00    +0.000 A 
ATOM      6  C   UNL     1      51.669   7.605  15.728  0.00  0.00    +0.000 A 
ATOM      7  C   UNL     1      50.870   6.794  16.556  0.00  0.00    +0.000 A 
ATOM      8  C   UNL     1      49.552   6.421  16.202  0.00  0.00    +0.000 A 
BRANCH   8   9
ATOM      9  N   UNL     1      48.845   5.547  17.024  0.00  0.00    +0.000 N 
ATOM     10  C   UNL     1      48.256   5.935  18.323  0.00  0.00    +0.000 C 
ATOM     11  C   UNL     1      48.635   4.901  19.401  0.00  0.00    +0.000 C 
ATOM     12  O   UNL     1      48.231   3.575  19.026  0.00  0.00    +0.000 OA
ATOM     13  C   UNL     1      48.890   3.193  17.813  0.00  0.00    +0.000 C 
ATOM     14  C   UNL     1      48.570   4.149  16.662  0.00  0.00    +0.000 C 
ENDBRANCH   8   9
BRANCH   6  15
ATOM     15  C   UNL     1      53.039   8.035  16.114  0.00  0.00    +0.000 C 
ATOM     16  N   UNL     1      53.706   8.893  15.282  0.00  0.00    +0.000 N 
ATOM     17  O   UNL     1      53.563   7.658  17.155  0.00  0.00    +0.000 OA
ATOM     18  H   UNL     1      53.234   9.425  14.567  0.00  0.00    +0.000 HD
ATOM     19  H   UNL     1      54.589   9.249  15.630  0.00  0.00    +0.000 HD
ENDBRANCH   6  15
ENDBRANCH   1   3
BRANCH   1  20
ATOM     20  C   UNL     1      47.245   5.883  13.616  0.00  0.00    +0.000 C 
BRANCH  20  22
ATOM     21  C   UNL     1      45.600   7.714  12.857  0.00  0.00    +0.000 C 
ATOM     22  C   UNL     1      46.512   6.552  12.399  0.00  0.00    +0.000 C 
ATOM     23  C   UNL     1      47.567   7.161  11.441  0.00  0.00    +0.000 C 
BRANCH  22  24
ATOM     24  C   UNL     1      45.615   5.495  11.711  0.00  0.00    +0.000 A 
ATOM     25  C   UNL     1      44.757   4.652  12.432  0.00  0.00    +0.000 A 
ATOM     26  C   UNL     1      43.994   3.674  11.787  0.00  0.00    +0.000 A 
ATOM     27  C   UNL     1      44.049   3.530  10.402  0.00  0.00    +0.000 A 
ATOM     28  C   UNL     1      44.839   4.391   9.653  0.00  0.00    +0.000 A 
ATOM     29  C   UNL     1      45.641   5.337  10.310  0.00  0.00    +0.000 A 
BRANCH  28  30
ATOM     30  O   UNL     1      44.962   4.385   8.296  0.00  0.00    +0.000 OA
BRANCH  30  31
ATOM     31  C   UNL     1      46.011   3.633   7.699  0.00  0.00    +0.000 C 
ATOM     32  F   UNL     1      46.357   2.521   8.382  0.00  0.00    +0.000 F 
ATOM     33  F   UNL     1      45.607   3.245   6.467  0.00  0.00    +0.000 F 
ATOM     34  F   UNL     1      47.101   4.416   7.556  0.00  0.00    +0.000 F 
ENDBRANCH  30  31
ENDBRANCH  28  30
ENDBRANCH  22  24
ENDBRANCH  20  22
ENDBRANCH   1  20
TORSDOF 8
ENDMDL
MODEL 7
REMARK VINA RESULT:    -6.874      2.098      3.844
REMARK INTER + INTRA:         -11.350
REMARK INTER:                  -9.964
REMARK INTRA:                  -1.385
REMARK UNBOUND:                -1.261
REMARK  Name = 
REMARK  10 active torsions:
REMARK  status: ('A' for Active; 'I' for Inactive)
REMARK    1  A    between atoms: C_1  and  C_2
REMARK    2  A    between atoms: C_2  and  C_3
REMARK    3  A    between atoms: C_2  and  C_4
REMARK    4  A    between atoms: C_2  and  C_21
REMARK    5  A    between atoms: C_4  and  N_5
REMARK    6  A    between atoms: N_5  and  C_6
REMARK    7  A    between atoms: C_9  and  C_10
REMARK    8  A    between atoms: C_14  and  N_15
REMARK    9  A    between atoms: C_25  and  O_26
REMARK   10  A    between atoms: O_26  and  C_27
REMARK                            x       y       z     vdW  Elec       q    Type
REMARK                         _______ _______ _______ _____ _____    ______ ____
ROOT
ATOM      1  N   UNL     1      48.478   6.563  14.079  0.00  0.00    +0.000 N 
ATOM      2  H   UNL     1      49.053   6.916  13.327  0.00  0.00    +0.000 HD
ENDROOT
BRANCH   1   3
ATOM      3  C   UNL     1      48.558   7.375  15.227  0.00  0.00    +0.000 A 
ATOM      4  C   UNL     1      48.411   8.765  15.068  0.00  0.00    +0.000 A 
ATOM      5  C   UNL     1      48.271   9.609  16.167  0.00  0.00    +0.000 A 
ATOM      6  C   UNL     1      48.297   9.077  17.450  0.00  0.00    +0.000 A 
ATOM      7  C   UNL     1      48.527   7.700  17.630  0.00  0.00    +0.000 A 
ATOM      8  C   UNL     1      48.695   6.814  16.539  0.00  0.00    +0.000 A 
BRANCH   8   9
ATOM      9  N   UNL     1      49.004   5.479  16.785  0.00  0.00    +0.000 N 
ATOM     10  C   UNL     1      48.007   4.387  16.769  0.00  0.00    +0.000 C 
ATOM     11  C   UNL     1      48.164   3.515  18.030  0.00  0.00    +0.000 C 
ATOM     12  O   UNL     1      49.498   2.996  18.150  0.00  0.00    +0.000 OA
ATOM     13  C   UNL     1      50.431   4.077  18.256  0.00  0.00    +0.000 C 
ATOM     14  C   UNL     1      50.372   5.005  17.040  0.00  0.00    +0.000 C 
ENDBRANCH   8   9
BRANCH   6  15
ATOM     15  C   UNL     1      48.078  10.004  18.592  0.00  0.00    +0.000 C 
ATOM     16  N   UNL     1      47.143   9.663  19.531  0.00  0.00    +0.000 N 
ATOM     17  O   UNL     1      48.722  11.039  18.714  0.00  0.00    +0.000 OA
ATOM     18  H   UNL     1      46.783   8.725  19.615  0.00  0.00    +0.000 HD
ATOM     19  H   UNL     1      47.099  10.261  20.347  0.00  0.00    +0.000 HD
ENDBRANCH   6  15
ENDBRANCH   1   3
BRANCH   1  20
ATOM     20  C   UNL     1      47.210   5.923  13.711  0.00  0.00    +0.000 C 
BRANCH  20  22
ATOM     21  C   UNL     1      45.628   7.753  12.826  0.00  0.00    +0.000 C 
ATOM     22  C   UNL     1      46.538   6.563  12.443  0.00  0.00    +0.000 C 
ATOM     23  C   UNL     1      47.642   7.122  11.511  0.00  0.00    +0.000 C 
BRANCH  22  24
ATOM     24  C   UNL     1      45.652   5.497  11.754  0.00  0.00    +0.000 A 
ATOM     25  C   UNL     1      44.836   4.614  12.476  0.00  0.00    +0.000 A 
ATOM     26  C   UNL     1      44.084   3.631  11.828  0.00  0.00    +0.000 A 
ATOM     27  C   UNL     1      44.105   3.521  10.439  0.00  0.00    +0.000 A 
ATOM     28  C   UNL     1      44.852   4.421   9.690  0.00  0.00    +0.000 A 
ATOM     29  C   UNL     1      45.645   5.373  10.349  0.00  0.00    +0.000 A 
BRANCH  28  30
ATOM     30  O   UNL     1      44.939   4.450   8.331  0.00  0.00    +0.000 OA
BRANCH  30  31
ATOM     31  C   UNL     1      45.969   3.712   7.687  0.00  0.00    +0.000 C 
ATOM     32  F   UNL     1      45.669   3.316   6.432  0.00  0.00    +0.000 F 
ATOM     33  F   UNL     1      47.071   4.494   7.614  0.00  0.00    +0.000 F 
ATOM     34  F   UNL     1      46.275   2.625   8.428  0.00  0.00    +0.000 F 
ENDBRANCH  30  31
ENDBRANCH  28  30
ENDBRANCH  22  24
ENDBRANCH  20  22
ENDBRANCH   1  20
TORSDOF 8
ENDMDL
MODEL 8
REMARK VINA RESULT:    -6.810      5.170      8.730
REMARK INTER + INTRA:         -11.255
REMARK INTER:                 -10.068
REMARK INTRA:                  -1.187
REMARK UNBOUND:                -1.261
REMARK  Name = 
REMARK  10 active torsions:
REMARK  status: ('A' for Active; 'I' for Inactive)
REMARK    1  A    between atoms: C_1  and  C_2
REMARK    2  A    between atoms: C_2  and  C_3
REMARK    3  A    between atoms: C_2  and  C_4
REMARK    4  A    between atoms: C_2  and  C_21
REMARK    5  A    between atoms: C_4  and  N_5
REMARK    6  A    between atoms: N_5  and  C_6
REMARK    7  A    between atoms: C_9  and  C_10
REMARK    8  A    between atoms: C_14  and  N_15
REMARK    9  A    between atoms: C_25  and  O_26
REMARK   10  A    between atoms: O_26  and  C_27
REMARK                            x       y       z     vdW  Elec       q    Type
REMARK                         _______ _______ _______ _____ _____    ______ ____
ROOT
ATOM      1  N   UNL     1      47.273   5.459  14.950  0.00  0.00    +0.000 N 
ATOM      2  H   UNL     1      47.998   6.154  14.838  0.00  0.00    +0.000 HD
ENDROOT
BRANCH   1   3
ATOM      3  C   UNL     1      46.668   5.128  13.722  0.00  0.00    +0.000 A 
ATOM      4  C   UNL     1      46.319   3.784  13.496  0.00  0.00    +0.000 A 
ATOM      5  C   UNL     1      45.536   3.412  12.405  0.00  0.00    +0.000 A 
ATOM      6  C   UNL     1      45.106   4.380  11.506  0.00  0.00    +0.000 A 
ATOM      7  C   UNL     1      45.516   5.716  11.671  0.00  0.00    +0.000 A 
ATOM      8  C   UNL     1      46.327   6.129  12.754  0.00  0.00    +0.000 A 
BRANCH   8   9
ATOM      9  N   UNL     1      46.769   7.449  12.814  0.00  0.00    +0.000 N 
ATOM     10  C   UNL     1      45.884   8.600  13.092  0.00  0.00    +0.000 C 
ATOM     11  C   UNL     1      46.135   9.716  12.060  0.00  0.00    +0.000 C 
ATOM     12  O   UNL     1      47.514  10.117  12.040  0.00  0.00    +0.000 OA
ATOM     13  C   UNL     1      48.337   9.002  11.676  0.00  0.00    +0.000 C 
ATOM     14  C   UNL     1      48.178   7.832  12.651  0.00  0.00    +0.000 C 
ENDBRANCH   8   9
BRANCH   6  15
ATOM     15  C   UNL     1      44.219   3.949  10.394  0.00  0.00    +0.000 C 
ATOM     16  N   UNL     1      44.057   4.797   9.331  0.00  0.00    +0.000 N 
ATOM     17  O   UNL     1      43.656   2.861  10.402  0.00  0.00    +0.000 OA
ATOM     18  H   UNL     1      44.685   5.567   9.157  0.00  0.00    +0.000 HD
ATOM     19  H   UNL     1      43.535   4.426   8.546  0.00  0.00    +0.000 HD
ENDBRANCH   6  15
ENDBRANCH   1   3
BRANCH   1  20
ATOM     20  C   UNL     1      47.481   4.430  15.974  0.00  0.00    +0.000 C 
BRANCH  20  22
ATOM     21  C   UNL     1      48.950   6.329  16.907  0.00  0.00    +0.000 C 
ATOM     22  C   UNL     1      48.371   4.920  17.173  0.00  0.00    +0.000 C 
ATOM     23  C   UNL     1      47.495   5.027  18.446  0.00  0.00    +0.000 C 
BRANCH  22  24
ATOM     24  C   UNL     1      49.563   3.947  17.343  0.00  0.00    +0.000 A 
ATOM     25  C   UNL     1      49.483   2.590  16.997  0.00  0.00    +0.000 A 
ATOM     26  C   UNL     1      50.560   1.726  17.207  0.00  0.00    +0.000 A 
ATOM     27  C   UNL     1      51.756   2.199  17.744  0.00  0.00    +0.000 A 
ATOM     28  C   UNL     1      51.890   3.549  18.039  0.00  0.00    +0.000 A 
ATOM     29  C   UNL     1      50.788   4.402  17.873  0.00  0.00    +0.000 A 
BRANCH  28  30
ATOM     30  O   UNL     1      53.006   4.151  18.536  0.00  0.00    +0.000 OA
BRANCH  30  31
ATOM     31  C   UNL     1      53.366   3.929  19.893  0.00  0.00    +0.000 C 
ATOM     32  F   UNL     1      52.353   4.093  20.771  0.00  0.00    +0.000 F 
ATOM     33  F   UNL     1      53.808   2.657  20.013  0.00  0.00    +0.000 F 
ATOM     34  F   UNL     1      54.376   4.758  20.232  0.00  0.00    +0.000 F 
ENDBRANCH  30  31
ENDBRANCH  28  30
ENDBRANCH  22  24
ENDBRANCH  20  22
ENDBRANCH   1  20
TORSDOF 8
ENDMDL
MODEL 9
REMARK VINA RESULT:    -6.809      3.856      7.576
REMARK INTER + INTRA:         -11.254
REMARK INTER:                  -9.628
REMARK INTRA:                  -1.626
REMARK UNBOUND:                -1.261
REMARK  Name = 
REMARK  10 active torsions:
REMARK  status: ('A' for Active; 'I' for Inactive)
REMARK    1  A    between atoms: C_1  and  C_2
REMARK    2  A    between atoms: C_2  and  C_3
REMARK    3  A    between atoms: C_2  and  C_4
REMARK    4  A    between atoms: C_2  and  C_21
REMARK    5  A    between atoms: C_4  and  N_5
REMARK    6  A    between atoms: N_5  and  C_6
REMARK    7  A    between atoms: C_9  and  C_10
REMARK    8  A    between atoms: C_14  and  N_15
REMARK    9  A    between atoms: C_25  and  O_26
REMARK   10  A    between atoms: O_26  and  C_27
REMARK                            x       y       z     vdW  Elec       q    Type
REMARK                         _______ _______ _______ _____ _____    ______ ____
ROOT
ATOM      1  N   UNL     1      47.797   7.087  14.564  0.00  0.00    +0.000 N 
ATOM      2  H   UNL     1      47.276   7.950  14.628  0.00  0.00    +0.000 HD
ENDROOT
BRANCH   1   3
ATOM      3  C   UNL     1      47.167   6.155  13.718  0.00  0.00    +0.000 A 
ATOM      4  C   UNL     1      47.181   4.799  14.097  0.00  0.00    +0.000 A 
ATOM      5  C   UNL     1      46.409   3.852  13.429  0.00  0.00    +0.000 A 
ATOM      6  C   UNL     1      45.623   4.241  12.352  0.00  0.00    +0.000 A 
ATOM      7  C   UNL     1      45.661   5.576  11.907  0.00  0.00    +0.000 A 
ATOM      8  C   UNL     1      46.449   6.563  12.547  0.00  0.00    +0.000 A 
BRANCH   8   9
ATOM      9  N   UNL     1      46.510   7.845  12.006  0.00  0.00    +0.000 N 
ATOM     10  C   UNL     1      47.770   8.520  11.628  0.00  0.00    +0.000 C 
ATOM     11  C   UNL     1      47.794   9.948  12.203  0.00  0.00    +0.000 C 
ATOM     12  O   UNL     1      46.652  10.708  11.776  0.00  0.00    +0.000 OA
ATOM     13  C   UNL     1      45.451  10.079  12.237  0.00  0.00    +0.000 C 
ATOM     14  C   UNL     1      45.316   8.649  11.708  0.00  0.00    +0.000 C 
ENDBRANCH   8   9
BRANCH   6  15
ATOM     15  C   UNL     1      44.765   3.211  11.710  0.00  0.00    +0.000 C 
ATOM     16  N   UNL     1      43.948   2.460  12.511  0.00  0.00    +0.000 N 
ATOM     17  O   UNL     1      44.762   3.039  10.498  0.00  0.00    +0.000 OA
ATOM     18  H   UNL     1      43.725   2.731  13.457  0.00  0.00    +0.000 HD
ATOM     19  H   UNL     1      43.301   1.846  12.031  0.00  0.00    +0.000 HD
ENDBRANCH   6  15
ENDBRANCH   1   3
BRANCH   1  20
ATOM     20  C   UNL     1      49.261   7.182  14.602  0.00  0.00    +0.000 C 
BRANCH  20  22
ATOM     21  C   UNL     1      51.090   8.402  15.943  0.00  0.00    +0.000 C 
ATOM     22  C   UNL     1      49.822   7.522  16.029  0.00  0.00    +0.000 C 
ATOM     23  C   UNL     1      48.762   8.337  16.812  0.00  0.00    +0.000 C 
BRANCH  22  24
ATOM     24  C   UNL     1      50.213   6.204  16.741  0.00  0.00    +0.000 A 
ATOM     25  C   UNL     1      51.548   5.806  16.908  0.00  0.00    +0.000 A 
ATOM     26  C   UNL     1      51.868   4.587  17.513  0.00  0.00    +0.000 A 
ATOM     27  C   UNL     1      50.865   3.747  17.992  0.00  0.00    +0.000 A 
ATOM     28  C   UNL     1      49.537   4.141  17.900  0.00  0.00    +0.000 A 
ATOM     29  C   UNL     1      49.219   5.342  17.247  0.00  0.00    +0.000 A 
BRANCH  28  30
ATOM     30  O   UNL     1      48.462   3.438  18.353  0.00  0.00    +0.000 OA
BRANCH  30  31
ATOM     31  C   UNL     1      47.463   3.028  17.429  0.00  0.00    +0.000 C 
ATOM     32  F   UNL     1      46.620   4.012  17.048  0.00  0.00    +0.000 F 
ATOM     33  F   UNL     1      48.077   2.565  16.316  0.00  0.00    +0.000 F 
ATOM     34  F   UNL     1      46.743   2.018  17.962  0.00  0.00    +0.000 F 
ENDBRANCH  30  31
ENDBRANCH  28  30
ENDBRANCH  22  24
ENDBRANCH  20  22
ENDBRANCH   1  20
TORSDOF 8
ENDMDL
