MODEL 1
REMARK VINA RESULT:    -8.507      0.000      0.000
REMARK INTER + INTRA:         -11.253
REMARK INTER:                 -10.496
REMARK INTRA:                  -0.757
REMARK UNBOUND:                -0.757
REMARK  Name = 
REMARK  6 active torsions:
REMARK  status: ('A' for Active; 'I' for Inactive)
REMARK    1  A    between atoms: C_1  and  C_2
REMARK    2  A    between atoms: C_2  and  C_3
REMARK    3  A    between atoms: C_2  and  N_4
REMARK    4  A    between atoms: C_2  and  C_14
REMARK    5  A    between atoms: N_4  and  C_5
REMARK    6  A    between atoms: C_8  and  C_9
REMARK                            x       y       z     vdW  Elec       q    Type
REMARK                         _______ _______ _______ _____ _____    ______ ____
ROOT
ATOM      1  N   UNL     1      43.726   4.663   9.996  0.00  0.00    +0.000 N 
ATOM      2  H   UNL     1      43.305   5.404   9.442  0.00  0.00    +0.000 HD
ENDROOT
BRANCH   1   3
ATOM      3  C   UNL     1      44.653   3.907   9.306  0.00  0.00    +0.000 A 
ATOM      4  C   UNL     1      45.535   4.573   8.442  0.00  0.00    +0.000 A 
ATOM      5  C   UNL     1      46.446   3.873   7.637  0.00  0.00    +0.000 A 
ATOM      6  C   UNL     1      46.507   2.483   7.699  0.00  0.00    +0.000 A 
ATOM      7  C   UNL     1      45.642   1.800   8.555  0.00  0.00    +0.000 A 
ATOM      8  C   UNL     1      44.726   2.513   9.342  0.00  0.00    +0.000 A 
BRANCH   6   9
ATOM      9  C   UNL     1      47.474   1.767   6.822  0.00  0.00    +0.000 C 
ATOM     10  N   UNL     1      48.527   2.495   6.332  0.00  0.00    +0.000 N 
ATOM     11  O   UNL     1      47.326   0.592   6.523  0.00  0.00    +0.000 OA
ATOM     12  H   UNL     1      48.551   3.504   6.356  0.00  0.00    +0.000 HD
ATOM     13  H   UNL     1      49.117   2.024   5.659  0.00  0.00    +0.000 HD
ENDBRANCH   6   9
ENDBRANCH   1   3
BRANCH   1  15
ATOM     14  C   UNL     1      42.395   5.809  11.777  0.00  0.00    +0.000 C 
ATOM     15  C   UNL     1      43.549   4.836  11.449  0.00  0.00    +0.000 C 
ATOM     16  C   UNL     1      43.270   3.465  12.091  0.00  0.00    +0.000 C 
BRANCH  15  17
ATOM     17  C   UNL     1      44.855   5.487  11.977  0.00  0.00    +0.000 A 
ATOM     18  C   UNL     1      45.317   6.743  11.544  0.00  0.00    +0.000 A 
ATOM     19  C   UNL     1      46.534   7.264  11.996  0.00  0.00    +0.000 A 
ATOM     20  C   UNL     1      47.317   6.544  12.892  0.00  0.00    +0.000 A 
ATOM     21  C   UNL     1      46.877   5.307  13.351  0.00  0.00    +0.000 A 
ATOM     22  C   UNL     1      45.658   4.788  12.904  0.00  0.00    +0.000 A 
ENDBRANCH  15  17
ENDBRANCH   1  15
TORSDOF 4
ENDMDL
MODEL 2
REMARK VINA RESULT:    -8.298      0.489      1.199
REMARK INTER + INTRA:         -10.995
REMARK INTER:                 -10.305
REMARK INTRA:                  -0.691
REMARK UNBOUND:                -0.757
REMARK  Name = 
REMARK  6 active torsions:
REMARK  status: ('A' for Active; 'I' for Inactive)
REMARK    1  A    between atoms: C_1  and  C_2
REMARK    2  A    between atoms: C_2  and  C_3
REMARK    3  A    between atoms: C_2  and  N_4
REMARK    4  A    between atoms: C_2  and  C_14
REMARK    5  A    between atoms: N_4  and  C_5
REMARK    6  A    between atoms: C_8  and  C_9
REMARK                            x       y       z     vdW  Elec       q    Type
REMARK                         _______ _______ _______ _____ _____    ______ ____
ROOT
ATOM      1  N   UNL     1      43.694   4.716   9.999  0.00  0.00    +0.000 N 
ATOM      2  H   UNL     1      43.217   5.392   9.407  0.00  0.00    +0.000 HD
ENDROOT
BRANCH   1   3
ATOM      3  C   UNL     1      44.618   3.940   9.326  0.00  0.00    +0.000 A 
ATOM      4  C   UNL     1      45.520   4.583   8.467  0.00  0.00    +0.000 A 
ATOM      5  C   UNL     1      46.429   3.862   7.679  0.00  0.00    +0.000 A 
ATOM      6  C   UNL     1      46.466   2.471   7.754  0.00  0.00    +0.000 A 
ATOM      7  C   UNL     1      45.580   1.810   8.604  0.00  0.00    +0.000 A 
ATOM      8  C   UNL     1      44.667   2.545   9.374  0.00  0.00    +0.000 A 
BRANCH   6   9
ATOM      9  C   UNL     1      47.432   1.732   6.895  0.00  0.00    +0.000 C 
ATOM     10  N   UNL     1      48.487   2.446   6.386  0.00  0.00    +0.000 N 
ATOM     11  O   UNL     1      47.282   0.550   6.624  0.00  0.00    +0.000 OA
ATOM     12  H   UNL     1      48.512   3.455   6.386  0.00  0.00    +0.000 HD
ATOM     13  H   UNL     1      49.076   1.957   5.725  0.00  0.00    +0.000 HD
ENDBRANCH   6   9
ENDBRANCH   1   3
BRANCH   1  15
ATOM     14  C   UNL     1      42.289   5.784  11.771  0.00  0.00    +0.000 C 
ATOM     15  C   UNL     1      43.582   5.005  11.439  0.00  0.00    +0.000 C 
ATOM     16  C   UNL     1      43.606   3.681  12.223  0.00  0.00    +0.000 C 
BRANCH  15  17
ATOM     17  C   UNL     1      44.774   5.932  11.797  0.00  0.00    +0.000 A 
ATOM     18  C   UNL     1      45.979   5.456  12.345  0.00  0.00    +0.000 A 
ATOM     19  C   UNL     1      47.005   6.332  12.715  0.00  0.00    +0.000 A 
ATOM     20  C   UNL     1      46.851   7.705  12.546  0.00  0.00    +0.000 A 
ATOM     21  C   UNL     1      45.677   8.202  11.991  0.00  0.00    +0.000 A 
ATOM     22  C   UNL     1      44.654   7.326  11.615  0.00  0.00    +0.000 A 
ENDBRANCH  15  17
ENDBRANCH   1  15
TORSDOF 4
ENDMDL
MODEL 3
REMARK VINA RESULT:    -6.624      3.578      6.647
REMARK INTER + INTRA:          -8.930
REMARK INTER:                  -8.177
REMARK INTRA:                  -0.753
REMARK UNBOUND:                -0.757
REMARK  Name = 
REMARK  6 active torsions:
REMARK  status: ('A' for Active; 'I' for Inactive)
REMARK    1  A    between atoms: C_1  and  C_2
REMARK    2  A    between atoms: C_2  and  C_3
REMARK    3  A    between atoms: C_2  and  N_4
REMARK    4  A    between atoms: C_2  and  C_14
REMARK    5  A    between atoms: N_4  and  C_5
REMARK    6  A    between atoms: C_8  and  C_9
REMARK                            x       y       z     vdW  Elec       q    Type
REMARK                         _______ _______ _______ _____ _____    ______ ____
ROOT
ATOM      1  N   UNL     1      45.338   6.064  10.513  0.00  0.00    +0.000 N 
ATOM      2  H   UNL     1      44.984   6.559   9.698  0.00  0.00    +0.000 HD
ENDROOT
BRANCH   1   3
ATOM      3  C   UNL     1      45.967   6.880  11.432  0.00  0.00    +0.000 A 
ATOM      4  C   UNL     1      47.355   6.755  11.585  0.00  0.00    +0.000 A 
ATOM      5  C   UNL     1      48.058   7.480  12.559  0.00  0.00    +0.000 A 
ATOM      6  C   UNL     1      47.380   8.369  13.391  0.00  0.00    +0.000 A 
ATOM      7  C   UNL     1      45.999   8.512  13.254  0.00  0.00    +0.000 A 
ATOM      8  C   UNL     1      45.309   7.768  12.286  0.00  0.00    +0.000 A 
BRANCH   6   9
ATOM      9  C   UNL     1      48.150   9.113  14.424  0.00  0.00    +0.000 C 
ATOM     10  N   UNL     1      47.578   9.229  15.665  0.00  0.00    +0.000 N 
ATOM     11  O   UNL     1      49.230   9.628  14.178  0.00  0.00    +0.000 OA
ATOM     12  H   UNL     1      46.603   9.034  15.836  0.00  0.00    +0.000 HD
ATOM     13  H   UNL     1      48.065   9.821  16.325  0.00  0.00    +0.000 HD
ENDBRANCH   6   9
ENDBRANCH   1   3
BRANCH   1  15
ATOM     14  C   UNL     1      45.237   4.053  11.997  0.00  0.00    +0.000 C 
ATOM     15  C   UNL     1      44.752   4.724  10.693  0.00  0.00    +0.000 C 
ATOM     16  C   UNL     1      43.217   4.842  10.709  0.00  0.00    +0.000 C 
BRANCH  15  17
ATOM     17  C   UNL     1      45.270   3.855   9.516  0.00  0.00    +0.000 A 
ATOM     18  C   UNL     1      45.209   2.449   9.515  0.00  0.00    +0.000 A 
ATOM     19  C   UNL     1      45.748   1.700   8.463  0.00  0.00    +0.000 A 
ATOM     20  C   UNL     1      46.359   2.337   7.388  0.00  0.00    +0.000 A 
ATOM     21  C   UNL     1      46.419   3.726   7.355  0.00  0.00    +0.000 A 
ATOM     22  C   UNL     1      45.875   4.475   8.403  0.00  0.00    +0.000 A 
ENDBRANCH  15  17
ENDBRANCH   1  15
TORSDOF 4
ENDMDL
MODEL 4
REMARK VINA RESULT:    -6.265      3.406      6.158
REMARK INTER + INTRA:          -8.487
REMARK INTER:                  -7.936
REMARK INTRA:                  -0.551
REMARK UNBOUND:                -0.757
REMARK  Name = 
REMARK  6 active torsions:
REMARK  status: ('A' for Active; 'I' for Inactive)
REMARK    1  A    between atoms: C_1  and  C_2
REMARK    2  A    between atoms: C_2  and  C_3
REMARK    3  A    between atoms: C_2  and  N_4
REMARK    4  A    between atoms: C_2  and  C_14
REMARK    5  A    between atoms: N_4  and  C_5
REMARK    6  A    between atoms: C_8  and  C_9
REMARK                            x       y       z     vdW  Elec       q    Type
REMARK                         _______ _______ _______ _____ _____    ______ ____
ROOT
ATOM      1  N   UNL     1      45.215   4.989  12.239  0.00  0.00    +0.000 N 
ATOM      2  H   UNL     1      45.785   4.275  12.684  0.00  0.00    +0.000 HD
ENDROOT
BRANCH   1   3
ATOM      3  C   UNL     1      45.792   6.244  12.238  0.00  0.00    +0.000 A 
ATOM      4  C   UNL     1      47.089   6.373  11.722  0.00  0.00    +0.000 A 
ATOM      5  C   UNL     1      47.782   7.592  11.766  0.00  0.00    +0.000 A 
ATOM      6  C   UNL     1      47.174   8.720  12.313  0.00  0.00    +0.000 A 
ATOM      7  C   UNL     1      45.882   8.615  12.829  0.00  0.00    +0.000 A 
ATOM      8  C   UNL     1      45.209   7.386  12.792  0.00  0.00    +0.000 A 
BRANCH   6   9
ATOM      9  C   UNL     1      47.939   9.996  12.359  0.00  0.00    +0.000 C 
ATOM     10  N   UNL     1      47.916  10.695  13.539  0.00  0.00    +0.000 N 
ATOM     11  O   UNL     1      48.539  10.425  11.385  0.00  0.00    +0.000 OA
ATOM     12  H   UNL     1      47.249  10.504  14.273  0.00  0.00    +0.000 HD
ATOM     13  H   UNL     1      48.355  11.606  13.524  0.00  0.00    +0.000 HD
ENDBRANCH   6   9
ENDBRANCH   1   3
BRANCH   1  15
ATOM     14  C   UNL     1      43.411   3.266  12.054  0.00  0.00    +0.000 C 
ATOM     15  C   UNL     1      44.148   4.446  11.381  0.00  0.00    +0.000 C 
ATOM     16  C   UNL     1      43.144   5.565  11.053  0.00  0.00    +0.000 C 
BRANCH  15  17
ATOM     17  C   UNL     1      44.845   3.881  10.114  0.00  0.00    +0.000 A 
ATOM     18  C   UNL     1      45.377   4.699   9.101  0.00  0.00    +0.000 A 
ATOM     19  C   UNL     1      45.939   4.149   7.944  0.00  0.00    +0.000 A 
ATOM     20  C   UNL     1      45.985   2.769   7.772  0.00  0.00    +0.000 A 
ATOM     21  C   UNL     1      45.481   1.936   8.765  0.00  0.00    +0.000 A 
ATOM     22  C   UNL     1      44.925   2.485   9.925  0.00  0.00    +0.000 A 
ENDBRANCH  15  17
ENDBRANCH   1  15
TORSDOF 4
ENDMDL
MODEL 5
REMARK VINA RESULT:    -6.192      3.651      6.212
REMARK INTER + INTRA:          -8.397
REMARK INTER:                  -7.669
REMARK INTRA:                  -0.729
REMARK UNBOUND:                -0.757
REMARK  Name = 
REMARK  6 active torsions:
REMARK  status: ('A' for Active; 'I' for Inactive)
REMARK    1  A    between atoms: C_1  and  C_2
REMARK    2  A    between atoms: C_2  and  C_3
REMARK    3  A    between atoms: C_2  and  N_4
REMARK    4  A    between atoms: C_2  and  C_14
REMARK    5  A    between atoms: N_4  and  C_5
REMARK    6  A    between atoms: C_8  and  C_9
REMARK                            x       y       z     vdW  Elec       q    Type
REMARK                         _______ _______ _______ _____ _____    ______ ____
ROOT
ATOM      1  N   UNL     1      44.803   6.470  11.175  0.00  0.00    +0.000 N 
ATOM      2  H   UNL     1      44.172   7.123  10.717  0.00  0.00    +0.000 HD
ENDROOT
BRANCH   1   3
ATOM      3  C   UNL     1      45.865   7.077  11.817  0.00  0.00    +0.000 A 
ATOM      4  C   UNL     1      47.163   6.679  11.465  0.00  0.00    +0.000 A 
ATOM      5  C   UNL     1      48.292   7.179  12.132  0.00  0.00    +0.000 A 
ATOM      6  C   UNL     1      48.142   8.111  13.157  0.00  0.00    +0.000 A 
ATOM      7  C   UNL     1      46.860   8.523  13.520  0.00  0.00    +0.000 A 
ATOM      8  C   UNL     1      45.740   8.003  12.855  0.00  0.00    +0.000 A 
BRANCH   6   9
ATOM      9  C   UNL     1      49.357   8.612  13.854  0.00  0.00    +0.000 C 
ATOM     10  N   UNL     1      50.438   7.769  13.906  0.00  0.00    +0.000 N 
ATOM     11  O   UNL     1      49.390   9.711  14.386  0.00  0.00    +0.000 OA
ATOM     12  H   UNL     1      50.371   6.784  13.698  0.00  0.00    +0.000 HD
ATOM     13  H   UNL     1      51.218   8.082  14.469  0.00  0.00    +0.000 HD
ENDBRANCH   6   9
ENDBRANCH   1   3
BRANCH   1  15
ATOM     14  C   UNL     1      44.732   4.475  12.682  0.00  0.00    +0.000 C 
ATOM     15  C   UNL     1      44.225   5.130  11.378  0.00  0.00    +0.000 C 
ATOM     16  C   UNL     1      42.690   5.243  11.415  0.00  0.00    +0.000 C 
BRANCH  15  17
ATOM     17  C   UNL     1      44.730   4.250  10.203  0.00  0.00    +0.000 A 
ATOM     18  C   UNL     1      45.397   4.775   9.082  0.00  0.00    +0.000 A 
ATOM     19  C   UNL     1      45.777   3.955   8.013  0.00  0.00    +0.000 A 
ATOM     20  C   UNL     1      45.500   2.592   8.040  0.00  0.00    +0.000 A 
ATOM     21  C   UNL     1      44.856   2.043   9.143  0.00  0.00    +0.000 A 
ATOM     22  C   UNL     1      44.482   2.861  10.214  0.00  0.00    +0.000 A 
ENDBRANCH  15  17
ENDBRANCH   1  15
TORSDOF 4
ENDMDL
MODEL 6
REMARK VINA RESULT:    -5.835      4.083      6.903
REMARK INTER + INTRA:          -7.956
REMARK INTER:                  -7.403
REMARK INTRA:                  -0.553
REMARK UNBOUND:                -0.757
REMARK  Name = 
REMARK  6 active torsions:
REMARK  status: ('A' for Active; 'I' for Inactive)
REMARK    1  A    between atoms: C_1  and  C_2
REMARK    2  A    between atoms: C_2  and  C_3
REMARK    3  A    between atoms: C_2  and  N_4
REMARK    4  A    between atoms: C_2  and  C_14
REMARK    5  A    between atoms: N_4  and  C_5
REMARK    6  A    between atoms: C_8  and  C_9
REMARK                            x       y       z     vdW  Elec       q    Type
REMARK                         _______ _______ _______ _____ _____    ______ ____
ROOT
ATOM      1  N   UNL     1      46.648   5.696  12.391  0.00  0.00    +0.000 N 
ATOM      2  H   UNL     1      47.373   6.125  11.821  0.00  0.00    +0.000 HD
ENDROOT
BRANCH   1   3
ATOM      3  C   UNL     1      47.056   5.390  13.675  0.00  0.00    +0.000 A 
ATOM      4  C   UNL     1      47.859   6.320  14.351  0.00  0.00    +0.000 A 
ATOM      5  C   UNL     1      48.390   6.048  15.621  0.00  0.00    +0.000 A 
ATOM      6  C   UNL     1      48.106   4.839  16.252  0.00  0.00    +0.000 A 
ATOM      7  C   UNL     1      47.307   3.901  15.598  0.00  0.00    +0.000 A 
ATOM      8  C   UNL     1      46.796   4.181  14.323  0.00  0.00    +0.000 A 
BRANCH   6   9
ATOM      9  C   UNL     1      48.696   4.573  17.592  0.00  0.00    +0.000 C 
ATOM     10  N   UNL     1      47.823   4.429  18.640  0.00  0.00    +0.000 N 
ATOM     11  O   UNL     1      49.904   4.515  17.766  0.00  0.00    +0.000 OA
ATOM     12  H   UNL     1      46.854   4.705  18.584  0.00  0.00    +0.000 HD
ATOM     13  H   UNL     1      48.241   4.350  19.558  0.00  0.00    +0.000 HD
ENDBRANCH   6   9
ENDBRANCH   1   3
BRANCH   1  15
ATOM     14  C   UNL     1      44.206   5.563  12.914  0.00  0.00    +0.000 C 
ATOM     15  C   UNL     1      45.288   5.879  11.857  0.00  0.00    +0.000 C 
ATOM     16  C   UNL     1      45.128   7.330  11.368  0.00  0.00    +0.000 C 
BRANCH  15  17
ATOM     17  C   UNL     1      45.120   4.843  10.713  0.00  0.00    +0.000 A 
ATOM     18  C   UNL     1      44.544   3.574  10.905  0.00  0.00    +0.000 A 
ATOM     19  C   UNL     1      44.472   2.644   9.862  0.00  0.00    +0.000 A 
ATOM     20  C   UNL     1      44.972   2.961   8.603  0.00  0.00    +0.000 A 
ATOM     21  C   UNL     1      45.532   4.214   8.380  0.00  0.00    +0.000 A 
ATOM     22  C   UNL     1      45.598   5.146   9.421  0.00  0.00    +0.000 A 
ENDBRANCH  15  17
ENDBRANCH   1  15
TORSDOF 4
ENDMDL
MODEL 7
REMARK VINA RESULT:    -5.700      3.151      5.357
REMARK INTER + INTRA:          -7.790
REMARK INTER:                  -6.974
REMARK INTRA:                  -0.815
REMARK UNBOUND:                -0.757
REMARK  Name = 
REMARK  6 active torsions:
REMARK  status: ('A' for Active; 'I' for Inactive)
REMARK    1  A    between atoms: C_1  and  C_2
REMARK    2  A    between atoms: C_2  and  C_3
REMARK    3  A    between atoms: C_2  and  N_4
REMARK    4  A    between atoms: C_2  and  C_14
REMARK    5  A    between atoms: N_4  and  C_5
REMARK    6  A    between atoms: C_8  and  C_9
REMARK                            x       y       z     vdW  Elec       q    Type
REMARK                         _______ _______ _______ _____ _____    ______ ____
ROOT
ATOM      1  N   UNL     1      46.637   7.453  13.454  0.00  0.00    +0.000 N 
ATOM      2  H   UNL     1      45.946   8.128  13.769  0.00  0.00    +0.000 HD
ENDROOT
BRANCH   1   3
ATOM      3  C   UNL     1      46.093   6.333  12.857  0.00  0.00    +0.000 A 
ATOM      4  C   UNL     1      45.659   6.440  11.527  0.00  0.00    +0.000 A 
ATOM      5  C   UNL     1      45.013   5.379  10.876  0.00  0.00    +0.000 A 
ATOM      6  C   UNL     1      44.807   4.173  11.543  0.00  0.00    +0.000 A 
ATOM      7  C   UNL     1      45.233   4.044  12.864  0.00  0.00    +0.000 A 
ATOM      8  C   UNL     1      45.863   5.119  13.507  0.00  0.00    +0.000 A 
BRANCH   6   9
ATOM      9  C   UNL     1      44.106   3.070  10.830  0.00  0.00    +0.000 C 
ATOM     10  N   UNL     1      43.416   2.169  11.600  0.00  0.00    +0.000 N 
ATOM     11  O   UNL     1      44.161   2.948   9.616  0.00  0.00    +0.000 OA
ATOM     12  H   UNL     1      43.545   2.095  12.599  0.00  0.00    +0.000 HD
ATOM     13  H   UNL     1      43.031   1.371  11.112  0.00  0.00    +0.000 HD
ENDBRANCH   6   9
ENDBRANCH   1   3
BRANCH   1  15
ATOM     14  C   UNL     1      48.545   8.460  14.721  0.00  0.00    +0.000 C 
ATOM     15  C   UNL     1      47.999   8.005  13.349  0.00  0.00    +0.000 C 
ATOM     16  C   UNL     1      48.932   6.938  12.747  0.00  0.00    +0.000 C 
BRANCH  15  17
ATOM     17  C   UNL     1      47.893   9.273  12.460  0.00  0.00    +0.000 A 
ATOM     18  C   UNL     1      46.690   9.973  12.261  0.00  0.00    +0.000 A 
ATOM     19  C   UNL     1      46.623  11.073  11.399  0.00  0.00    +0.000 A 
ATOM     20  C   UNL     1      47.758  11.501  10.717  0.00  0.00    +0.000 A 
ATOM     21  C   UNL     1      48.965  10.837  10.907  0.00  0.00    +0.000 A 
ATOM     22  C   UNL     1      49.033   9.741  11.773  0.00  0.00    +0.000 A 
ENDBRANCH  15  17
ENDBRANCH   1  15
TORSDOF 4
ENDMDL
MODEL 8
REMARK VINA RESULT:    -5.639      3.267      5.534
REMARK INTER + INTRA:          -7.714
REMARK INTER:                  -7.046
REMARK INTRA:                  -0.668
REMARK UNBOUND:                -0.757
REMARK  Name = 
REMARK  6 active torsions:
REMARK  status: ('A' for Active; 'I' for Inactive)
REMARK    1  A    between atoms: C_1  and  C_2
REMARK    2  A    between atoms: C_2  and  C_3
REMARK    3  A    between atoms: C_2  and  N_4
REMARK    4  A    between atoms: C_2  and  C_14
REMARK    5  A    between atoms: N_4  and  C_5
REMARK    6  A    between atoms: C_8  and  C_9
REMARK                            x       y       z     vdW  Elec       q    Type
REMARK                         _______ _______ _______ _____ _____    ______ ____
ROOT
ATOM      1  N   UNL     1      47.094   7.078  13.873  0.00  0.00    +0.000 N 
ATOM      2  H   UNL     1      46.461   7.616  14.459  0.00  0.00    +0.000 HD
ENDROOT
BRANCH   1   3
ATOM      3  C   UNL     1      46.454   6.232  12.989  0.00  0.00    +0.000 A 
ATOM      4  C   UNL     1      45.988   6.769  11.780  0.00  0.00    +0.000 A 
ATOM      5  C   UNL     1      45.248   6.000  10.869  0.00  0.00    +0.000 A 
ATOM      6  C   UNL     1      44.979   4.661  11.144  0.00  0.00    +0.000 A 
ATOM      7  C   UNL     1      45.436   4.105  12.338  0.00  0.00    +0.000 A 
ATOM      8  C   UNL     1      46.161   4.890  13.246  0.00  0.00    +0.000 A 
BRANCH   6   9
ATOM      9  C   UNL     1      44.180   3.875  10.164  0.00  0.00    +0.000 C 
ATOM     10  N   UNL     1      44.068   4.387   8.897  0.00  0.00    +0.000 N 
ATOM     11  O   UNL     1      43.620   2.834  10.475  0.00  0.00    +0.000 OA
ATOM     12  H   UNL     1      44.305   5.342   8.672  0.00  0.00    +0.000 HD
ATOM     13  H   UNL     1      43.442   3.895   8.274  0.00  0.00    +0.000 HD
ENDBRANCH   6   9
ENDBRANCH   1   3
BRANCH   1  15
ATOM     14  C   UNL     1      49.204   7.212  12.535  0.00  0.00    +0.000 C 
ATOM     15  C   UNL     1      48.465   7.618  13.830  0.00  0.00    +0.000 C 
ATOM     16  C   UNL     1      48.406   9.153  13.935  0.00  0.00    +0.000 C 
BRANCH  15  17
ATOM     17  C   UNL     1      49.232   6.968  15.012  0.00  0.00    +0.000 A 
ATOM     18  C   UNL     1      48.626   6.093  15.932  0.00  0.00    +0.000 A 
ATOM     19  C   UNL     1      49.337   5.580  17.023  0.00  0.00    +0.000 A 
ATOM     20  C   UNL     1      50.669   5.929  17.220  0.00  0.00    +0.000 A 
ATOM     21  C   UNL     1      51.298   6.780  16.317  0.00  0.00    +0.000 A 
ATOM     22  C   UNL     1      50.590   7.287  15.223  0.00  0.00    +0.000 A 
ENDBRANCH  15  17
ENDBRANCH   1  15
TORSDOF 4
ENDMDL
