MODEL 1
REMARK VINA RESULT:    -7.283      0.000      0.000
REMARK INTER + INTRA:         -10.980
REMARK INTER:                 -10.051
REMARK INTRA:                  -0.929
REMARK UNBOUND:                -0.929
REMARK  Name = 
REMARK  9 active torsions:
REMARK  status: ('A' for Active; 'I' for Inactive)
REMARK    1  A    between atoms: C_1  and  C_2
REMARK    2  A    between atoms: C_2  and  C_3
REMARK    3  A    between atoms: C_2  and  C_4
REMARK    4  A    between atoms: C_2  and  C_18
REMARK    5  A    between atoms: C_4  and  N_5
REMARK    6  A    between atoms: N_5  and  C_6
REMARK    7  A    between atoms: C_11  and  S_12
REMARK    8  A    between atoms: S_12  and  C_13
REMARK    9  A    between atoms: C_21  and  O_22
REMARK                            x       y       z     vdW  Elec       q    Type
REMARK                         _______ _______ _______ _____ _____    ______ ____
ROOT
ATOM      1  N   UNL     1      45.943   4.050  13.074  0.00  0.00    +0.000 N 
ATOM      2  H   UNL     1      46.396   3.740  12.207  0.00  0.00    +0.000 HD
ENDROOT
BRANCH   1   3
ATOM      3  C   UNL     1      46.868   4.760  13.867  0.00  0.00    +0.000 A 
ATOM      4  C   UNL     1      47.482   5.932  13.418  0.00  0.00    +0.000 A 
ATOM      5  C   UNL     1      48.293   6.687  14.259  0.00  0.00    +0.000 A 
ATOM      6  C   UNL     1      48.485   6.295  15.587  0.00  0.00    +0.000 A 
ATOM      7 CL   UNL     1      49.370   7.392  16.588  0.00  0.00    +0.000 Cl
ATOM      8  C   UNL     1      47.896   5.115  16.078  0.00  0.00    +0.000 A 
ATOM      9  C   UNL     1      47.060   4.386  15.209  0.00  0.00    +0.000 A 
BRANCH   8  10
ATOM     10  S   UNL     1      47.877   4.650  17.806  0.00  0.00    +0.000 S 
BRANCH  10  11
ATOM     11  C   UNL     1      49.170   3.403  18.051  0.00  0.00    +0.000 C 
ATOM     12  C   UNL     1      50.594   3.866  17.761  0.00  0.00    +0.000 C 
ATOM     13  O   UNL     1      50.855   2.684  16.961  0.00  0.00    +0.000 OA
ATOM     14  C   UNL     1      49.446   2.324  17.011  0.00  0.00    +0.000 C 
ENDBRANCH  10  11
ENDBRANCH   8  10
ENDBRANCH   1   3
BRANCH   1  15
ATOM     15  C   UNL     1      44.707   4.783  12.760  0.00  0.00    +0.000 C 
BRANCH  15  17
ATOM     16  C   UNL     1      43.407   2.730  12.082  0.00  0.00    +0.000 C 
ATOM     17  C   UNL     1      43.865   4.131  11.629  0.00  0.00    +0.000 C 
ATOM     18  C   UNL     1      42.624   5.035  11.447  0.00  0.00    +0.000 C 
BRANCH  17  19
ATOM     19  C   UNL     1      44.633   4.065  10.311  0.00  0.00    +0.000 A 
ATOM     20  C   UNL     1      44.588   2.946   9.482  0.00  0.00    +0.000 A 
ATOM     21  C   UNL     1      45.282   2.969   8.279  0.00  0.00    +0.000 A 
ATOM     22  C   UNL     1      45.996   4.097   7.956  0.00  0.00    +0.000 A 
ATOM     23  N   UNL     1      46.045   5.168   8.767  0.00  0.00    +0.000 NA
ATOM     24  N   UNL     1      45.354   5.146   9.944  0.00  0.00    +0.000 NA
BRANCH  22  25
ATOM     25  O   UNL     1      46.696   4.207   6.794  0.00  0.00    +0.000 OA
ATOM     26  H   UNL     1      46.453   3.453   6.230  0.00  0.00    +0.000 HD
ENDBRANCH  22  25
ENDBRANCH  17  19
ENDBRANCH  15  17
ENDBRANCH   1  15
TORSDOF 7
ENDMDL
MODEL 2
REMARK VINA RESULT:    -7.231      4.103      5.844
REMARK INTER + INTRA:         -10.908
REMARK INTER:                  -9.873
REMARK INTRA:                  -1.035
REMARK UNBOUND:                -0.929
REMARK  Name = 
REMARK  9 active torsions:
REMARK  status: ('A' for Active; 'I' for Inactive)
REMARK    1  A    between atoms: C_1  and  C_2
REMARK    2  A    between atoms: C_2  and  C_3
REMARK    3  A    between atoms: C_2  and  C_4
REMARK    4  A    between atoms: C_2  and  C_18
REMARK    5  A    between atoms: C_4  and  N_5
REMARK    6  A    between atoms: N_5  and  C_6
REMARK    7  A    between atoms: C_11  and  S_12
REMARK    8  A    between atoms: S_12  and  C_13
REMARK    9  A    between atoms: C_21  and  O_22
REMARK                            x       y       z     vdW  Elec       q    Type
REMARK                         _______ _______ _______ _____ _____    ______ ____
ROOT
ATOM      1  N   UNL     1      44.724   5.557  13.180  0.00  0.00    +0.000 N 
ATOM      2  H   UNL     1      44.588   5.471  14.194  0.00  0.00    +0.000 HD
ENDROOT
BRANCH   1   3
ATOM      3  C   UNL     1      45.700   6.539  12.913  0.00  0.00    +0.000 A 
ATOM      4  C   UNL     1      47.048   6.214  12.735  0.00  0.00    +0.000 A 
ATOM      5  C   UNL     1      47.975   7.177  12.347  0.00  0.00    +0.000 A 
ATOM      6  C   UNL     1      47.561   8.489  12.100  0.00  0.00    +0.000 A 
ATOM      7 CL   UNL     1      48.759   9.561  11.461  0.00  0.00    +0.000 Cl
ATOM      8  C   UNL     1      46.217   8.863  12.279  0.00  0.00    +0.000 A 
ATOM      9  C   UNL     1      45.298   7.860  12.648  0.00  0.00    +0.000 A 
BRANCH   8  10
ATOM     10  S   UNL     1      45.540  10.438  11.766  0.00  0.00    +0.000 S 
BRANCH  10  11
ATOM     11  C   UNL     1      43.892  10.127  11.077  0.00  0.00    +0.000 C 
ATOM     12  C   UNL     1      43.719  10.478   9.603  0.00  0.00    +0.000 C 
ATOM     13  O   UNL     1      42.487  11.192   9.880  0.00  0.00    +0.000 OA
ATOM     14  C   UNL     1      42.734  11.089  11.310  0.00  0.00    +0.000 C 
ENDBRANCH  10  11
ENDBRANCH   8  10
ENDBRANCH   1   3
BRANCH   1  15
ATOM     15  C   UNL     1      45.002   4.235  12.598  0.00  0.00    +0.000 C 
BRANCH  15  17
ATOM     16  C   UNL     1      43.386   2.518  11.700  0.00  0.00    +0.000 C 
ATOM     17  C   UNL     1      44.069   3.869  11.411  0.00  0.00    +0.000 C 
ATOM     18  C   UNL     1      42.993   4.978  11.358  0.00  0.00    +0.000 C 
BRANCH  17  19
ATOM     19  C   UNL     1      44.821   3.839  10.082  0.00  0.00    +0.000 A 
ATOM     20  C   UNL     1      44.940   2.675   9.324  0.00  0.00    +0.000 A 
ATOM     21  C   UNL     1      45.608   2.729   8.107  0.00  0.00    +0.000 A 
ATOM     22  C   UNL     1      46.133   3.931   7.700  0.00  0.00    +0.000 A 
ATOM     23  N   UNL     1      46.025   5.046   8.443  0.00  0.00    +0.000 NA
ATOM     24  N   UNL     1      45.360   4.992   9.634  0.00  0.00    +0.000 NA
BRANCH  22  25
ATOM     25  O   UNL     1      46.793   4.073   6.518  0.00  0.00    +0.000 OA
ATOM     26  H   UNL     1      46.548   3.322   5.951  0.00  0.00    +0.000 HD
ENDBRANCH  22  25
ENDBRANCH  17  19
ENDBRANCH  15  17
ENDBRANCH   1  15
TORSDOF 7
ENDMDL
MODEL 3
REMARK VINA RESULT:    -7.065      1.499      1.854
REMARK INTER + INTRA:         -10.679
REMARK INTER:                  -9.644
REMARK INTRA:                  -1.035
REMARK UNBOUND:                -0.929
REMARK  Name = 
REMARK  9 active torsions:
REMARK  status: ('A' for Active; 'I' for Inactive)
REMARK    1  A    between atoms: C_1  and  C_2
REMARK    2  A    between atoms: C_2  and  C_3
REMARK    3  A    between atoms: C_2  and  C_4
REMARK    4  A    between atoms: C_2  and  C_18
REMARK    5  A    between atoms: C_4  and  N_5
REMARK    6  A    between atoms: N_5  and  C_6
REMARK    7  A    between atoms: C_11  and  S_12
REMARK    8  A    between atoms: S_12  and  C_13
REMARK    9  A    between atoms: C_21  and  O_22
REMARK                            x       y       z     vdW  Elec       q    Type
REMARK                         _______ _______ _______ _____ _____    ______ ____
ROOT
ATOM      1  N   UNL     1      45.296   6.020  12.575  0.00  0.00    +0.000 N 
ATOM      2  H   UNL     1      44.695   6.473  13.274  0.00  0.00    +0.000 HD
ENDROOT
BRANCH   1   3
ATOM      3  C   UNL     1      46.640   6.388  12.794  0.00  0.00    +0.000 A 
ATOM      4  C   UNL     1      47.377   7.100  11.845  0.00  0.00    +0.000 A 
ATOM      5  C   UNL     1      48.658   7.563  12.129  0.00  0.00    +0.000 A 
ATOM      6  C   UNL     1      49.220   7.345  13.390  0.00  0.00    +0.000 A 
ATOM      7 CL   UNL     1      50.743   8.108  13.691  0.00  0.00    +0.000 Cl
ATOM      8  C   UNL     1      48.518   6.621  14.372  0.00  0.00    +0.000 A 
ATOM      9  C   UNL     1      47.214   6.188  14.063  0.00  0.00    +0.000 A 
BRANCH   8  10
ATOM     10  S   UNL     1      49.036   6.491  16.079  0.00  0.00    +0.000 S 
BRANCH  10  11
ATOM     11  C   UNL     1      48.293   4.986  16.763  0.00  0.00    +0.000 C 
ATOM     12  C   UNL     1      47.692   5.124  18.158  0.00  0.00    +0.000 C 
ATOM     13  O   UNL     1      48.369   3.922  18.608  0.00  0.00    +0.000 OA
ATOM     14  C   UNL     1      49.146   3.883  17.379  0.00  0.00    +0.000 C 
ENDBRANCH  10  11
ENDBRANCH   8  10
ENDBRANCH   1   3
BRANCH   1  15
ATOM     15  C   UNL     1      45.046   4.570  12.563  0.00  0.00    +0.000 C 
BRANCH  15  17
ATOM     16  C   UNL     1      43.439   2.777  11.811  0.00  0.00    +0.000 C 
ATOM     17  C   UNL     1      44.103   4.111  11.417  0.00  0.00    +0.000 C 
ATOM     18  C   UNL     1      43.014   5.203  11.299  0.00  0.00    +0.000 C 
BRANCH  17  19
ATOM     19  C   UNL     1      44.839   3.994  10.084  0.00  0.00    +0.000 A 
ATOM     20  C   UNL     1      44.886   2.800   9.366  0.00  0.00    +0.000 A 
ATOM     21  C   UNL     1      45.544   2.774   8.143  0.00  0.00    +0.000 A 
ATOM     22  C   UNL     1      46.132   3.930   7.690  0.00  0.00    +0.000 A 
ATOM     23  N   UNL     1      46.093   5.075   8.395  0.00  0.00    +0.000 NA
ATOM     24  N   UNL     1      45.438   5.099   9.593  0.00  0.00    +0.000 NA
BRANCH  22  25
ATOM     25  O   UNL     1      46.787   3.995   6.499  0.00  0.00    +0.000 OA
ATOM     26  H   UNL     1      47.350   3.205   6.429  0.00  0.00    +0.000 HD
ENDBRANCH  22  25
ENDBRANCH  17  19
ENDBRANCH  15  17
ENDBRANCH   1  15
TORSDOF 7
ENDMDL
MODEL 4
REMARK VINA RESULT:    -6.920      2.758      3.487
REMARK INTER + INTRA:         -10.479
REMARK INTER:                  -9.348
REMARK INTRA:                  -1.130
REMARK UNBOUND:                -0.929
REMARK  Name = 
REMARK  9 active torsions:
REMARK  status: ('A' for Active; 'I' for Inactive)
REMARK    1  A    between atoms: C_1  and  C_2
REMARK    2  A    between atoms: C_2  and  C_3
REMARK    3  A    between atoms: C_2  and  C_4
REMARK    4  A    between atoms: C_2  and  C_18
REMARK    5  A    between atoms: C_4  and  N_5
REMARK    6  A    between atoms: N_5  and  C_6
REMARK    7  A    between atoms: C_11  and  S_12
REMARK    8  A    between atoms: S_12  and  C_13
REMARK    9  A    between atoms: C_21  and  O_22
REMARK                            x       y       z     vdW  Elec       q    Type
REMARK                         _______ _______ _______ _____ _____    ______ ____
ROOT
ATOM      1  N   UNL     1      44.415   6.348  12.934  0.00  0.00    +0.000 N 
ATOM      2  H   UNL     1      44.141   6.477  13.915  0.00  0.00    +0.000 HD
ENDROOT
BRANCH   1   3
ATOM      3  C   UNL     1      45.401   7.295  12.587  0.00  0.00    +0.000 A 
ATOM      4  C   UNL     1      45.084   8.630  12.318  0.00  0.00    +0.000 A 
ATOM      5  C   UNL     1      46.082   9.575  12.102  0.00  0.00    +0.000 A 
ATOM      6  C   UNL     1      47.428   9.206  12.179  0.00  0.00    +0.000 A 
ATOM      7 CL   UNL     1      48.580  10.490  12.062  0.00  0.00    +0.000 Cl
ATOM      8  C   UNL     1      47.791   7.871  12.434  0.00  0.00    +0.000 A 
ATOM      9  C   UNL     1      46.759   6.942  12.673  0.00  0.00    +0.000 A 
BRANCH   8  10
ATOM     10  S   UNL     1      49.463   7.340  12.788  0.00  0.00    +0.000 S 
BRANCH  10  11
ATOM     11  C   UNL     1      49.776   7.656  14.545  0.00  0.00    +0.000 C 
ATOM     12  C   UNL     1      49.130   6.673  15.516  0.00  0.00    +0.000 C 
ATOM     13  O   UNL     1      48.617   7.758  16.331  0.00  0.00    +0.000 OA
ATOM     14  C   UNL     1      49.007   8.723  15.315  0.00  0.00    +0.000 C 
ENDBRANCH  10  11
ENDBRANCH   8  10
ENDBRANCH   1   3
BRANCH   1  15
ATOM     15  C   UNL     1      44.794   4.946  12.699  0.00  0.00    +0.000 C 
BRANCH  15  17
ATOM     16  C   UNL     1      43.497   2.861  12.122  0.00  0.00    +0.000 C 
ATOM     17  C   UNL     1      43.941   4.244  11.608  0.00  0.00    +0.000 C 
ATOM     18  C   UNL     1      42.691   5.134  11.408  0.00  0.00    +0.000 C 
BRANCH  17  19
ATOM     19  C   UNL     1      44.690   4.131  10.283  0.00  0.00    +0.000 A 
ATOM     20  C   UNL     1      44.673   2.964   9.519  0.00  0.00    +0.000 A 
ATOM     21  C   UNL     1      45.349   2.943   8.305  0.00  0.00    +0.000 A 
ATOM     22  C   UNL     1      46.016   4.075   7.907  0.00  0.00    +0.000 A 
ATOM     23  N   UNL     1      46.039   5.192   8.655  0.00  0.00    +0.000 NA
ATOM     24  N   UNL     1      45.366   5.213   9.843  0.00  0.00    +0.000 NA
BRANCH  22  25
ATOM     25  O   UNL     1      46.695   4.142   6.728  0.00  0.00    +0.000 OA
ATOM     26  H   UNL     1      46.903   3.233   6.456  0.00  0.00    +0.000 HD
ENDBRANCH  22  25
ENDBRANCH  17  19
ENDBRANCH  15  17
ENDBRANCH   1  15
TORSDOF 7
ENDMDL
MODEL 5
REMARK VINA RESULT:    -6.605      3.648      4.088
REMARK INTER + INTRA:         -10.043
REMARK INTER:                  -8.891
REMARK INTRA:                  -1.153
REMARK UNBOUND:                -0.929
REMARK  Name = 
REMARK  9 active torsions:
REMARK  status: ('A' for Active; 'I' for Inactive)
REMARK    1  A    between atoms: C_1  and  C_2
REMARK    2  A    between atoms: C_2  and  C_3
REMARK    3  A    between atoms: C_2  and  C_4
REMARK    4  A    between atoms: C_2  and  C_18
REMARK    5  A    between atoms: C_4  and  N_5
REMARK    6  A    between atoms: N_5  and  C_6
REMARK    7  A    between atoms: C_11  and  S_12
REMARK    8  A    between atoms: S_12  and  C_13
REMARK    9  A    between atoms: C_21  and  O_22
REMARK                            x       y       z     vdW  Elec       q    Type
REMARK                         _______ _______ _______ _____ _____    ______ ____
ROOT
ATOM      1  N   UNL     1      44.352   6.228  12.978  0.00  0.00    +0.000 N 
ATOM      2  H   UNL     1      44.097   6.267  13.972  0.00  0.00    +0.000 HD
ENDROOT
BRANCH   1   3
ATOM      3  C   UNL     1      45.250   7.273  12.676  0.00  0.00    +0.000 A 
ATOM      4  C   UNL     1      44.865   8.387  11.925  0.00  0.00    +0.000 A 
ATOM      5  C   UNL     1      45.726   9.464  11.744  0.00  0.00    +0.000 A 
ATOM      6  C   UNL     1      46.990   9.461  12.341  0.00  0.00    +0.000 A 
ATOM      7 CL   UNL     1      47.910  10.918  12.194  0.00  0.00    +0.000 Cl
ATOM      8  C   UNL     1      47.424   8.354  13.094  0.00  0.00    +0.000 A 
ATOM      9  C   UNL     1      46.520   7.289  13.280  0.00  0.00    +0.000 A 
BRANCH   8  10
ATOM     10  S   UNL     1      48.910   8.343  14.091  0.00  0.00    +0.000 S 
BRANCH  10  11
ATOM     11  C   UNL     1      50.294   7.912  13.003  0.00  0.00    +0.000 C 
ATOM     12  C   UNL     1      51.220   9.064  12.627  0.00  0.00    +0.000 C 
ATOM     13  O   UNL     1      51.169   8.696  11.225  0.00  0.00    +0.000 OA
ATOM     14  C   UNL     1      50.106   7.742  11.501  0.00  0.00    +0.000 C 
ENDBRANCH  10  11
ENDBRANCH   8  10
ENDBRANCH   1   3
BRANCH   1  15
ATOM     15  C   UNL     1      44.834   4.880  12.637  0.00  0.00    +0.000 C 
BRANCH  15  17
ATOM     16  C   UNL     1      43.563   2.780  12.054  0.00  0.00    +0.000 C 
ATOM     17  C   UNL     1      43.984   4.173  11.545  0.00  0.00    +0.000 C 
ATOM     18  C   UNL     1      42.721   5.046  11.357  0.00  0.00    +0.000 C 
BRANCH  17  19
ATOM     19  C   UNL     1      44.728   4.078  10.215  0.00  0.00    +0.000 A 
ATOM     20  C   UNL     1      44.694   2.929   9.428  0.00  0.00    +0.000 A 
ATOM     21  C   UNL     1      45.365   2.925   8.211  0.00  0.00    +0.000 A 
ATOM     22  C   UNL     1      46.046   4.056   7.834  0.00  0.00    +0.000 A 
ATOM     23  N   UNL     1      46.085   5.157   8.606  0.00  0.00    +0.000 NA
ATOM     24  N   UNL     1      45.416   5.161   9.797  0.00  0.00    +0.000 NA
BRANCH  22  25
ATOM     25  O   UNL     1      46.721   4.140   6.655  0.00  0.00    +0.000 OA
ATOM     26  H   UNL     1      47.588   4.539   6.840  0.00  0.00    +0.000 HD
ENDBRANCH  22  25
ENDBRANCH  17  19
ENDBRANCH  15  17
ENDBRANCH   1  15
TORSDOF 7
ENDMDL
MODEL 6
REMARK VINA RESULT:    -6.430      2.568      3.888
REMARK INTER + INTRA:          -9.803
REMARK INTER:                  -8.850
REMARK INTRA:                  -0.953
REMARK UNBOUND:                -0.929
REMARK  Name = 
REMARK  9 active torsions:
REMARK  status: ('A' for Active; 'I' for Inactive)
REMARK    1  A    between atoms: C_1  and  C_2
REMARK    2  A    between atoms: C_2  and  C_3
REMARK    3  A    between atoms: C_2  and  C_4
REMARK    4  A    between atoms: C_2  and  C_18
REMARK    5  A    between atoms: C_4  and  N_5
REMARK    6  A    between atoms: N_5  and  C_6
REMARK    7  A    between atoms: C_11  and  S_12
REMARK    8  A    between atoms: S_12  and  C_13
REMARK    9  A    between atoms: C_21  and  O_22
REMARK                            x       y       z     vdW  Elec       q    Type
REMARK                         _______ _______ _______ _____ _____    ______ ____
ROOT
ATOM      1  N   UNL     1      46.176   4.603  12.671  0.00  0.00    +0.000 N 
ATOM      2  H   UNL     1      46.562   4.955  11.787  0.00  0.00    +0.000 HD
ENDROOT
BRANCH   1   3
ATOM      3  C   UNL     1      46.919   5.120  13.753  0.00  0.00    +0.000 A 
ATOM      4  C   UNL     1      46.992   4.461  14.983  0.00  0.00    +0.000 A 
ATOM      5  C   UNL     1      47.830   4.919  15.995  0.00  0.00    +0.000 A 
ATOM      6  C   UNL     1      48.640   6.039  15.783  0.00  0.00    +0.000 A 
ATOM      7 CL   UNL     1      49.764   6.419  17.042  0.00  0.00    +0.000 Cl
ATOM      8  C   UNL     1      48.589   6.740  14.564  0.00  0.00    +0.000 A 
ATOM      9  C   UNL     1      47.750   6.237  13.550  0.00  0.00    +0.000 A 
BRANCH   8  10
ATOM     10  S   UNL     1      49.743   8.027  14.102  0.00  0.00    +0.000 S 
BRANCH  10  11
ATOM     11  C   UNL     1      48.801   9.333  13.271  0.00  0.00    +0.000 C 
ATOM     12  C   UNL     1      49.303   9.728  11.887  0.00  0.00    +0.000 C 
ATOM     13  O   UNL     1      49.244  11.137  12.227  0.00  0.00    +0.000 OA
ATOM     14  C   UNL     1      48.995  10.804  13.621  0.00  0.00    +0.000 C 
ENDBRANCH  10  11
ENDBRANCH   8  10
ENDBRANCH   1   3
BRANCH   1  15
ATOM     15  C   UNL     1      44.731   4.872  12.730  0.00  0.00    +0.000 C 
BRANCH  15  17
ATOM     16  C   UNL     1      43.513   2.747  12.125  0.00  0.00    +0.000 C 
ATOM     17  C   UNL     1      43.917   4.147  11.623  0.00  0.00    +0.000 C 
ATOM     18  C   UNL     1      42.642   4.996  11.408  0.00  0.00    +0.000 C 
BRANCH  17  19
ATOM     19  C   UNL     1      44.689   4.065  10.308  0.00  0.00    +0.000 A 
ATOM     20  C   UNL     1      44.738   2.896   9.550  0.00  0.00    +0.000 A 
ATOM     21  C   UNL     1      45.430   2.903   8.345  0.00  0.00    +0.000 A 
ATOM     22  C   UNL     1      46.047   4.065   7.950  0.00  0.00    +0.000 A 
ATOM     23  N   UNL     1      46.006   5.184   8.694  0.00  0.00    +0.000 NA
ATOM     24  N   UNL     1      45.318   5.177   9.873  0.00  0.00    +0.000 NA
BRANCH  22  25
ATOM     25  O   UNL     1      46.737   4.160   6.780  0.00  0.00    +0.000 OA
ATOM     26  H   UNL     1      47.460   4.796   6.916  0.00  0.00    +0.000 HD
ENDBRANCH  22  25
ENDBRANCH  17  19
ENDBRANCH  15  17
ENDBRANCH   1  15
TORSDOF 7
ENDMDL
MODEL 7
REMARK VINA RESULT:    -6.338      3.895      7.612
REMARK INTER + INTRA:          -9.676
REMARK INTER:                  -8.484
REMARK INTRA:                  -1.192
REMARK UNBOUND:                -0.929
REMARK  Name = 
REMARK  9 active torsions:
REMARK  status: ('A' for Active; 'I' for Inactive)
REMARK    1  A    between atoms: C_1  and  C_2
REMARK    2  A    between atoms: C_2  and  C_3
REMARK    3  A    between atoms: C_2  and  C_4
REMARK    4  A    between atoms: C_2  and  C_18
REMARK    5  A    between atoms: C_4  and  N_5
REMARK    6  A    between atoms: N_5  and  C_6
REMARK    7  A    between atoms: C_11  and  S_12
REMARK    8  A    between atoms: S_12  and  C_13
REMARK    9  A    between atoms: C_21  and  O_22
REMARK                            x       y       z     vdW  Elec       q    Type
REMARK                         _______ _______ _______ _____ _____    ______ ____
ROOT
ATOM      1  N   UNL     1      48.865   7.027  14.196  0.00  0.00    +0.000 N 
ATOM      2  H   UNL     1      48.860   6.045  14.495  0.00  0.00    +0.000 HD
ENDROOT
BRANCH   1   3
ATOM      3  C   UNL     1      47.636   7.345  13.582  0.00  0.00    +0.000 A 
ATOM      4  C   UNL     1      47.085   8.628  13.649  0.00  0.00    +0.000 A 
ATOM      5  C   UNL     1      45.938   8.955  12.933  0.00  0.00    +0.000 A 
ATOM      6  C   UNL     1      45.330   8.005  12.107  0.00  0.00    +0.000 A 
ATOM      7 CL   UNL     1      44.015   8.566  11.135  0.00  0.00    +0.000 Cl
ATOM      8  C   UNL     1      45.844   6.698  12.020  0.00  0.00    +0.000 A 
ATOM      9  C   UNL     1      47.021   6.404  12.736  0.00  0.00    +0.000 A 
BRANCH   8  10
ATOM     10  S   UNL     1      45.296   5.486  10.823  0.00  0.00    +0.000 S 
BRANCH  10  11
ATOM     11  C   UNL     1      43.876   4.614  11.539  0.00  0.00    +0.000 C 
ATOM     12  C   UNL     1      43.485   5.042  12.950  0.00  0.00    +0.000 C 
ATOM     13  O   UNL     1      43.416   3.661  13.388  0.00  0.00    +0.000 OA
ATOM     14  C   UNL     1      44.014   3.220  12.137  0.00  0.00    +0.000 C 
ENDBRANCH  10  11
ENDBRANCH   8  10
ENDBRANCH   1   3
BRANCH   1  15
ATOM     15  C   UNL     1      49.234   7.893  15.327  0.00  0.00    +0.000 C 
BRANCH  15  17
ATOM     16  C   UNL     1      51.218   6.631  16.239  0.00  0.00    +0.000 C 
ATOM     17  C   UNL     1      49.789   7.115  16.551  0.00  0.00    +0.000 C 
ATOM     18  C   UNL     1      49.843   8.135  17.713  0.00  0.00    +0.000 C 
BRANCH  17  19
ATOM     19  C   UNL     1      48.882   5.953  16.949  0.00  0.00    +0.000 A 
ATOM     20  C   UNL     1      47.989   6.041  18.015  0.00  0.00    +0.000 A 
ATOM     21  C   UNL     1      47.168   4.957  18.298  0.00  0.00    +0.000 A 
ATOM     22  C   UNL     1      47.275   3.832  17.518  0.00  0.00    +0.000 A 
ATOM     23  N   UNL     1      48.149   3.750  16.499  0.00  0.00    +0.000 NA
ATOM     24  N   UNL     1      48.947   4.821  16.217  0.00  0.00    +0.000 NA
BRANCH  22  25
ATOM     25  O   UNL     1      46.503   2.729  17.721  0.00  0.00    +0.000 OA
ATOM     26  H   UNL     1      45.591   2.959  17.475  0.00  0.00    +0.000 HD
ENDBRANCH  22  25
ENDBRANCH  17  19
ENDBRANCH  15  17
ENDBRANCH   1  15
TORSDOF 7
ENDMDL
MODEL 8
REMARK VINA RESULT:    -6.282      2.123      3.095
REMARK INTER + INTRA:          -9.598
REMARK INTER:                  -8.829
REMARK INTRA:                  -0.769
REMARK UNBOUND:                -0.929
REMARK  Name = 
REMARK  9 active torsions:
REMARK  status: ('A' for Active; 'I' for Inactive)
REMARK    1  A    between atoms: C_1  and  C_2
REMARK    2  A    between atoms: C_2  and  C_3
REMARK    3  A    between atoms: C_2  and  C_4
REMARK    4  A    between atoms: C_2  and  C_18
REMARK    5  A    between atoms: C_4  and  N_5
REMARK    6  A    between atoms: N_5  and  C_6
REMARK    7  A    between atoms: C_11  and  S_12
REMARK    8  A    between atoms: S_12  and  C_13
REMARK    9  A    between atoms: C_21  and  O_22
REMARK                            x       y       z     vdW  Elec       q    Type
REMARK                         _______ _______ _______ _____ _____    ______ ____
ROOT
ATOM      1  N   UNL     1      47.597   7.229  14.445  0.00  0.00    +0.000 N 
ATOM      2  H   UNL     1      46.937   7.673  15.094  0.00  0.00    +0.000 HD
ENDROOT
BRANCH   1   3
ATOM      3  C   UNL     1      48.767   6.854  15.137  0.00  0.00    +0.000 A 
ATOM      4  C   UNL     1      49.994   7.484  14.913  0.00  0.00    +0.000 A 
ATOM      5  C   UNL     1      51.107   7.188  15.693  0.00  0.00    +0.000 A 
ATOM      6  C   UNL     1      51.005   6.269  16.741  0.00  0.00    +0.000 A 
ATOM      7 CL   UNL     1      52.399   6.103  17.752  0.00  0.00    +0.000 Cl
ATOM      8  C   UNL     1      49.792   5.602  16.995  0.00  0.00    +0.000 A 
ATOM      9  C   UNL     1      48.677   5.942  16.203  0.00  0.00    +0.000 A 
BRANCH   8  10
ATOM     10  S   UNL     1      49.487   4.597  18.443  0.00  0.00    +0.000 S 
BRANCH  10  11
ATOM     11  C   UNL     1      49.340   2.876  17.894  0.00  0.00    +0.000 C 
ATOM     12  C   UNL     1      50.561   2.307  17.179  0.00  0.00    +0.000 C 
ATOM     13  O   UNL     1      49.735   1.781  16.109  0.00  0.00    +0.000 OA
ATOM     14  C   UNL     1      48.583   2.504  16.625  0.00  0.00    +0.000 C 
ENDBRANCH  10  11
ENDBRANCH   8  10
ENDBRANCH   1   3
BRANCH   1  15
ATOM     15  C   UNL     1      46.929   6.136  13.722  0.00  0.00    +0.000 C 
BRANCH  15  17
ATOM     16  C   UNL     1      45.372   7.722  12.529  0.00  0.00    +0.000 C 
ATOM     17  C   UNL     1      46.364   6.558  12.338  0.00  0.00    +0.000 C 
ATOM     18  C   UNL     1      47.576   7.056  11.517  0.00  0.00    +0.000 C 
BRANCH  17  19
ATOM     19  C   UNL     1      45.713   5.387  11.606  0.00  0.00    +0.000 A 
ATOM     20  C   UNL     1      45.476   5.411  10.232  0.00  0.00    +0.000 A 
ATOM     21  C   UNL     1      44.913   4.295   9.625  0.00  0.00    +0.000 A 
ATOM     22  C   UNL     1      44.603   3.210  10.407  0.00  0.00    +0.000 A 
ATOM     23  N   UNL     1      44.822   3.199  11.734  0.00  0.00    +0.000 NA
ATOM     24  N   UNL     1      45.384   4.293  12.326  0.00  0.00    +0.000 NA
BRANCH  22  25
ATOM     25  O   UNL     1      44.057   2.074   9.892  0.00  0.00    +0.000 OA
ATOM     26  H   UNL     1      44.656   1.747   9.199  0.00  0.00    +0.000 HD
ENDBRANCH  22  25
ENDBRANCH  17  19
ENDBRANCH  15  17
ENDBRANCH   1  15
TORSDOF 7
ENDMDL
MODEL 9
REMARK VINA RESULT:    -6.167      3.244      7.651
REMARK INTER + INTRA:          -9.439
REMARK INTER:                  -8.413
REMARK INTRA:                  -1.027
REMARK UNBOUND:                -0.929
REMARK  Name = 
REMARK  9 active torsions:
REMARK  status: ('A' for Active; 'I' for Inactive)
REMARK    1  A    between atoms: C_1  and  C_2
REMARK    2  A    between atoms: C_2  and  C_3
REMARK    3  A    between atoms: C_2  and  C_4
REMARK    4  A    between atoms: C_2  and  C_18
REMARK    5  A    between atoms: C_4  and  N_5
REMARK    6  A    between atoms: N_5  and  C_6
REMARK    7  A    between atoms: C_11  and  S_12
REMARK    8  A    between atoms: S_12  and  C_13
REMARK    9  A    between atoms: C_21  and  O_22
REMARK                            x       y       z     vdW  Elec       q    Type
REMARK                         _______ _______ _______ _____ _____    ______ ____
ROOT
ATOM      1  N   UNL     1      47.177   3.880  14.962  0.00  0.00    +0.000 N 
ATOM      2  H   UNL     1      46.700   2.991  14.772  0.00  0.00    +0.000 HD
ENDROOT
BRANCH   1   3
ATOM      3  C   UNL     1      46.581   4.911  14.207  0.00  0.00    +0.000 A 
ATOM      4  C   UNL     1      47.324   5.978  13.694  0.00  0.00    +0.000 A 
ATOM      5  C   UNL     1      46.743   6.916  12.847  0.00  0.00    +0.000 A 
ATOM      6  C   UNL     1      45.403   6.789  12.470  0.00  0.00    +0.000 A 
ATOM      7 CL   UNL     1      44.831   7.909  11.283  0.00  0.00    +0.000 Cl
ATOM      8  C   UNL     1      44.614   5.737  12.973  0.00  0.00    +0.000 A 
ATOM      9  C   UNL     1      45.237   4.789  13.809  0.00  0.00    +0.000 A 
BRANCH   8  10
ATOM     10  S   UNL     1      42.974   5.343  12.377  0.00  0.00    +0.000 S 
BRANCH  10  11
ATOM     11  C   UNL     1      43.159   4.210  10.974  0.00  0.00    +0.000 C 
ATOM     12  C   UNL     1      43.533   2.776  11.332  0.00  0.00    +0.000 C 
ATOM     13  O   UNL     1      44.584   2.761  10.332  0.00  0.00    +0.000 OA
ATOM     14  C   UNL     1      44.424   4.192  10.124  0.00  0.00    +0.000 C 
ENDBRANCH  10  11
ENDBRANCH   8  10
ENDBRANCH   1   3
BRANCH   1  15
ATOM     15  C   UNL     1      47.223   4.123  16.413  0.00  0.00    +0.000 C 
BRANCH  15  17
ATOM     16  C   UNL     1      48.123   3.181  18.572  0.00  0.00    +0.000 C 
ATOM     17  C   UNL     1      48.470   3.512  17.107  0.00  0.00    +0.000 C 
ATOM     18  C   UNL     1      48.776   2.197  16.352  0.00  0.00    +0.000 C 
BRANCH  17  19
ATOM     19  C   UNL     1      49.684   4.433  17.017  0.00  0.00    +0.000 A 
ATOM     20  C   UNL     1      50.893   4.129  17.640  0.00  0.00    +0.000 A 
ATOM     21  C   UNL     1      51.967   4.997  17.487  0.00  0.00    +0.000 A 
ATOM     22  C   UNL     1      51.793   6.129  16.730  0.00  0.00    +0.000 A 
ATOM     23  N   UNL     1      50.619   6.422  16.143  0.00  0.00    +0.000 NA
ATOM     24  N   UNL     1      49.568   5.563  16.288  0.00  0.00    +0.000 NA
BRANCH  22  25
ATOM     25  O   UNL     1      52.795   7.026  16.521  0.00  0.00    +0.000 OA
ATOM     26  H   UNL     1      53.639   6.564  16.663  0.00  0.00    +0.000 HD
ENDBRANCH  22  25
ENDBRANCH  17  19
ENDBRANCH  15  17
ENDBRANCH   1  15
TORSDOF 7
ENDMDL
