MODEL 1
REMARK VINA RESULT:    -8.518      0.000      0.000
REMARK INTER + INTRA:         -12.875
REMARK INTER:                 -12.004
REMARK INTRA:                  -0.871
REMARK UNBOUND:                -0.871
REMARK  Name = 
REMARK  8 active torsions:
REMARK  status: ('A' for Active; 'I' for Inactive)
REMARK    1  A    between atoms: C_1  and  C_2
REMARK    2  A    between atoms: C_5  and  C_6
REMARK    3  A    between atoms: C_6  and  N_7
REMARK    4  A    between atoms: N_7  and  C_8
REMARK    5  A    between atoms: C_8  and  C_9
REMARK    6  A    between atoms: C_12  and  C_13
REMARK    7  A    between atoms: C_13  and  N_14
REMARK    8  A    between atoms: C_15  and  C_17
REMARK                            x       y       z     vdW  Elec       q    Type
REMARK                         _______ _______ _______ _____ _____    ______ ____
ROOT
ATOM      1  C   UNL     1      44.606   5.441  11.752  0.00  0.00    +0.000 A 
ATOM      2  C   UNL     1      44.902   4.876  13.001  0.00  0.00    +0.000 A 
ATOM      3  C   UNL     1      46.083   5.201  13.676  0.00  0.00    +0.000 A 
ATOM      4  C   UNL     1      46.999   6.098  13.112  0.00  0.00    +0.000 A 
ATOM      5  C   UNL     1      46.728   6.627  11.843  0.00  0.00    +0.000 A 
ATOM      6  C   UNL     1      45.540   6.310  11.174  0.00  0.00    +0.000 A 
ENDROOT
BRANCH   1   7
ATOM      7  C   UNL     1      43.304   5.119  11.049  0.00  0.00    +0.000 C 
BRANCH   7   8
ATOM      8  N   UNL     1      43.551   4.530   9.739  0.00  0.00    +0.000 NA
ATOM      9  H   UNL     1      42.676   4.425   9.227  0.00  0.00    +0.000 HD
BRANCH   8  10
ATOM     10  C   UNL     1      44.161   3.193   9.834  0.00  0.00    +0.000 C 
BRANCH  10  15
ATOM     11  C   UNL     1      48.013   2.263   5.694  0.00  0.00    +0.000 C 
ATOM     12  C   UNL     1      47.024   2.516   6.778  0.00  0.00    +0.000 A 
ATOM     13  C   UNL     1      46.433   3.744   6.983  0.00  0.00    +0.000 A 
ATOM     14  N   UNL     1      45.539   3.998   7.956  0.00  0.00    +0.000 NA
ATOM     15  C   UNL     1      45.211   2.962   8.754  0.00  0.00    +0.000 A 
ATOM     16  N   UNL     1      45.738   1.719   8.651  0.00  0.00    +0.000 NA
ATOM     17  C   UNL     1      46.628   1.529   7.657  0.00  0.00    +0.000 A 
ENDBRANCH  10  15
ENDBRANCH   8  10
ENDBRANCH   7   8
ENDBRANCH   1   7
BRANCH   4  18
ATOM     18  C   UNL     1      48.270   6.462  13.834  0.00  0.00    +0.000 C 
BRANCH  18  19
ATOM     19  N   UNL     1      48.027   6.662  15.238  0.00  0.00    +0.000 N 
ATOM     20  C   UNL     1      49.017   6.495  16.172  0.00  0.00    +0.000 C 
ATOM     21  O   UNL     1      50.168   6.206  15.859  0.00  0.00    +0.000 OA
ATOM     22  H   UNL     1      47.056   6.661  15.536  0.00  0.00    +0.000 HD
BRANCH  20  23
ATOM     23  C   UNL     1      48.638   6.747  17.570  0.00  0.00    +0.000 A 
ATOM     24  C   UNL     1      48.273   8.026  17.965  0.00  0.00    +0.000 A 
ATOM     25  S   UNL     1      47.819   8.130  19.606  0.00  0.00    +0.000 S 
ATOM     26  C   UNL     1      48.147   6.479  19.858  0.00  0.00    +0.000 A 
ATOM     27  N   UNL     1      47.988   5.913  21.084  0.00  0.00    +0.000 NA
ATOM     28  C   UNL     1      48.302   4.660  21.139  0.00  0.00    +0.000 A 
ATOM     29  N   UNL     1      48.749   3.923  20.076  0.00  0.00    +0.000 N 
ATOM     30  C   UNL     1      48.898   4.444  18.812  0.00  0.00    +0.000 A 
ATOM     31  O   UNL     1      49.264   3.744  17.875  0.00  0.00    +0.000 OA
ATOM     32  C   UNL     1      48.576   5.854  18.701  0.00  0.00    +0.000 A 
ATOM     33  H   UNL     1      48.968   2.941  20.179  0.00  0.00    +0.000 HD
ENDBRANCH  20  23
ENDBRANCH  18  19
ENDBRANCH   4  18
TORSDOF 7
ENDMDL
MODEL 2
REMARK VINA RESULT:    -8.154      1.478      2.277
REMARK INTER + INTRA:         -12.363
REMARK INTER:                 -11.437
REMARK INTRA:                  -0.925
REMARK UNBOUND:                -0.871
REMARK  Name = 
REMARK  8 active torsions:
REMARK  status: ('A' for Active; 'I' for Inactive)
REMARK    1  A    between atoms: C_1  and  C_2
REMARK    2  A    between atoms: C_5  and  C_6
REMARK    3  A    between atoms: C_6  and  N_7
REMARK    4  A    between atoms: N_7  and  C_8
REMARK    5  A    between atoms: C_8  and  C_9
REMARK    6  A    between atoms: C_12  and  C_13
REMARK    7  A    between atoms: C_13  and  N_14
REMARK    8  A    between atoms: C_15  and  C_17
REMARK                            x       y       z     vdW  Elec       q    Type
REMARK                         _______ _______ _______ _____ _____    ______ ____
ROOT
ATOM      1  C   UNL     1      44.684   5.722  11.893  0.00  0.00    +0.000 A 
ATOM      2  C   UNL     1      45.032   4.941  13.005  0.00  0.00    +0.000 A 
ATOM      3  C   UNL     1      46.204   5.197  13.724  0.00  0.00    +0.000 A 
ATOM      4  C   UNL     1      47.057   6.240  13.344  0.00  0.00    +0.000 A 
ATOM      5  C   UNL     1      46.736   6.990  12.204  0.00  0.00    +0.000 A 
ATOM      6  C   UNL     1      45.557   6.741  11.492  0.00  0.00    +0.000 A 
ENDROOT
BRANCH   1   7
ATOM      7  C   UNL     1      43.390   5.468  11.147  0.00  0.00    +0.000 C 
BRANCH   7   8
ATOM      8  N   UNL     1      43.651   4.870   9.843  0.00  0.00    +0.000 NA
ATOM      9  H   UNL     1      42.800   4.863   9.281  0.00  0.00    +0.000 HD
BRANCH   8  10
ATOM     10  C   UNL     1      44.112   3.476   9.950  0.00  0.00    +0.000 C 
BRANCH  10  15
ATOM     11  C   UNL     1      47.967   2.148   5.923  0.00  0.00    +0.000 C 
ATOM     12  C   UNL     1      46.978   2.503   6.977  0.00  0.00    +0.000 A 
ATOM     13  C   UNL     1      46.503   3.784   7.159  0.00  0.00    +0.000 A 
ATOM     14  N   UNL     1      45.611   4.130   8.107  0.00  0.00    +0.000 NA
ATOM     15  C   UNL     1      45.164   3.137   8.900  0.00  0.00    +0.000 A 
ATOM     16  N   UNL     1      45.572   1.848   8.818  0.00  0.00    +0.000 NA
ATOM     17  C   UNL     1      46.466   1.566   7.850  0.00  0.00    +0.000 A 
ENDBRANCH  10  15
ENDBRANCH   8  10
ENDBRANCH   7   8
ENDBRANCH   1   7
BRANCH   4  18
ATOM     18  C   UNL     1      48.318   6.529  14.117  0.00  0.00    +0.000 C 
BRANCH  18  19
ATOM     19  N   UNL     1      48.030   6.749  15.509  0.00  0.00    +0.000 N 
ATOM     20  C   UNL     1      48.798   6.195  16.500  0.00  0.00    +0.000 C 
ATOM     21  O   UNL     1      49.791   5.516  16.255  0.00  0.00    +0.000 OA
ATOM     22  H   UNL     1      47.101   7.093  15.732  0.00  0.00    +0.000 HD
BRANCH  20  23
ATOM     23  C   UNL     1      48.404   6.513  17.880  0.00  0.00    +0.000 A 
ATOM     24  C   UNL     1      48.320   5.498  18.823  0.00  0.00    +0.000 A 
ATOM     25  S   UNL     1      47.896   6.049  20.381  0.00  0.00    +0.000 S 
ATOM     26  C   UNL     1      47.759   7.656  19.836  0.00  0.00    +0.000 A 
ATOM     27  N   UNL     1      47.391   8.654  20.683  0.00  0.00    +0.000 NA
ATOM     28  C   UNL     1      47.298   9.818  20.129  0.00  0.00    +0.000 A 
ATOM     29  N   UNL     1      47.548  10.073  18.808  0.00  0.00    +0.000 N 
ATOM     30  C   UNL     1      47.950   9.102  17.920  0.00  0.00    +0.000 A 
ATOM     31  O   UNL     1      48.203   9.375  16.753  0.00  0.00    +0.000 OA
ATOM     32  C   UNL     1      48.053   7.772  18.490  0.00  0.00    +0.000 A 
ATOM     33  H   UNL     1      47.469  11.009  18.435  0.00  0.00    +0.000 HD
ENDBRANCH  20  23
ENDBRANCH  18  19
ENDBRANCH   4  18
TORSDOF 7
ENDMDL
MODEL 3
REMARK VINA RESULT:    -7.925      2.131      2.396
REMARK INTER + INTRA:         -12.040
REMARK INTER:                 -11.047
REMARK INTRA:                  -0.994
REMARK UNBOUND:                -0.871
REMARK  Name = 
REMARK  8 active torsions:
REMARK  status: ('A' for Active; 'I' for Inactive)
REMARK    1  A    between atoms: C_1  and  C_2
REMARK    2  A    between atoms: C_5  and  C_6
REMARK    3  A    between atoms: C_6  and  N_7
REMARK    4  A    between atoms: N_7  and  C_8
REMARK    5  A    between atoms: C_8  and  C_9
REMARK    6  A    between atoms: C_12  and  C_13
REMARK    7  A    between atoms: C_13  and  N_14
REMARK    8  A    between atoms: C_15  and  C_17
REMARK                            x       y       z     vdW  Elec       q    Type
REMARK                         _______ _______ _______ _____ _____    ______ ____
ROOT
ATOM      1  C   UNL     1      44.376   5.900  11.670  0.00  0.00    +0.000 A 
ATOM      2  C   UNL     1      45.320   5.239  12.470  0.00  0.00    +0.000 A 
ATOM      3  C   UNL     1      46.345   5.946  13.106  0.00  0.00    +0.000 A 
ATOM      4  C   UNL     1      46.451   7.334  12.953  0.00  0.00    +0.000 A 
ATOM      5  C   UNL     1      45.538   7.990  12.117  0.00  0.00    +0.000 A 
ATOM      6  C   UNL     1      44.505   7.284  11.490  0.00  0.00    +0.000 A 
ENDROOT
BRANCH   1   7
ATOM      7  C   UNL     1      43.242   5.133  11.023  0.00  0.00    +0.000 C 
BRANCH   7   8
ATOM      8  N   UNL     1      43.644   4.612   9.722  0.00  0.00    +0.000 NA
ATOM      9  H   UNL     1      42.842   4.576   9.092  0.00  0.00    +0.000 HD
BRANCH   8  10
ATOM     10  C   UNL     1      44.186   3.246   9.811  0.00  0.00    +0.000 C 
BRANCH  10  15
ATOM     11  C   UNL     1      48.074   2.210   5.730  0.00  0.00    +0.000 C 
ATOM     12  C   UNL     1      47.052   2.468   6.782  0.00  0.00    +0.000 A 
ATOM     13  C   UNL     1      46.637   1.504   7.676  0.00  0.00    +0.000 A 
ATOM     14  N   UNL     1      45.714   1.713   8.634  0.00  0.00    +0.000 NA
ATOM     15  C   UNL     1      45.194   2.954   8.706  0.00  0.00    +0.000 A 
ATOM     16  N   UNL     1      45.520   3.970   7.872  0.00  0.00    +0.000 NA
ATOM     17  C   UNL     1      46.448   3.698   6.935  0.00  0.00    +0.000 A 
ENDBRANCH  10  15
ENDBRANCH   8  10
ENDBRANCH   7   8
ENDBRANCH   1   7
BRANCH   4  18
ATOM     18  C   UNL     1      47.546   8.107  13.641  0.00  0.00    +0.000 C 
BRANCH  18  19
ATOM     19  N   UNL     1      48.409   7.228  14.385  0.00  0.00    +0.000 N 
ATOM     20  C   UNL     1      48.895   7.571  15.620  0.00  0.00    +0.000 C 
ATOM     21  O   UNL     1      48.592   8.625  16.172  0.00  0.00    +0.000 OA
ATOM     22  H   UNL     1      48.858   6.482  13.862  0.00  0.00    +0.000 HD
BRANCH  20  23
ATOM     23  C   UNL     1      49.752   6.575  16.279  0.00  0.00    +0.000 A 
ATOM     24  C   UNL     1      51.079   6.879  16.548  0.00  0.00    +0.000 A 
ATOM     25  S   UNL     1      51.914   5.630  17.356  0.00  0.00    +0.000 S 
ATOM     26  C   UNL     1      50.545   4.620  17.327  0.00  0.00    +0.000 A 
ATOM     27  N   UNL     1      50.590   3.364  17.846  0.00  0.00    +0.000 NA
ATOM     28  C   UNL     1      49.488   2.698  17.730  0.00  0.00    +0.000 A 
ATOM     29  N   UNL     1      48.346   3.179  17.150  0.00  0.00    +0.000 N 
ATOM     30  C   UNL     1      48.243   4.452  16.637  0.00  0.00    +0.000 A 
ATOM     31  O   UNL     1      47.192   4.862  16.161  0.00  0.00    +0.000 OA
ATOM     32  C   UNL     1      49.461   5.236  16.728  0.00  0.00    +0.000 A 
ATOM     33  H   UNL     1      47.509   2.613  17.099  0.00  0.00    +0.000 HD
ENDBRANCH  20  23
ENDBRANCH  18  19
ENDBRANCH   4  18
TORSDOF 7
ENDMDL
MODEL 4
REMARK VINA RESULT:    -7.424      5.219      9.696
REMARK INTER + INTRA:         -11.334
REMARK INTER:                 -10.336
REMARK INTRA:                  -0.998
REMARK UNBOUND:                -0.871
REMARK  Name = 
REMARK  8 active torsions:
REMARK  status: ('A' for Active; 'I' for Inactive)
REMARK    1  A    between atoms: C_1  and  C_2
REMARK    2  A    between atoms: C_5  and  C_6
REMARK    3  A    between atoms: C_6  and  N_7
REMARK    4  A    between atoms: N_7  and  C_8
REMARK    5  A    between atoms: C_8  and  C_9
REMARK    6  A    between atoms: C_12  and  C_13
REMARK    7  A    between atoms: C_13  and  N_14
REMARK    8  A    between atoms: C_15  and  C_17
REMARK                            x       y       z     vdW  Elec       q    Type
REMARK                         _______ _______ _______ _____ _____    ______ ____
ROOT
ATOM      1  C   UNL     1      50.951   2.444  17.466  0.00  0.00    +0.000 A 
ATOM      2  C   UNL     1      49.557   2.471  17.312  0.00  0.00    +0.000 A 
ATOM      3  C   UNL     1      48.874   3.682  17.152  0.00  0.00    +0.000 A 
ATOM      4  C   UNL     1      49.573   4.895  17.147  0.00  0.00    +0.000 A 
ATOM      5  C   UNL     1      50.959   4.874  17.349  0.00  0.00    +0.000 A 
ATOM      6  C   UNL     1      51.643   3.662  17.496  0.00  0.00    +0.000 A 
ENDROOT
BRANCH   1   7
ATOM      7  C   UNL     1      51.687   1.127  17.592  0.00  0.00    +0.000 C 
BRANCH   7   8
ATOM      8  N   UNL     1      52.807   1.243  18.519  0.00  0.00    +0.000 NA
ATOM      9  H   UNL     1      52.922   2.213  18.814  0.00  0.00    +0.000 HD
BRANCH   8  10
ATOM     10  C   UNL     1      54.079   0.819  17.913  0.00  0.00    +0.000 C 
BRANCH  10  15
ATOM     11  C   UNL     1      54.850  -4.832  18.473  0.00  0.00    +0.000 C 
ATOM     12  C   UNL     1      54.668  -3.362  18.327  0.00  0.00    +0.000 A 
ATOM     13  C   UNL     1      55.044  -2.668  17.198  0.00  0.00    +0.000 A 
ATOM     14  N   UNL     1      54.892  -1.339  17.044  0.00  0.00    +0.000 NA
ATOM     15  C   UNL     1      54.319  -0.678  18.070  0.00  0.00    +0.000 A 
ATOM     16  N   UNL     1      53.924  -1.257  19.228  0.00  0.00    +0.000 NA
ATOM     17  C   UNL     1      54.104  -2.589  19.321  0.00  0.00    +0.000 A 
ENDBRANCH  10  15
ENDBRANCH   8  10
ENDBRANCH   7   8
ENDBRANCH   1   7
BRANCH   4  18
ATOM     18  C   UNL     1      48.848   6.204  16.968  0.00  0.00    +0.000 C 
BRANCH  18  19
ATOM     19  N   UNL     1      47.912   6.130  15.877  0.00  0.00    +0.000 N 
ATOM     20  C   UNL     1      48.284   6.410  14.588  0.00  0.00    +0.000 C 
ATOM     21  O   UNL     1      49.439   6.699  14.289  0.00  0.00    +0.000 OA
ATOM     22  H   UNL     1      46.927   6.133  16.124  0.00  0.00    +0.000 HD
BRANCH  20  23
ATOM     23  C   UNL     1      47.234   6.281  13.568  0.00  0.00    +0.000 A 
ATOM     24  C   UNL     1      46.765   7.412  12.915  0.00  0.00    +0.000 A 
ATOM     25  S   UNL     1      45.583   7.076  11.732  0.00  0.00    +0.000 S 
ATOM     26  C   UNL     1      45.619   5.412  12.088  0.00  0.00    +0.000 A 
ATOM     27  N   UNL     1      44.807   4.538  11.435  0.00  0.00    +0.000 NA
ATOM     28  C   UNL     1      44.918   3.311  11.827  0.00  0.00    +0.000 A 
ATOM     29  N   UNL     1      45.774   2.882  12.805  0.00  0.00    +0.000 N 
ATOM     30  C   UNL     1      46.633   3.722  13.473  0.00  0.00    +0.000 A 
ATOM     31  O   UNL     1      47.413   3.296  14.315  0.00  0.00    +0.000 OA
ATOM     32  C   UNL     1      46.535   5.116  13.081  0.00  0.00    +0.000 A 
ATOM     33  H   UNL     1      45.823   1.904  13.060  0.00  0.00    +0.000 HD
ENDBRANCH  20  23
ENDBRANCH  18  19
ENDBRANCH   4  18
TORSDOF 7
ENDMDL
MODEL 5
REMARK VINA RESULT:    -7.340      4.713      5.896
REMARK INTER + INTRA:         -11.215
REMARK INTER:                 -10.159
REMARK INTRA:                  -1.056
REMARK UNBOUND:                -0.871
REMARK  Name = 
REMARK  8 active torsions:
REMARK  status: ('A' for Active; 'I' for Inactive)
REMARK    1  A    between atoms: C_1  and  C_2
REMARK    2  A    between atoms: C_5  and  C_6
REMARK    3  A    between atoms: C_6  and  N_7
REMARK    4  A    between atoms: N_7  and  C_8
REMARK    5  A    between atoms: C_8  and  C_9
REMARK    6  A    between atoms: C_12  and  C_13
REMARK    7  A    between atoms: C_13  and  N_14
REMARK    8  A    between atoms: C_15  and  C_17
REMARK                            x       y       z     vdW  Elec       q    Type
REMARK                         _______ _______ _______ _____ _____    ______ ____
ROOT
ATOM      1  C   UNL     1      44.887   5.022  12.394  0.00  0.00    +0.000 A 
ATOM      2  C   UNL     1      44.137   5.991  11.710  0.00  0.00    +0.000 A 
ATOM      3  C   UNL     1      44.517   7.337  11.725  0.00  0.00    +0.000 A 
ATOM      4  C   UNL     1      45.655   7.746  12.431  0.00  0.00    +0.000 A 
ATOM      5  C   UNL     1      46.378   6.788  13.155  0.00  0.00    +0.000 A 
ATOM      6  C   UNL     1      46.005   5.439  13.129  0.00  0.00    +0.000 A 
ENDROOT
BRANCH   1   7
ATOM      7  C   UNL     1      44.496   3.561  12.334  0.00  0.00    +0.000 C 
BRANCH   7   8
ATOM      8  N   UNL     1      45.201   2.878  11.255  0.00  0.00    +0.000 NA
ATOM      9  H   UNL     1      46.117   3.301  11.108  0.00  0.00    +0.000 HD
BRANCH   8  10
ATOM     10  C   UNL     1      44.476   2.958   9.976  0.00  0.00    +0.000 C 
BRANCH  10  15
ATOM     11  C   UNL     1      47.863   2.283   5.404  0.00  0.00    +0.000 C 
ATOM     12  C   UNL     1      46.995   2.470   6.598  0.00  0.00    +0.000 A 
ATOM     13  C   UNL     1      46.358   3.659   6.884  0.00  0.00    +0.000 A 
ATOM     14  N   UNL     1      45.571   3.853   7.958  0.00  0.00    +0.000 NA
ATOM     15  C   UNL     1      45.403   2.796   8.778  0.00  0.00    +0.000 A 
ATOM     16  N   UNL     1      45.990   1.589   8.601  0.00  0.00    +0.000 NA
ATOM     17  C   UNL     1      46.767   1.458   7.508  0.00  0.00    +0.000 A 
ENDBRANCH  10  15
ENDBRANCH   8  10
ENDBRANCH   7   8
ENDBRANCH   1   7
BRANCH   4  18
ATOM     18  C   UNL     1      46.076   9.192  12.448  0.00  0.00    +0.000 C 
BRANCH  18  19
ATOM     19  N   UNL     1      47.346   9.368  11.794  0.00  0.00    +0.000 N 
ATOM     20  C   UNL     1      48.378  10.042  12.393  0.00  0.00    +0.000 C 
ATOM     21  O   UNL     1      48.289  10.497  13.530  0.00  0.00    +0.000 OA
ATOM     22  H   UNL     1      47.363   9.220  10.790  0.00  0.00    +0.000 HD
BRANCH  20  23
ATOM     23  C   UNL     1      49.625  10.135  11.622  0.00  0.00    +0.000 A 
ATOM     24  C   UNL     1      50.051  11.367  11.146  0.00  0.00    +0.000 A 
ATOM     25  S   UNL     1      51.539  11.300  10.314  0.00  0.00    +0.000 S 
ATOM     26  C   UNL     1      51.639   9.614  10.516  0.00  0.00    +0.000 A 
ATOM     27  N   UNL     1      52.683   8.908  10.004  0.00  0.00    +0.000 NA
ATOM     28  C   UNL     1      52.616   7.633  10.206  0.00  0.00    +0.000 A 
ATOM     29  N   UNL     1      51.605   7.004  10.881  0.00  0.00    +0.000 N 
ATOM     30  C   UNL     1      50.544   7.678  11.440  0.00  0.00    +0.000 A 
ATOM     31  O   UNL     1      49.677   7.086  12.072  0.00  0.00    +0.000 OA
ATOM     32  C   UNL     1      50.563   9.113  11.226  0.00  0.00    +0.000 A 
ATOM     33  H   UNL     1      51.614   6.002  11.017  0.00  0.00    +0.000 HD
ENDBRANCH  20  23
ENDBRANCH  18  19
ENDBRANCH   4  18
TORSDOF 7
ENDMDL
MODEL 6
REMARK VINA RESULT:    -7.205      3.509      8.531
REMARK INTER + INTRA:         -11.025
REMARK INTER:                  -9.680
REMARK INTRA:                  -1.345
REMARK UNBOUND:                -0.871
REMARK  Name = 
REMARK  8 active torsions:
REMARK  status: ('A' for Active; 'I' for Inactive)
REMARK    1  A    between atoms: C_1  and  C_2
REMARK    2  A    between atoms: C_5  and  C_6
REMARK    3  A    between atoms: C_6  and  N_7
REMARK    4  A    between atoms: N_7  and  C_8
REMARK    5  A    between atoms: C_8  and  C_9
REMARK    6  A    between atoms: C_12  and  C_13
REMARK    7  A    between atoms: C_13  and  N_14
REMARK    8  A    between atoms: C_15  and  C_17
REMARK                            x       y       z     vdW  Elec       q    Type
REMARK                         _______ _______ _______ _____ _____    ______ ____
ROOT
ATOM      1  C   UNL     1      48.604   7.935  16.348  0.00  0.00    +0.000 A 
ATOM      2  C   UNL     1      48.266   9.135  15.706  0.00  0.00    +0.000 A 
ATOM      3  C   UNL     1      48.190   9.208  14.311  0.00  0.00    +0.000 A 
ATOM      4  C   UNL     1      48.456   8.080  13.526  0.00  0.00    +0.000 A 
ATOM      5  C   UNL     1      48.842   6.892  14.163  0.00  0.00    +0.000 A 
ATOM      6  C   UNL     1      48.905   6.817  15.559  0.00  0.00    +0.000 A 
ENDROOT
BRANCH   1   7
ATOM      7  C   UNL     1      48.638   7.852  17.860  0.00  0.00    +0.000 C 
BRANCH   7   8
ATOM      8  N   UNL     1      47.314   7.557  18.394  0.00  0.00    +0.000 NA
ATOM      9  H   UNL     1      46.975   8.340  18.953  0.00  0.00    +0.000 HD
BRANCH   8  10
ATOM     10  C   UNL     1      47.316   6.370  19.266  0.00  0.00    +0.000 C 
BRANCH  10  15
ATOM     11  C   UNL     1      49.288   1.784  16.454  0.00  0.00    +0.000 C 
ATOM     12  C   UNL     1      48.777   2.966  17.200  0.00  0.00    +0.000 A 
ATOM     13  C   UNL     1      49.528   3.647  18.134  0.00  0.00    +0.000 A 
ATOM     14  N   UNL     1      49.087   4.716  18.822  0.00  0.00    +0.000 NA
ATOM     15  C   UNL     1      47.834   5.130  18.548  0.00  0.00    +0.000 A 
ATOM     16  N   UNL     1      47.005   4.529  17.661  0.00  0.00    +0.000 NA
ATOM     17  C   UNL     1      47.505   3.464  17.005  0.00  0.00    +0.000 A 
ENDBRANCH  10  15
ENDBRANCH   8  10
ENDBRANCH   7   8
ENDBRANCH   1   7
BRANCH   4  18
ATOM     18  C   UNL     1      48.370   8.146  12.024  0.00  0.00    +0.000 C 
BRANCH  18  19
ATOM     19  N   UNL     1      47.646   7.019  11.498  0.00  0.00    +0.000 N 
ATOM     20  C   UNL     1      46.279   7.028  11.390  0.00  0.00    +0.000 C 
ATOM     21  O   UNL     1      45.605   8.008  11.697  0.00  0.00    +0.000 OA
ATOM     22  H   UNL     1      48.142   6.134  11.468  0.00  0.00    +0.000 HD
BRANCH  20  23
ATOM     23  C   UNL     1      45.666   5.820  10.822  0.00  0.00    +0.000 A 
ATOM     24  C   UNL     1      45.815   5.542   9.470  0.00  0.00    +0.000 A 
ATOM     25  S   UNL     1      45.080   4.079   8.990  0.00  0.00    +0.000 S 
ATOM     26  C   UNL     1      44.493   3.793  10.562  0.00  0.00    +0.000 A 
ATOM     27  N   UNL     1      43.742   2.694  10.839  0.00  0.00    +0.000 NA
ATOM     28  C   UNL     1      43.338   2.619  12.065  0.00  0.00    +0.000 A 
ATOM     29  N   UNL     1      43.627   3.538  13.037  0.00  0.00    +0.000 N 
ATOM     30  C   UNL     1      44.406   4.649  12.811  0.00  0.00    +0.000 A 
ATOM     31  O   UNL     1      44.676   5.430  13.715  0.00  0.00    +0.000 OA
ATOM     32  C   UNL     1      44.870   4.789  11.444  0.00  0.00    +0.000 A 
ATOM     33  H   UNL     1      43.291   3.418  13.983  0.00  0.00    +0.000 HD
ENDBRANCH  20  23
ENDBRANCH  18  19
ENDBRANCH   4  18
TORSDOF 7
ENDMDL
MODEL 7
REMARK VINA RESULT:    -7.158      4.813      9.719
REMARK INTER + INTRA:         -10.958
REMARK INTER:                 -10.103
REMARK INTRA:                  -0.856
REMARK UNBOUND:                -0.871
REMARK  Name = 
REMARK  8 active torsions:
REMARK  status: ('A' for Active; 'I' for Inactive)
REMARK    1  A    between atoms: C_1  and  C_2
REMARK    2  A    between atoms: C_5  and  C_6
REMARK    3  A    between atoms: C_6  and  N_7
REMARK    4  A    between atoms: N_7  and  C_8
REMARK    5  A    between atoms: C_8  and  C_9
REMARK    6  A    between atoms: C_12  and  C_13
REMARK    7  A    between atoms: C_13  and  N_14
REMARK    8  A    between atoms: C_15  and  C_17
REMARK                            x       y       z     vdW  Elec       q    Type
REMARK                         _______ _______ _______ _____ _____    ______ ____
ROOT
ATOM      1  C   UNL     1      51.343   3.647  17.948  0.00  0.00    +0.000 A 
ATOM      2  C   UNL     1      50.828   2.458  17.409  0.00  0.00    +0.000 A 
ATOM      3  C   UNL     1      49.478   2.352  17.062  0.00  0.00    +0.000 A 
ATOM      4  C   UNL     1      48.609   3.434  17.249  0.00  0.00    +0.000 A 
ATOM      5  C   UNL     1      49.110   4.606  17.831  0.00  0.00    +0.000 A 
ATOM      6  C   UNL     1      50.465   4.716  18.167  0.00  0.00    +0.000 A 
ENDROOT
BRANCH   1   7
ATOM      7  C   UNL     1      52.816   3.769  18.278  0.00  0.00    +0.000 C 
BRANCH   7   8
ATOM      8  N   UNL     1      53.170   2.909  19.401  0.00  0.00    +0.000 NA
ATOM      9  H   UNL     1      53.114   3.429  20.276  0.00  0.00    +0.000 HD
BRANCH   8  10
ATOM     10  C   UNL     1      54.542   2.387  19.293  0.00  0.00    +0.000 C 
BRANCH  10  15
ATOM     11  C   UNL     1      54.980  -2.223  15.918  0.00  0.00    +0.000 C 
ATOM     12  C   UNL     1      54.848  -1.027  16.795  0.00  0.00    +0.000 A 
ATOM     13  C   UNL     1      54.385  -1.095  18.092  0.00  0.00    +0.000 A 
ATOM     14  N   UNL     1      54.255  -0.028  18.902  0.00  0.00    +0.000 NA
ATOM     15  C   UNL     1      54.623   1.163  18.390  0.00  0.00    +0.000 A 
ATOM     16  N   UNL     1      55.078   1.346  17.128  0.00  0.00    +0.000 NA
ATOM     17  C   UNL     1      55.185   0.240  16.366  0.00  0.00    +0.000 A 
ENDBRANCH  10  15
ENDBRANCH   8  10
ENDBRANCH   7   8
ENDBRANCH   1   7
BRANCH   4  18
ATOM     18  C   UNL     1      47.155   3.333  16.871  0.00  0.00    +0.000 C 
BRANCH  18  19
ATOM     19  N   UNL     1      46.802   4.336  15.901  0.00  0.00    +0.000 N 
ATOM     20  C   UNL     1      46.900   4.101  14.554  0.00  0.00    +0.000 C 
ATOM     21  O   UNL     1      47.254   3.015  14.103  0.00  0.00    +0.000 OA
ATOM     22  H   UNL     1      46.744   5.292  16.237  0.00  0.00    +0.000 HD
BRANCH  20  23
ATOM     23  C   UNL     1      46.494   5.205  13.673  0.00  0.00    +0.000 A 
ATOM     24  C   UNL     1      47.354   6.274  13.466  0.00  0.00    +0.000 A 
ATOM     25  S   UNL     1      46.744   7.440  12.381  0.00  0.00    +0.000 S 
ATOM     26  C   UNL     1      45.286   6.583  12.191  0.00  0.00    +0.000 A 
ATOM     27  N   UNL     1      44.292   7.059  11.396  0.00  0.00    +0.000 NA
ATOM     28  C   UNL     1      43.230   6.322  11.368  0.00  0.00    +0.000 A 
ATOM     29  N   UNL     1      43.080   5.149  12.057  0.00  0.00    +0.000 N 
ATOM     30  C   UNL     1      44.067   4.613  12.851  0.00  0.00    +0.000 A 
ATOM     31  O   UNL     1      43.911   3.540  13.421  0.00  0.00    +0.000 OA
ATOM     32  C   UNL     1      45.275   5.413  12.929  0.00  0.00    +0.000 A 
ATOM     33  H   UNL     1      42.228   4.609  11.985  0.00  0.00    +0.000 HD
ENDBRANCH  20  23
ENDBRANCH  18  19
ENDBRANCH   4  18
TORSDOF 7
ENDMDL
MODEL 8
REMARK VINA RESULT:    -7.099      3.261      9.089
REMARK INTER + INTRA:         -10.875
REMARK INTER:                  -9.510
REMARK INTRA:                  -1.365
REMARK UNBOUND:                -0.871
REMARK  Name = 
REMARK  8 active torsions:
REMARK  status: ('A' for Active; 'I' for Inactive)
REMARK    1  A    between atoms: C_1  and  C_2
REMARK    2  A    between atoms: C_5  and  C_6
REMARK    3  A    between atoms: C_6  and  N_7
REMARK    4  A    between atoms: N_7  and  C_8
REMARK    5  A    between atoms: C_8  and  C_9
REMARK    6  A    between atoms: C_12  and  C_13
REMARK    7  A    between atoms: C_13  and  N_14
REMARK    8  A    between atoms: C_15  and  C_17
REMARK                            x       y       z     vdW  Elec       q    Type
REMARK                         _______ _______ _______ _____ _____    ______ ____
ROOT
ATOM      1  C   UNL     1      48.912   8.157  16.107  0.00  0.00    +0.000 A 
ATOM      2  C   UNL     1      48.257   9.212  15.454  0.00  0.00    +0.000 A 
ATOM      3  C   UNL     1      47.847   9.088  14.122  0.00  0.00    +0.000 A 
ATOM      4  C   UNL     1      48.086   7.905  13.412  0.00  0.00    +0.000 A 
ATOM      5  C   UNL     1      48.782   6.868  14.047  0.00  0.00    +0.000 A 
ATOM      6  C   UNL     1      49.182   6.988  15.383  0.00  0.00    +0.000 A 
ENDROOT
BRANCH   1   7
ATOM      7  C   UNL     1      49.312   8.281  17.562  0.00  0.00    +0.000 C 
BRANCH   7   8
ATOM      8  N   UNL     1      48.152   8.138  18.434  0.00  0.00    +0.000 NA
ATOM      9  H   UNL     1      48.027   8.980  18.996  0.00  0.00    +0.000 HD
BRANCH   8  10
ATOM     10  C   UNL     1      48.292   7.009  19.369  0.00  0.00    +0.000 C 
BRANCH  10  15
ATOM     11  C   UNL     1      48.917   2.077  16.520  0.00  0.00    +0.000 C 
ATOM     12  C   UNL     1      48.758   3.349  17.276  0.00  0.00    +0.000 A 
ATOM     13  C   UNL     1      49.797   3.958  17.946  0.00  0.00    +0.000 A 
ATOM     14  N   UNL     1      49.677   5.107  18.637  0.00  0.00    +0.000 NA
ATOM     15  C   UNL     1      48.457   5.679  18.643  0.00  0.00    +0.000 A 
ATOM     16  N   UNL     1      47.366   5.162  18.030  0.00  0.00    +0.000 NA
ATOM     17  C   UNL     1      47.550   4.011  17.356  0.00  0.00    +0.000 A 
ENDBRANCH  10  15
ENDBRANCH   8  10
ENDBRANCH   7   8
ENDBRANCH   1   7
BRANCH   4  18
ATOM     18  C   UNL     1      47.640   7.760  11.981  0.00  0.00    +0.000 C 
BRANCH  18  19
ATOM     19  N   UNL     1      46.925   6.526  11.786  0.00  0.00    +0.000 N 
ATOM     20  C   UNL     1      45.555   6.483  11.764  0.00  0.00    +0.000 C 
ATOM     21  O   UNL     1      44.867   7.495  11.870  0.00  0.00    +0.000 OA
ATOM     22  H   UNL     1      47.448   5.669  11.937  0.00  0.00    +0.000 HD
BRANCH  20  23
ATOM     23  C   UNL     1      44.951   5.163  11.541  0.00  0.00    +0.000 A 
ATOM     24  C   UNL     1      44.264   4.536  12.571  0.00  0.00    +0.000 A 
ATOM     25  S   UNL     1      43.589   3.033  12.126  0.00  0.00    +0.000 S 
ATOM     26  C   UNL     1      44.237   3.145  10.556  0.00  0.00    +0.000 A 
ATOM     27  N   UNL     1      44.048   2.150   9.649  0.00  0.00    +0.000 NA
ATOM     28  C   UNL     1      44.620   2.353   8.507  0.00  0.00    +0.000 A 
ATOM     29  N   UNL     1      45.354   3.464   8.191  0.00  0.00    +0.000 N 
ATOM     30  C   UNL     1      45.548   4.508   9.065  0.00  0.00    +0.000 A 
ATOM     31  O   UNL     1      46.178   5.505   8.734  0.00  0.00    +0.000 OA
ATOM     32  C   UNL     1      44.940   4.321  10.369  0.00  0.00    +0.000 A 
ATOM     33  H   UNL     1      45.768   3.571   7.275  0.00  0.00    +0.000 HD
ENDBRANCH  20  23
ENDBRANCH  18  19
ENDBRANCH   4  18
TORSDOF 7
ENDMDL
MODEL 9
REMARK VINA RESULT:    -6.585      3.572      9.419
REMARK INTER + INTRA:         -10.152
REMARK INTER:                  -9.000
REMARK INTRA:                  -1.152
REMARK UNBOUND:                -0.871
REMARK  Name = 
REMARK  8 active torsions:
REMARK  status: ('A' for Active; 'I' for Inactive)
REMARK    1  A    between atoms: C_1  and  C_2
REMARK    2  A    between atoms: C_5  and  C_6
REMARK    3  A    between atoms: C_6  and  N_7
REMARK    4  A    between atoms: N_7  and  C_8
REMARK    5  A    between atoms: C_8  and  C_9
REMARK    6  A    between atoms: C_12  and  C_13
REMARK    7  A    between atoms: C_13  and  N_14
REMARK    8  A    between atoms: C_15  and  C_17
REMARK                            x       y       z     vdW  Elec       q    Type
REMARK                         _______ _______ _______ _____ _____    ______ ____
ROOT
ATOM      1  C   UNL     1      50.437   8.352  13.576  0.00  0.00    +0.000 A 
ATOM      2  C   UNL     1      49.362   8.853  14.326  0.00  0.00    +0.000 A 
ATOM      3  C   UNL     1      48.056   8.813  13.827  0.00  0.00    +0.000 A 
ATOM      4  C   UNL     1      47.796   8.273  12.561  0.00  0.00    +0.000 A 
ATOM      5  C   UNL     1      48.874   7.817  11.790  0.00  0.00    +0.000 A 
ATOM      6  C   UNL     1      50.179   7.845  12.295  0.00  0.00    +0.000 A 
ENDROOT
BRANCH   1   7
ATOM      7  C   UNL     1      51.841   8.356  14.143  0.00  0.00    +0.000 C 
BRANCH   7   8
ATOM      8  N   UNL     1      51.813   8.377  15.601  0.00  0.00    +0.000 NA
ATOM      9  H   UNL     1      52.594   8.925  15.961  0.00  0.00    +0.000 HD
BRANCH   8  10
ATOM     10  C   UNL     1      51.925   7.029  16.180  0.00  0.00    +0.000 C 
BRANCH  10  15
ATOM     11  C   UNL     1      47.047   5.523  18.783  0.00  0.00    +0.000 C 
ATOM     12  C   UNL     1      48.319   5.896  18.107  0.00  0.00    +0.000 A 
ATOM     13  C   UNL     1      48.621   5.519  16.816  0.00  0.00    +0.000 A 
ATOM     14  N   UNL     1      49.765   5.843  16.184  0.00  0.00    +0.000 NA
ATOM     15  C   UNL     1      50.641   6.595  16.879  0.00  0.00    +0.000 A 
ATOM     16  N   UNL     1      50.453   7.009  18.154  0.00  0.00    +0.000 NA
ATOM     17  C   UNL     1      49.289   6.652  18.731  0.00  0.00    +0.000 A 
ENDBRANCH  10  15
ENDBRANCH   8  10
ENDBRANCH   7   8
ENDBRANCH   1   7
BRANCH   4  18
ATOM     18  C   UNL     1      46.393   8.219  12.017  0.00  0.00    +0.000 C 
BRANCH  18  19
ATOM     19  N   UNL     1      45.984   6.860  11.778  0.00  0.00    +0.000 N 
ATOM     20  C   UNL     1      44.688   6.541  11.465  0.00  0.00    +0.000 C 
ATOM     21  O   UNL     1      43.818   7.397  11.334  0.00  0.00    +0.000 OA
ATOM     22  H   UNL     1      46.610   6.132  12.111  0.00  0.00    +0.000 HD
BRANCH  20  23
ATOM     23  C   UNL     1      44.409   5.118  11.230  0.00  0.00    +0.000 A 
ATOM     24  C   UNL     1      43.663   4.400  12.154  0.00  0.00    +0.000 A 
ATOM     25  S   UNL     1      43.396   2.777  11.702  0.00  0.00    +0.000 S 
ATOM     26  C   UNL     1      44.313   2.963  10.281  0.00  0.00    +0.000 A 
ATOM     27  N   UNL     1      44.508   1.920   9.431  0.00  0.00    +0.000 NA
ATOM     28  C   UNL     1      45.249   2.195   8.408  0.00  0.00    +0.000 A 
ATOM     29  N   UNL     1      45.802   3.421   8.156  0.00  0.00    +0.000 N 
ATOM     30  C   UNL     1      45.610   4.513   8.970  0.00  0.00    +0.000 A 
ATOM     31  O   UNL     1      46.089   5.605   8.692  0.00  0.00    +0.000 OA
ATOM     32  C   UNL     1      44.798   4.251  10.144  0.00  0.00    +0.000 A 
ATOM     33  H   UNL     1      46.365   3.578   7.330  0.00  0.00    +0.000 HD
ENDBRANCH  20  23
ENDBRANCH  18  19
ENDBRANCH   4  18
TORSDOF 7
ENDMDL
