MODEL 1
REMARK VINA RESULT:    -8.156      0.000      0.000
REMARK INTER + INTRA:         -13.522
REMARK INTER:                 -11.970
REMARK INTRA:                  -1.552
REMARK UNBOUND:                -1.552
REMARK  Name = 
REMARK  9 active torsions:
REMARK  status: ('A' for Active; 'I' for Inactive)
REMARK    1  A    between atoms: C_1  and  O_2
REMARK    2  A    between atoms: O_2  and  C_3
REMARK    3  A    between atoms: C_10  and  C_11
REMARK    4  A    between atoms: N_13  and  C_14
REMARK    5  A    between atoms: C_14  and  C_15
REMARK    6  A    between atoms: C_18  and  C_19
REMARK    7  A    between atoms: C_19  and  O_20
REMARK    8  A    between atoms: O_20  and  C_21
REMARK    9  A    between atoms: C_21  and  C_22
REMARK                            x       y       z     vdW  Elec       q    Type
REMARK                         _______ _______ _______ _____ _____    ______ ____
ROOT
ATOM      1  C   UNL     1      48.442   6.699  13.485  0.00  0.00    +0.000 C 
ENDROOT
BRANCH   1   2
ATOM      2  C   UNL     1      47.164   6.222  12.849  0.00  0.00    +0.000 A 
ATOM      3  C   UNL     1      46.795   6.663  11.571  0.00  0.00    +0.000 A 
ATOM      4  C   UNL     1      45.579   6.266  11.009  0.00  0.00    +0.000 A 
ATOM      5  C   UNL     1      44.709   5.427  11.717  0.00  0.00    +0.000 A 
ATOM      6  C   UNL     1      45.078   4.984  12.993  0.00  0.00    +0.000 A 
ATOM      7  C   UNL     1      46.293   5.381  13.555  0.00  0.00    +0.000 A 
BRANCH   5   8
ATOM      8  C   UNL     1      43.408   4.980  11.097  0.00  0.00    +0.000 C 
BRANCH   8   9
ATOM      9  O   UNL     1      43.605   4.350   9.831  0.00  0.00    +0.000 OA
BRANCH   9  10
ATOM     10  C   UNL     1      44.120   3.027   9.957  0.00  0.00    +0.000 C 
BRANCH  10  11
ATOM     11  C   UNL     1      45.153   2.794   8.886  0.00  0.00    +0.000 A 
ATOM     12  C   UNL     1      45.633   3.864   8.115  0.00  0.00    +0.000 A 
ATOM     13  C   UNL     1      46.614   3.657   7.141  0.00  0.00    +0.000 A 
ATOM     14  C   UNL     1      47.123   2.379   6.930  0.00  0.00    +0.000 A 
ATOM     15  C   UNL     1      46.639   1.316   7.685  0.00  0.00    +0.000 A 
ATOM     16  F   UNL     1      47.128   0.086   7.479  0.00  0.00    +0.000 F 
ATOM     17  C   UNL     1      45.662   1.510   8.655  0.00  0.00    +0.000 A 
ENDBRANCH  10  11
ENDBRANCH   9  10
ENDBRANCH   8   9
ENDBRANCH   5   8
ENDBRANCH   1   2
BRANCH   1  20
ATOM     18  C   UNL     1      49.212   7.342  15.722  0.00  0.00    +0.000 C 
ATOM     19  O   UNL     1      50.110   8.027  15.236  0.00  0.00    +0.000 OA
ATOM     20  N   UNL     1      48.346   6.649  14.924  0.00  0.00    +0.000 N 
ATOM     21  H   UNL     1      47.640   6.050  15.332  0.00  0.00    +0.000 HD
BRANCH  18  29
ATOM     22  C   UNL     1      48.830   4.693  17.901  0.00  0.00    +0.000 A 
ATOM     23  N   UNL     1      48.671   3.870  18.958  0.00  0.00    +0.000 NA
ATOM     24  C   UNL     1      48.551   4.418  20.171  0.00  0.00    +0.000 A 
ATOM     25  N   UNL     1      48.566   5.712  20.467  0.00  0.00    +0.000 NA
ATOM     26  C   UNL     1      48.731   6.498  19.388  0.00  0.00    +0.000 A 
ATOM     27  S   UNL     1      48.769   8.182  19.585  0.00  0.00    +0.000 S 
ATOM     28  C   UNL     1      48.986   8.419  17.917  0.00  0.00    +0.000 A 
ATOM     29  C   UNL     1      49.037   7.241  17.181  0.00  0.00    +0.000 A 
ATOM     30  C   UNL     1      48.882   6.087  18.065  0.00  0.00    +0.000 A 
BRANCH  22  32
ATOM     31  C   UNL     1      47.867   3.351  16.248  0.00  0.00    +0.000 C 
ATOM     32  O   UNL     1      48.998   4.118  16.657  0.00  0.00    +0.000 OA
ENDBRANCH  22  32
ENDBRANCH  18  29
ENDBRANCH   1  20
TORSDOF 8
ENDMDL
MODEL 2
REMARK VINA RESULT:    -7.807      1.659      2.714
REMARK INTER + INTRA:         -13.010
REMARK INTER:                 -11.804
REMARK INTRA:                  -1.206
REMARK UNBOUND:                -1.552
REMARK  Name = 
REMARK  9 active torsions:
REMARK  status: ('A' for Active; 'I' for Inactive)
REMARK    1  A    between atoms: C_1  and  O_2
REMARK    2  A    between atoms: O_2  and  C_3
REMARK    3  A    between atoms: C_10  and  C_11
REMARK    4  A    between atoms: N_13  and  C_14
REMARK    5  A    between atoms: C_14  and  C_15
REMARK    6  A    between atoms: C_18  and  C_19
REMARK    7  A    between atoms: C_19  and  O_20
REMARK    8  A    between atoms: O_20  and  C_21
REMARK    9  A    between atoms: C_21  and  C_22
REMARK                            x       y       z     vdW  Elec       q    Type
REMARK                         _______ _______ _______ _____ _____    ______ ____
ROOT
ATOM      1  C   UNL     1      48.541   6.536  14.055  0.00  0.00    +0.000 C 
ENDROOT
BRANCH   1   2
ATOM      2  C   UNL     1      47.403   5.921  13.284  0.00  0.00    +0.000 A 
ATOM      3  C   UNL     1      46.869   6.568  12.162  0.00  0.00    +0.000 A 
ATOM      4  C   UNL     1      45.775   6.024  11.485  0.00  0.00    +0.000 A 
ATOM      5  C   UNL     1      45.192   4.826  11.922  0.00  0.00    +0.000 A 
ATOM      6  C   UNL     1      45.728   4.177  13.041  0.00  0.00    +0.000 A 
ATOM      7  C   UNL     1      46.822   4.722  13.718  0.00  0.00    +0.000 A 
BRANCH   5   8
ATOM      8  C   UNL     1      44.026   4.228  11.174  0.00  0.00    +0.000 C 
BRANCH   8   9
ATOM      9  O   UNL     1      44.450   3.299  10.175  0.00  0.00    +0.000 OA
BRANCH   9  10
ATOM     10  C   UNL     1      44.683   3.925   8.916  0.00  0.00    +0.000 C 
BRANCH  10  11
ATOM     11  C   UNL     1      45.653   3.091   8.121  0.00  0.00    +0.000 A 
ATOM     12  C   UNL     1      46.449   3.680   7.126  0.00  0.00    +0.000 A 
ATOM     13  C   UNL     1      47.374   2.915   6.409  0.00  0.00    +0.000 A 
ATOM     14  C   UNL     1      47.509   1.556   6.680  0.00  0.00    +0.000 A 
ATOM     15  C   UNL     1      46.712   0.970   7.657  0.00  0.00    +0.000 A 
ATOM     16  F   UNL     1      46.842  -0.338   7.914  0.00  0.00    +0.000 F 
ATOM     17  C   UNL     1      45.788   1.720   8.376  0.00  0.00    +0.000 A 
ENDBRANCH  10  11
ENDBRANCH   9  10
ENDBRANCH   8   9
ENDBRANCH   5   8
ENDBRANCH   1   2
BRANCH   1  20
ATOM     18  C   UNL     1      48.875   6.227  16.464  0.00  0.00    +0.000 C 
ATOM     19  O   UNL     1      49.863   5.524  16.255  0.00  0.00    +0.000 OA
ATOM     20  N   UNL     1      48.162   6.763  15.429  0.00  0.00    +0.000 N 
ATOM     21  H   UNL     1      47.323   7.299  15.608  0.00  0.00    +0.000 HD
BRANCH  18  29
ATOM     22  C   UNL     1      47.884   9.102  18.094  0.00  0.00    +0.000 A 
ATOM     23  N   UNL     1      47.458  10.044  18.960  0.00  0.00    +0.000 NA
ATOM     24  C   UNL     1      47.165   9.666  20.209  0.00  0.00    +0.000 A 
ATOM     25  N   UNL     1      47.251   8.440  20.712  0.00  0.00    +0.000 NA
ATOM     26  C   UNL     1      47.674   7.531  19.816  0.00  0.00    +0.000 A 
ATOM     27  S   UNL     1      47.846   5.912  20.293  0.00  0.00    +0.000 S 
ATOM     28  C   UNL     1      48.369   5.462  18.741  0.00  0.00    +0.000 A 
ATOM     29  C   UNL     1      48.423   6.515  17.835  0.00  0.00    +0.000 A 
ATOM     30  C   UNL     1      48.007   7.758  18.482  0.00  0.00    +0.000 A 
BRANCH  22  32
ATOM     31  C   UNL     1      49.228  10.412  16.702  0.00  0.00    +0.000 C 
ATOM     32  O   UNL     1      48.141   9.493  16.795  0.00  0.00    +0.000 OA
ENDBRANCH  22  32
ENDBRANCH  18  29
ENDBRANCH   1  20
TORSDOF 8
ENDMDL
MODEL 3
REMARK VINA RESULT:    -7.662      1.921      3.517
REMARK INTER + INTRA:         -12.797
REMARK INTER:                 -11.358
REMARK INTRA:                  -1.439
REMARK UNBOUND:                -1.552
REMARK  Name = 
REMARK  9 active torsions:
REMARK  status: ('A' for Active; 'I' for Inactive)
REMARK    1  A    between atoms: C_1  and  O_2
REMARK    2  A    between atoms: O_2  and  C_3
REMARK    3  A    between atoms: C_10  and  C_11
REMARK    4  A    between atoms: N_13  and  C_14
REMARK    5  A    between atoms: C_14  and  C_15
REMARK    6  A    between atoms: C_18  and  C_19
REMARK    7  A    between atoms: C_19  and  O_20
REMARK    8  A    between atoms: O_20  and  C_21
REMARK    9  A    between atoms: C_21  and  C_22
REMARK                            x       y       z     vdW  Elec       q    Type
REMARK                         _______ _______ _______ _____ _____    ______ ____
ROOT
ATOM      1  C   UNL     1      47.146   4.349  14.879  0.00  0.00    +0.000 C 
ENDROOT
BRANCH   1   2
ATOM      2  C   UNL     1      46.208   4.409  13.703  0.00  0.00    +0.000 A 
ATOM      3  C   UNL     1      45.879   3.247  12.992  0.00  0.00    +0.000 A 
ATOM      4  C   UNL     1      45.056   3.316  11.865  0.00  0.00    +0.000 A 
ATOM      5  C   UNL     1      44.553   4.548  11.426  0.00  0.00    +0.000 A 
ATOM      6  C   UNL     1      44.879   5.709  12.138  0.00  0.00    +0.000 A 
ATOM      7  C   UNL     1      45.702   5.640  13.264  0.00  0.00    +0.000 A 
BRANCH   5   8
ATOM      8  C   UNL     1      43.644   4.616  10.223  0.00  0.00    +0.000 C 
BRANCH   8   9
ATOM      9  O   UNL     1      44.125   3.816   9.142  0.00  0.00    +0.000 OA
BRANCH   9  10
ATOM     10  C   UNL     1      45.303   4.357   8.548  0.00  0.00    +0.000 C 
BRANCH  10  11
ATOM     11  C   UNL     1      46.026   3.267   7.802  0.00  0.00    +0.000 A 
ATOM     12  C   UNL     1      46.739   3.561   6.628  0.00  0.00    +0.000 A 
ATOM     13  C   UNL     1      47.438   2.558   5.951  0.00  0.00    +0.000 A 
ATOM     14  C   UNL     1      47.428   1.254   6.439  0.00  0.00    +0.000 A 
ATOM     15  C   UNL     1      46.712   0.961   7.595  0.00  0.00    +0.000 A 
ATOM     16  F   UNL     1      46.702  -0.295   8.061  0.00  0.00    +0.000 F 
ATOM     17  C   UNL     1      46.012   1.950   8.277  0.00  0.00    +0.000 A 
ENDBRANCH  10  11
ENDBRANCH   9  10
ENDBRANCH   8   9
ENDBRANCH   5   8
ENDBRANCH   1   2
BRANCH   1  20
ATOM     18  C   UNL     1      48.613   5.891  16.095  0.00  0.00    +0.000 C 
ATOM     19  O   UNL     1      49.305   4.953  16.486  0.00  0.00    +0.000 OA
ATOM     20  N   UNL     1      47.524   5.677  15.299  0.00  0.00    +0.000 N 
ATOM     21  H   UNL     1      46.931   6.449  15.021  0.00  0.00    +0.000 HD
BRANCH  18  29
ATOM     22  C   UNL     1      48.759   8.862  14.345  0.00  0.00    +0.000 A 
ATOM     23  N   UNL     1      48.886  10.137  13.924  0.00  0.00    +0.000 NA
ATOM     24  C   UNL     1      49.237  11.064  14.821  0.00  0.00    +0.000 A 
ATOM     25  N   UNL     1      49.487  10.873  16.110  0.00  0.00    +0.000 NA
ATOM     26  C   UNL     1      49.344   9.591  16.491  0.00  0.00    +0.000 A 
ATOM     27  S   UNL     1      49.630   9.167  18.108  0.00  0.00    +0.000 S 
ATOM     28  C   UNL     1      49.273   7.537  17.792  0.00  0.00    +0.000 A 
ATOM     29  C   UNL     1      48.930   7.279  16.470  0.00  0.00    +0.000 A 
ATOM     30  C   UNL     1      48.976   8.513  15.688  0.00  0.00    +0.000 A 
BRANCH  22  32
ATOM     31  C   UNL     1      49.425   7.449  12.606  0.00  0.00    +0.000 C 
ATOM     32  O   UNL     1      48.353   7.917  13.423  0.00  0.00    +0.000 OA
ENDBRANCH  22  32
ENDBRANCH  18  29
ENDBRANCH   1  20
TORSDOF 8
ENDMDL
MODEL 4
REMARK VINA RESULT:    -7.569      1.633      2.419
REMARK INTER + INTRA:         -12.662
REMARK INTER:                 -11.478
REMARK INTRA:                  -1.183
REMARK UNBOUND:                -1.552
REMARK  Name = 
REMARK  9 active torsions:
REMARK  status: ('A' for Active; 'I' for Inactive)
REMARK    1  A    between atoms: C_1  and  O_2
REMARK    2  A    between atoms: O_2  and  C_3
REMARK    3  A    between atoms: C_10  and  C_11
REMARK    4  A    between atoms: N_13  and  C_14
REMARK    5  A    between atoms: C_14  and  C_15
REMARK    6  A    between atoms: C_18  and  C_19
REMARK    7  A    between atoms: C_19  and  O_20
REMARK    8  A    between atoms: O_20  and  C_21
REMARK    9  A    between atoms: C_21  and  C_22
REMARK                            x       y       z     vdW  Elec       q    Type
REMARK                         _______ _______ _______ _____ _____    ______ ____
ROOT
ATOM      1  C   UNL     1      47.451   4.278  14.912  0.00  0.00    +0.000 C 
ENDROOT
BRANCH   1   2
ATOM      2  C   UNL     1      46.520   4.376  13.734  0.00  0.00    +0.000 A 
ATOM      3  C   UNL     1      46.051   5.621  13.297  0.00  0.00    +0.000 A 
ATOM      4  C   UNL     1      45.139   5.704  12.242  0.00  0.00    +0.000 A 
ATOM      5  C   UNL     1      44.678   4.543  11.608  0.00  0.00    +0.000 A 
ATOM      6  C   UNL     1      45.149   3.298  12.042  0.00  0.00    +0.000 A 
ATOM      7  C   UNL     1      46.060   3.215  13.098  0.00  0.00    +0.000 A 
BRANCH   5   8
ATOM      8  C   UNL     1      43.713   4.636  10.451  0.00  0.00    +0.000 C 
BRANCH   8   9
ATOM      9  O   UNL     1      44.100   3.801   9.360  0.00  0.00    +0.000 OA
BRANCH   9  10
ATOM     10  C   UNL     1      45.137   4.382   8.573  0.00  0.00    +0.000 C 
BRANCH  10  11
ATOM     11  C   UNL     1      45.905   3.287   7.881  0.00  0.00    +0.000 A 
ATOM     12  C   UNL     1      46.720   3.578   6.775  0.00  0.00    +0.000 A 
ATOM     13  C   UNL     1      47.460   2.570   6.151  0.00  0.00    +0.000 A 
ATOM     14  C   UNL     1      47.390   1.263   6.625  0.00  0.00    +0.000 A 
ATOM     15  C   UNL     1      46.574   0.972   7.713  0.00  0.00    +0.000 A 
ATOM     16  F   UNL     1      46.505  -0.287   8.166  0.00  0.00    +0.000 F 
ATOM     17  C   UNL     1      45.832   1.966   8.341  0.00  0.00    +0.000 A 
ENDBRANCH  10  11
ENDBRANCH   9  10
ENDBRANCH   8   9
ENDBRANCH   5   8
ENDBRANCH   1   2
BRANCH   1  20
ATOM     18  C   UNL     1      48.592   5.830  16.429  0.00  0.00    +0.000 C 
ATOM     19  O   UNL     1      49.480   5.006  16.634  0.00  0.00    +0.000 OA
ATOM     20  N   UNL     1      47.549   5.547  15.593  0.00  0.00    +0.000 N 
ATOM     21  H   UNL     1      46.797   6.212  15.466  0.00  0.00    +0.000 HD
BRANCH  18  29
ATOM     22  C   UNL     1      47.770   6.957  19.585  0.00  0.00    +0.000 A 
ATOM     23  N   UNL     1      47.533   7.659  20.713  0.00  0.00    +0.000 NA
ATOM     24  C   UNL     1      47.767   8.975  20.696  0.00  0.00    +0.000 A 
ATOM     25  N   UNL     1      48.211   9.694  19.672  0.00  0.00    +0.000 NA
ATOM     26  C   UNL     1      48.439   8.957  18.570  0.00  0.00    +0.000 A 
ATOM     27  S   UNL     1      49.006   9.717  17.164  0.00  0.00    +0.000 S 
ATOM     28  C   UNL     1      49.030   8.244  16.321  0.00  0.00    +0.000 A 
ATOM     29  C   UNL     1      48.616   7.153  17.076  0.00  0.00    +0.000 A 
ATOM     30  C   UNL     1      48.259   7.582  18.427  0.00  0.00    +0.000 A 
BRANCH  22  32
ATOM     31  C   UNL     1      48.693   4.885  20.148  0.00  0.00    +0.000 C 
ATOM     32  O   UNL     1      47.569   5.591  19.624  0.00  0.00    +0.000 OA
ENDBRANCH  22  32
ENDBRANCH  18  29
ENDBRANCH   1  20
TORSDOF 8
ENDMDL
MODEL 5
REMARK VINA RESULT:    -7.535      2.148      2.632
REMARK INTER + INTRA:         -12.611
REMARK INTER:                 -11.435
REMARK INTRA:                  -1.177
REMARK UNBOUND:                -1.552
REMARK  Name = 
REMARK  9 active torsions:
REMARK  status: ('A' for Active; 'I' for Inactive)
REMARK    1  A    between atoms: C_1  and  O_2
REMARK    2  A    between atoms: O_2  and  C_3
REMARK    3  A    between atoms: C_10  and  C_11
REMARK    4  A    between atoms: N_13  and  C_14
REMARK    5  A    between atoms: C_14  and  C_15
REMARK    6  A    between atoms: C_18  and  C_19
REMARK    7  A    between atoms: C_19  and  O_20
REMARK    8  A    between atoms: O_20  and  C_21
REMARK    9  A    between atoms: C_21  and  C_22
REMARK                            x       y       z     vdW  Elec       q    Type
REMARK                         _______ _______ _______ _____ _____    ______ ____
ROOT
ATOM      1  C   UNL     1      48.585   7.573  15.394  0.00  0.00    +0.000 C 
ENDROOT
BRANCH   1   2
ATOM      2  C   UNL     1      47.863   7.115  14.155  0.00  0.00    +0.000 A 
ATOM      3  C   UNL     1      47.517   8.030  13.152  0.00  0.00    +0.000 A 
ATOM      4  C   UNL     1      46.794   7.612  12.032  0.00  0.00    +0.000 A 
ATOM      5  C   UNL     1      46.400   6.274  11.898  0.00  0.00    +0.000 A 
ATOM      6  C   UNL     1      46.749   5.359  12.899  0.00  0.00    +0.000 A 
ATOM      7  C   UNL     1      47.471   5.776  14.019  0.00  0.00    +0.000 A 
BRANCH   5   8
ATOM      8  C   UNL     1      45.640   5.821  10.676  0.00  0.00    +0.000 C 
BRANCH   8   9
ATOM      9  O   UNL     1      45.289   4.438  10.744  0.00  0.00    +0.000 OA
BRANCH   9  10
ATOM     10  C   UNL     1      44.510   4.020   9.626  0.00  0.00    +0.000 C 
BRANCH  10  11
ATOM     11  C   UNL     1      45.389   3.258   8.669  0.00  0.00    +0.000 A 
ATOM     12  C   UNL     1      46.089   3.930   7.655  0.00  0.00    +0.000 A 
ATOM     13  C   UNL     1      46.930   3.230   6.786  0.00  0.00    +0.000 A 
ATOM     14  C   UNL     1      47.077   1.853   6.922  0.00  0.00    +0.000 A 
ATOM     15  C   UNL     1      46.375   1.184   7.919  0.00  0.00    +0.000 A 
ATOM     16  F   UNL     1      46.515  -0.142   8.047  0.00  0.00    +0.000 F 
ATOM     17  C   UNL     1      45.534   1.870   8.789  0.00  0.00    +0.000 A 
ENDBRANCH  10  11
ENDBRANCH   9  10
ENDBRANCH   8   9
ENDBRANCH   5   8
ENDBRANCH   1   2
BRANCH   1  20
ATOM     18  C   UNL     1      49.882   6.463  17.154  0.00  0.00    +0.000 C 
ATOM     19  O   UNL     1      49.427   7.231  17.999  0.00  0.00    +0.000 OA
ATOM     20  N   UNL     1      49.520   6.568  15.840  0.00  0.00    +0.000 N 
ATOM     21  H   UNL     1      49.936   5.964  15.143  0.00  0.00    +0.000 HD
BRANCH  18  29
ATOM     22  C   UNL     1      49.839   3.021  16.908  0.00  0.00    +0.000 A 
ATOM     23  N   UNL     1      50.091   1.696  16.932  0.00  0.00    +0.000 NA
ATOM     24  C   UNL     1      51.255   1.285  17.445  0.00  0.00    +0.000 A 
ATOM     25  N   UNL     1      52.217   2.047  17.951  0.00  0.00    +0.000 NA
ATOM     26  C   UNL     1      51.930   3.359  17.904  0.00  0.00    +0.000 A 
ATOM     27  S   UNL     1      53.049   4.478  18.514  0.00  0.00    +0.000 S 
ATOM     28  C   UNL     1      52.033   5.781  18.121  0.00  0.00    +0.000 A 
ATOM     29  C   UNL     1      50.837   5.404  17.523  0.00  0.00    +0.000 A 
ATOM     30  C   UNL     1      50.774   3.949  17.394  0.00  0.00    +0.000 A 
BRANCH  22  32
ATOM     31  C   UNL     1      47.584   3.512  17.277  0.00  0.00    +0.000 C 
ATOM     32  O   UNL     1      48.654   3.440  16.336  0.00  0.00    +0.000 OA
ENDBRANCH  22  32
ENDBRANCH  18  29
ENDBRANCH   1  20
TORSDOF 8
ENDMDL
MODEL 6
REMARK VINA RESULT:    -7.492      1.741      2.969
REMARK INTER + INTRA:         -12.548
REMARK INTER:                 -11.372
REMARK INTRA:                  -1.176
REMARK UNBOUND:                -1.552
REMARK  Name = 
REMARK  9 active torsions:
REMARK  status: ('A' for Active; 'I' for Inactive)
REMARK    1  A    between atoms: C_1  and  O_2
REMARK    2  A    between atoms: O_2  and  C_3
REMARK    3  A    between atoms: C_10  and  C_11
REMARK    4  A    between atoms: N_13  and  C_14
REMARK    5  A    between atoms: C_14  and  C_15
REMARK    6  A    between atoms: C_18  and  C_19
REMARK    7  A    between atoms: C_19  and  O_20
REMARK    8  A    between atoms: O_20  and  C_21
REMARK    9  A    between atoms: C_21  and  C_22
REMARK                            x       y       z     vdW  Elec       q    Type
REMARK                         _______ _______ _______ _____ _____    ______ ____
ROOT
ATOM      1  C   UNL     1      47.397   3.680  15.113  0.00  0.00    +0.000 C 
ENDROOT
BRANCH   1   2
ATOM      2  C   UNL     1      46.760   4.237  13.869  0.00  0.00    +0.000 A 
ATOM      3  C   UNL     1      45.889   3.453  13.101  0.00  0.00    +0.000 A 
ATOM      4  C   UNL     1      45.346   3.952  11.914  0.00  0.00    +0.000 A 
ATOM      5  C   UNL     1      45.668   5.242  11.473  0.00  0.00    +0.000 A 
ATOM      6  C   UNL     1      46.536   6.028  12.242  0.00  0.00    +0.000 A 
ATOM      7  C   UNL     1      47.079   5.528  13.428  0.00  0.00    +0.000 A 
BRANCH   5   8
ATOM      8  C   UNL     1      45.061   5.789  10.204  0.00  0.00    +0.000 C 
BRANCH   8   9
ATOM      9  O   UNL     1      45.646   5.211   9.037  0.00  0.00    +0.000 OA
BRANCH   9  10
ATOM     10  C   UNL     1      44.831   4.188   8.470  0.00  0.00    +0.000 C 
BRANCH  10  11
ATOM     11  C   UNL     1      45.714   3.132   7.860  0.00  0.00    +0.000 A 
ATOM     12  C   UNL     1      45.835   1.869   8.461  0.00  0.00    +0.000 A 
ATOM     13  C   UNL     1      46.628   0.876   7.880  0.00  0.00    +0.000 A 
ATOM     14  C   UNL     1      47.309   1.138   6.694  0.00  0.00    +0.000 A 
ATOM     15  C   UNL     1      47.199   2.393   6.104  0.00  0.00    +0.000 A 
ATOM     16  F   UNL     1      47.858   2.644   4.965  0.00  0.00    +0.000 F 
ATOM     17  C   UNL     1      46.414   3.389   6.674  0.00  0.00    +0.000 A 
ENDBRANCH  10  11
ENDBRANCH   9  10
ENDBRANCH   8   9
ENDBRANCH   5   8
ENDBRANCH   1   2
BRANCH   1  20
ATOM     18  C   UNL     1      47.477   4.618  17.377  0.00  0.00    +0.000 C 
ATOM     19  O   UNL     1      46.961   3.601  17.836  0.00  0.00    +0.000 OA
ATOM     20  N   UNL     1      47.722   4.739  16.038  0.00  0.00    +0.000 N 
ATOM     21  H   UNL     1      48.102   5.598  15.661  0.00  0.00    +0.000 HD
BRANCH  18  29
ATOM     22  C   UNL     1      49.848   7.117  17.171  0.00  0.00    +0.000 A 
ATOM     23  N   UNL     1      50.659   8.181  17.348  0.00  0.00    +0.000 NA
ATOM     24  C   UNL     1      50.509   8.910  18.459  0.00  0.00    +0.000 A 
ATOM     25  N   UNL     1      49.636   8.702  19.437  0.00  0.00    +0.000 NA
ATOM     26  C   UNL     1      48.844   7.638  19.220  0.00  0.00    +0.000 A 
ATOM     27  S   UNL     1      47.671   7.225  20.375  0.00  0.00    +0.000 S 
ATOM     28  C   UNL     1      47.153   5.902  19.444  0.00  0.00    +0.000 A 
ATOM     29  C   UNL     1      47.846   5.745  18.250  0.00  0.00    +0.000 A 
ATOM     30  C   UNL     1      48.863   6.787  18.117  0.00  0.00    +0.000 A 
BRANCH  22  32
ATOM     31  C   UNL     1      50.096   7.232  14.850  0.00  0.00    +0.000 C 
ATOM     32  O   UNL     1      49.978   6.396  16.001  0.00  0.00    +0.000 OA
ENDBRANCH  22  32
ENDBRANCH  18  29
ENDBRANCH   1  20
TORSDOF 8
ENDMDL
MODEL 7
REMARK VINA RESULT:    -7.345      1.610      2.077
REMARK INTER + INTRA:         -12.332
REMARK INTER:                 -11.168
REMARK INTRA:                  -1.164
REMARK UNBOUND:                -1.552
REMARK  Name = 
REMARK  9 active torsions:
REMARK  status: ('A' for Active; 'I' for Inactive)
REMARK    1  A    between atoms: C_1  and  O_2
REMARK    2  A    between atoms: O_2  and  C_3
REMARK    3  A    between atoms: C_10  and  C_11
REMARK    4  A    between atoms: N_13  and  C_14
REMARK    5  A    between atoms: C_14  and  C_15
REMARK    6  A    between atoms: C_18  and  C_19
REMARK    7  A    between atoms: C_19  and  O_20
REMARK    8  A    between atoms: O_20  and  C_21
REMARK    9  A    between atoms: C_21  and  C_22
REMARK                            x       y       z     vdW  Elec       q    Type
REMARK                         _______ _______ _______ _____ _____    ______ ____
ROOT
ATOM      1  C   UNL     1      47.881   8.678  13.971  0.00  0.00    +0.000 C 
ENDROOT
BRANCH   1   2
ATOM      2  C   UNL     1      47.145   7.551  13.296  0.00  0.00    +0.000 A 
ATOM      3  C   UNL     1      47.196   6.252  13.819  0.00  0.00    +0.000 A 
ATOM      4  C   UNL     1      46.562   5.198  13.158  0.00  0.00    +0.000 A 
ATOM      5  C   UNL     1      45.870   5.423  11.960  0.00  0.00    +0.000 A 
ATOM      6  C   UNL     1      45.816   6.722  11.440  0.00  0.00    +0.000 A 
ATOM      7  C   UNL     1      46.451   7.776  12.100  0.00  0.00    +0.000 A 
BRANCH   5   8
ATOM      8  C   UNL     1      45.164   4.287  11.261  0.00  0.00    +0.000 C 
BRANCH   8   9
ATOM      9  O   UNL     1      44.911   4.577   9.886  0.00  0.00    +0.000 OA
BRANCH   9  10
ATOM     10  C   UNL     1      44.376   3.457   9.184  0.00  0.00    +0.000 C 
BRANCH  10  11
ATOM     11  C   UNL     1      45.474   2.802   8.388  0.00  0.00    +0.000 A 
ATOM     12  C   UNL     1      46.350   3.578   7.611  0.00  0.00    +0.000 A 
ATOM     13  C   UNL     1      47.390   2.976   6.897  0.00  0.00    +0.000 A 
ATOM     14  C   UNL     1      47.561   1.596   6.951  0.00  0.00    +0.000 A 
ATOM     15  C   UNL     1      46.687   0.826   7.711  0.00  0.00    +0.000 A 
ATOM     16  F   UNL     1      46.852  -0.502   7.760  0.00  0.00    +0.000 F 
ATOM     17  C   UNL     1      45.648   1.413   8.425  0.00  0.00    +0.000 A 
ENDBRANCH  10  11
ENDBRANCH   9  10
ENDBRANCH   8   9
ENDBRANCH   5   8
ENDBRANCH   1   2
BRANCH   1  20
ATOM     18  C   UNL     1      48.271   9.533  16.235  0.00  0.00    +0.000 C 
ATOM     19  O   UNL     1      49.128  10.307  15.815  0.00  0.00    +0.000 OA
ATOM     20  N   UNL     1      47.610   8.689  15.388  0.00  0.00    +0.000 N 
ATOM     21  H   UNL     1      46.941   8.020  15.748  0.00  0.00    +0.000 HD
BRANCH  18  29
ATOM     22  C   UNL     1      48.115   6.990  18.564  0.00  0.00    +0.000 A 
ATOM     23  N   UNL     1      47.977   6.214  19.658  0.00  0.00    +0.000 NA
ATOM     24  C   UNL     1      47.595   6.796  20.800  0.00  0.00    +0.000 A 
ATOM     25  N   UNL     1      47.323   8.082  20.987  0.00  0.00    +0.000 NA
ATOM     26  C   UNL     1      47.478   8.821  19.875  0.00  0.00    +0.000 A 
ATOM     27  S   UNL     1      47.168  10.488  19.935  0.00  0.00    +0.000 S 
ATOM     28  C   UNL     1      47.555  10.667  18.291  0.00  0.00    +0.000 A 
ATOM     29  C   UNL     1      47.926   9.482  17.666  0.00  0.00    +0.000 A 
ATOM     30  C   UNL     1      47.878   8.374  18.617  0.00  0.00    +0.000 A 
BRANCH  22  32
ATOM     31  C   UNL     1      47.961   5.109  17.186  0.00  0.00    +0.000 C 
ATOM     32  O   UNL     1      48.553   6.390  17.400  0.00  0.00    +0.000 OA
ENDBRANCH  22  32
ENDBRANCH  18  29
ENDBRANCH   1  20
TORSDOF 8
ENDMDL
MODEL 8
REMARK VINA RESULT:    -7.250      1.892      2.287
REMARK INTER + INTRA:         -12.193
REMARK INTER:                 -10.788
REMARK INTRA:                  -1.405
REMARK UNBOUND:                -1.552
REMARK  Name = 
REMARK  9 active torsions:
REMARK  status: ('A' for Active; 'I' for Inactive)
REMARK    1  A    between atoms: C_1  and  O_2
REMARK    2  A    between atoms: O_2  and  C_3
REMARK    3  A    between atoms: C_10  and  C_11
REMARK    4  A    between atoms: N_13  and  C_14
REMARK    5  A    between atoms: C_14  and  C_15
REMARK    6  A    between atoms: C_18  and  C_19
REMARK    7  A    between atoms: C_19  and  O_20
REMARK    8  A    between atoms: O_20  and  C_21
REMARK    9  A    between atoms: C_21  and  C_22
REMARK                            x       y       z     vdW  Elec       q    Type
REMARK                         _______ _______ _______ _____ _____    ______ ____
ROOT
ATOM      1  C   UNL     1      48.320   7.563  12.823  0.00  0.00    +0.000 C 
ENDROOT
BRANCH   1   2
ATOM      2  C   UNL     1      47.266   6.511  12.605  0.00  0.00    +0.000 A 
ATOM      3  C   UNL     1      47.119   5.450  13.508  0.00  0.00    +0.000 A 
ATOM      4  C   UNL     1      46.180   4.443  13.271  0.00  0.00    +0.000 A 
ATOM      5  C   UNL     1      45.375   4.476  12.125  0.00  0.00    +0.000 A 
ATOM      6  C   UNL     1      45.519   5.539  11.224  0.00  0.00    +0.000 A 
ATOM      7  C   UNL     1      46.458   6.545  11.460  0.00  0.00    +0.000 A 
BRANCH   5   8
ATOM      8  C   UNL     1      44.345   3.401  11.884  0.00  0.00    +0.000 C 
BRANCH   8   9
ATOM      9  O   UNL     1      43.848   3.424  10.546  0.00  0.00    +0.000 OA
BRANCH   9  10
ATOM     10  C   UNL     1      44.162   2.231   9.830  0.00  0.00    +0.000 C 
BRANCH  10  11
ATOM     11  C   UNL     1      45.209   2.540   8.791  0.00  0.00    +0.000 A 
ATOM     12  C   UNL     1      45.322   3.833   8.257  0.00  0.00    +0.000 A 
ATOM     13  C   UNL     1      46.313   4.131   7.317  0.00  0.00    +0.000 A 
ATOM     14  C   UNL     1      47.197   3.138   6.902  0.00  0.00    +0.000 A 
ATOM     15  C   UNL     1      47.077   1.854   7.423  0.00  0.00    +0.000 A 
ATOM     16  F   UNL     1      47.927   0.899   7.021  0.00  0.00    +0.000 F 
ATOM     17  C   UNL     1      46.095   1.546   8.357  0.00  0.00    +0.000 A 
ENDBRANCH  10  11
ENDBRANCH   9  10
ENDBRANCH   8   9
ENDBRANCH   5   8
ENDBRANCH   1   2
BRANCH   1  20
ATOM     18  C   UNL     1      49.816   7.822  14.747  0.00  0.00    +0.000 C 
ATOM     19  O   UNL     1      49.366   8.944  14.970  0.00  0.00    +0.000 OA
ATOM     20  N   UNL     1      49.355   7.073  13.701  0.00  0.00    +0.000 N 
ATOM     21  H   UNL     1      49.765   6.171  13.495  0.00  0.00    +0.000 HD
BRANCH  18  29
ATOM     22  C   UNL     1      49.921   5.149  16.928  0.00  0.00    +0.000 A 
ATOM     23  N   UNL     1      50.244   4.184  17.814  0.00  0.00    +0.000 NA
ATOM     24  C   UNL     1      51.492   4.162  18.294  0.00  0.00    +0.000 A 
ATOM     25  N   UNL     1      52.476   5.002  17.998  0.00  0.00    +0.000 NA
ATOM     26  C   UNL     1      52.115   5.944  17.109  0.00  0.00    +0.000 A 
ATOM     27  S   UNL     1      53.251   7.105  16.621  0.00  0.00    +0.000 S 
ATOM     28  C   UNL     1      52.120   7.849  15.596  0.00  0.00    +0.000 A 
ATOM     29  C   UNL     1      50.870   7.242  15.597  0.00  0.00    +0.000 A 
ATOM     30  C   UNL     1      50.867   6.098  16.508  0.00  0.00    +0.000 A 
BRANCH  22  32
ATOM     31  C   UNL     1      47.637   5.029  17.407  0.00  0.00    +0.000 C 
ATOM     32  O   UNL     1      48.644   5.138  16.403  0.00  0.00    +0.000 OA
ENDBRANCH  22  32
ENDBRANCH  18  29
ENDBRANCH   1  20
TORSDOF 8
ENDMDL
MODEL 9
REMARK VINA RESULT:    -6.632      2.575      3.549
REMARK INTER + INTRA:         -11.285
REMARK INTER:                 -10.126
REMARK INTRA:                  -1.159
REMARK UNBOUND:                -1.552
REMARK  Name = 
REMARK  9 active torsions:
REMARK  status: ('A' for Active; 'I' for Inactive)
REMARK    1  A    between atoms: C_1  and  O_2
REMARK    2  A    between atoms: O_2  and  C_3
REMARK    3  A    between atoms: C_10  and  C_11
REMARK    4  A    between atoms: N_13  and  C_14
REMARK    5  A    between atoms: C_14  and  C_15
REMARK    6  A    between atoms: C_18  and  C_19
REMARK    7  A    between atoms: C_19  and  O_20
REMARK    8  A    between atoms: O_20  and  C_21
REMARK    9  A    between atoms: C_21  and  C_22
REMARK                            x       y       z     vdW  Elec       q    Type
REMARK                         _______ _______ _______ _____ _____    ______ ____
ROOT
ATOM      1  C   UNL     1      46.775   9.139  12.830  0.00  0.00    +0.000 C 
ENDROOT
BRANCH   1   2
ATOM      2  C   UNL     1      46.171   7.780  12.599  0.00  0.00    +0.000 A 
ATOM      3  C   UNL     1      46.708   6.645  13.222  0.00  0.00    +0.000 A 
ATOM      4  C   UNL     1      46.183   5.378  12.959  0.00  0.00    +0.000 A 
ATOM      5  C   UNL     1      45.116   5.222  12.064  0.00  0.00    +0.000 A 
ATOM      6  C   UNL     1      44.576   6.356  11.444  0.00  0.00    +0.000 A 
ATOM      7  C   UNL     1      45.102   7.623  11.706  0.00  0.00    +0.000 A 
BRANCH   5   8
ATOM      8  C   UNL     1      44.534   3.854  11.801  0.00  0.00    +0.000 C 
BRANCH   8   9
ATOM      9  O   UNL     1      43.944   3.763  10.503  0.00  0.00    +0.000 OA
BRANCH   9  10
ATOM     10  C   UNL     1      44.189   2.503   9.884  0.00  0.00    +0.000 C 
BRANCH  10  11
ATOM     11  C   UNL     1      45.253   2.668   8.830  0.00  0.00    +0.000 A 
ATOM     12  C   UNL     1      45.538   3.936   8.299  0.00  0.00    +0.000 A 
ATOM     13  C   UNL     1      46.546   4.098   7.345  0.00  0.00    +0.000 A 
ATOM     14  C   UNL     1      47.276   2.994   6.913  0.00  0.00    +0.000 A 
ATOM     15  C   UNL     1      46.986   1.736   7.430  0.00  0.00    +0.000 A 
ATOM     16  F   UNL     1      47.688   0.675   7.011  0.00  0.00    +0.000 F 
ATOM     17  C   UNL     1      45.984   1.563   8.379  0.00  0.00    +0.000 A 
ENDBRANCH  10  11
ENDBRANCH   9  10
ENDBRANCH   8   9
ENDBRANCH   5   8
ENDBRANCH   1   2
BRANCH   1  20
ATOM     18  C   UNL     1      49.210   9.002  12.585  0.00  0.00    +0.000 C 
ATOM     19  O   UNL     1      49.110   9.078  11.362  0.00  0.00    +0.000 OA
ATOM     20  N   UNL     1      48.102   9.020  13.384  0.00  0.00    +0.000 N 
ATOM     21  H   UNL     1      48.190   8.907  14.386  0.00  0.00    +0.000 HD
BRANCH  18  29
ATOM     22  C   UNL     1      50.432   7.067  15.169  0.00  0.00    +0.000 A 
ATOM     23  N   UNL     1      51.163   6.451  16.121  0.00  0.00    +0.000 NA
ATOM     24  C   UNL     1      52.445   6.803  16.256  0.00  0.00    +0.000 A 
ATOM     25  N   UNL     1      53.102   7.714  15.549  0.00  0.00    +0.000 NA
ATOM     26  C   UNL     1      52.341   8.300  14.608  0.00  0.00    +0.000 A 
ATOM     27  S   UNL     1      53.021   9.494  13.614  0.00  0.00    +0.000 S 
ATOM     28  C   UNL     1      51.554   9.706  12.785  0.00  0.00    +0.000 A 
ATOM     29  C   UNL     1      50.527   8.885  13.235  0.00  0.00    +0.000 A 
ATOM     30  C   UNL     1      50.999   8.042  14.332  0.00  0.00    +0.000 A 
BRANCH  22  32
ATOM     31  C   UNL     1      48.528   6.213  16.221  0.00  0.00    +0.000 C 
ATOM     32  O   UNL     1      49.120   6.667  15.005  0.00  0.00    +0.000 OA
ENDBRANCH  22  32
ENDBRANCH  18  29
ENDBRANCH   1  20
TORSDOF 8
ENDMDL
