MODEL 1
REMARK VINA RESULT:    -8.009      0.000      0.000
REMARK INTER + INTRA:         -10.983
REMARK INTER:                 -10.585
REMARK INTRA:                  -0.399
REMARK UNBOUND:                -0.399
REMARK  Name = 
REMARK  6 active torsions:
REMARK  status: ('A' for Active; 'I' for Inactive)
REMARK    1  A    between atoms: N_1  and  C_2
REMARK    2  A    between atoms: C_2  and  C_3
REMARK    3  A    between atoms: C_6  and  C_7
REMARK    4  A    between atoms: C_7  and  O_8
REMARK    5  A    between atoms: O_8  and  C_9
REMARK    6  A    between atoms: C_14  and  C_15
REMARK                            x       y       z     vdW  Elec       q    Type
REMARK                         _______ _______ _______ _____ _____    ______ ____
ROOT
ATOM      1  O   UNL     1      44.000   4.196  11.212  0.00  0.00    +0.000 OA
ENDROOT
BRANCH   1   2
ATOM      2  C   UNL     1      45.056   4.879  11.760  0.00  0.00    +0.000 A 
ATOM      3  C   UNL     1      45.601   6.060  11.257  0.00  0.00    +0.000 A 
ATOM      4  C   UNL     1      46.696   6.655  11.889  0.00  0.00    +0.000 A 
ATOM      5  C   UNL     1      47.256   6.086  13.038  0.00  0.00    +0.000 A 
ATOM      6 CL   UNL     1      48.645   6.889  13.683  0.00  0.00    +0.000 Cl
ATOM      7  C   UNL     1      46.706   4.914  13.569  0.00  0.00    +0.000 A 
ATOM      8  C   UNL     1      45.615   4.311  12.910  0.00  0.00    +0.000 A 
BRANCH   7   9
ATOM      9  C   UNL     1      47.203   4.222  14.790  0.00  0.00    +0.000 C 
ATOM     10  N   UNL     1      47.171   4.895  15.979  0.00  0.00    +0.000 N 
ATOM     11  O   UNL     1      47.598   3.064  14.748  0.00  0.00    +0.000 OA
ATOM     12  H   UNL     1      46.942   5.879  16.051  0.00  0.00    +0.000 HD
ATOM     13  H   UNL     1      47.564   4.435  16.790  0.00  0.00    +0.000 HD
ENDBRANCH   7   9
ENDBRANCH   1   2
BRANCH   1  14
ATOM     14  C   UNL     1      43.771   4.402   9.815  0.00  0.00    +0.000 C 
BRANCH  14  18
ATOM     15  C   UNL     1      46.630   2.238   7.601  0.00  0.00    +0.000 A 
ATOM     16  C   UNL     1      46.416   3.595   7.379  0.00  0.00    +0.000 A 
ATOM     17  N   UNL     1      45.489   4.318   8.054  0.00  0.00    +0.000 NA
ATOM     18  C   UNL     1      44.768   3.637   8.982  0.00  0.00    +0.000 A 
ATOM     19  C   UNL     1      44.982   2.280   9.204  0.00  0.00    +0.000 A 
ATOM     20  N   UNL     1      45.914   1.558   8.536  0.00  0.00    +0.000 NA
BRANCH  15  21
ATOM     21  C   UNL     1      47.702   1.494   6.846  0.00  0.00    +0.000 C 
BRANCH  21  22
ATOM     22  N   UNL     1      48.635   2.399   6.169  0.00  0.00    +0.000 NA
ATOM     23  H   UNL     1      49.256   1.847   5.580  0.00  0.00    +0.000 HD
ATOM     24  H   UNL     1      49.231   2.816   6.886  0.00  0.00    +0.000 HD
ENDBRANCH  21  22
ENDBRANCH  15  21
ENDBRANCH  14  18
ENDBRANCH   1  14
TORSDOF 6
ENDMDL
MODEL 2
REMARK VINA RESULT:    -7.471      3.031      6.226
REMARK INTER + INTRA:         -10.271
REMARK INTER:                 -10.119
REMARK INTRA:                  -0.152
REMARK UNBOUND:                -0.399
REMARK  Name = 
REMARK  6 active torsions:
REMARK  status: ('A' for Active; 'I' for Inactive)
REMARK    1  A    between atoms: N_1  and  C_2
REMARK    2  A    between atoms: C_2  and  C_3
REMARK    3  A    between atoms: C_6  and  C_7
REMARK    4  A    between atoms: C_7  and  O_8
REMARK    5  A    between atoms: O_8  and  C_9
REMARK    6  A    between atoms: C_14  and  C_15
REMARK                            x       y       z     vdW  Elec       q    Type
REMARK                         _______ _______ _______ _____ _____    ______ ____
ROOT
ATOM      1  O   UNL     1      43.846   2.389  10.776  0.00  0.00    +0.000 OA
ENDROOT
BRANCH   1   2
ATOM      2  C   UNL     1      44.527   2.740   9.638  0.00  0.00    +0.000 A 
ATOM      3  C   UNL     1      44.412   3.960   8.973  0.00  0.00    +0.000 A 
ATOM      4  C   UNL     1      45.141   4.195   7.804  0.00  0.00    +0.000 A 
ATOM      5  C   UNL     1      46.003   3.221   7.288  0.00  0.00    +0.000 A 
ATOM      6 CL   UNL     1      46.796   3.617   5.804  0.00  0.00    +0.000 Cl
ATOM      7  C   UNL     1      46.148   2.001   7.958  0.00  0.00    +0.000 A 
ATOM      8  C   UNL     1      45.391   1.767   9.124  0.00  0.00    +0.000 A 
BRANCH   7   9
ATOM      9  C   UNL     1      47.041   0.894   7.518  0.00  0.00    +0.000 C 
ATOM     10  N   UNL     1      46.622  -0.394   7.703  0.00  0.00    +0.000 N 
ATOM     11  O   UNL     1      48.110   1.120   6.967  0.00  0.00    +0.000 OA
ATOM     12  H   UNL     1      45.794  -0.634   8.234  0.00  0.00    +0.000 HD
ATOM     13  H   UNL     1      47.263  -1.137   7.452  0.00  0.00    +0.000 HD
ENDBRANCH   7   9
ENDBRANCH   1   2
BRANCH   1  14
ATOM     14  C   UNL     1      43.367   3.470  11.584  0.00  0.00    +0.000 C 
BRANCH  14  18
ATOM     15  C   UNL     1      46.570   5.444  13.479  0.00  0.00    +0.000 A 
ATOM     16  C   UNL     1      46.533   4.057  13.375  0.00  0.00    +0.000 A 
ATOM     17  N   UNL     1      45.508   3.386  12.795  0.00  0.00    +0.000 NA
ATOM     18  C   UNL     1      44.501   4.154  12.304  0.00  0.00    +0.000 A 
ATOM     19  C   UNL     1      44.538   5.541  12.408  0.00  0.00    +0.000 A 
ATOM     20  N   UNL     1      45.566   6.214  12.981  0.00  0.00    +0.000 NA
BRANCH  15  21
ATOM     21  C   UNL     1      47.754   6.138  14.103  0.00  0.00    +0.000 C 
BRANCH  21  22
ATOM     22  N   UNL     1      48.927   6.133  13.225  0.00  0.00    +0.000 NA
ATOM     23  H   UNL     1      49.708   6.562  13.719  0.00  0.00    +0.000 HD
ATOM     24  H   UNL     1      48.724   6.754  12.438  0.00  0.00    +0.000 HD
ENDBRANCH  21  22
ENDBRANCH  15  21
ENDBRANCH  14  18
ENDBRANCH   1  14
TORSDOF 6
ENDMDL
MODEL 3
REMARK VINA RESULT:    -7.222      3.179      6.622
REMARK INTER + INTRA:          -9.943
REMARK INTER:                  -9.411
REMARK INTRA:                  -0.532
REMARK UNBOUND:                -0.399
REMARK  Name = 
REMARK  6 active torsions:
REMARK  status: ('A' for Active; 'I' for Inactive)
REMARK    1  A    between atoms: N_1  and  C_2
REMARK    2  A    between atoms: C_2  and  C_3
REMARK    3  A    between atoms: C_6  and  C_7
REMARK    4  A    between atoms: C_7  and  O_8
REMARK    5  A    between atoms: O_8  and  C_9
REMARK    6  A    between atoms: C_14  and  C_15
REMARK                            x       y       z     vdW  Elec       q    Type
REMARK                         _______ _______ _______ _____ _____    ______ ____
ROOT
ATOM      1  O   UNL     1      44.303   4.966   9.268  0.00  0.00    +0.000 OA
ENDROOT
BRANCH   1   2
ATOM      2  C   UNL     1      44.820   3.752   8.894  0.00  0.00    +0.000 A 
ATOM      3  C   UNL     1      44.498   2.525   9.470  0.00  0.00    +0.000 A 
ATOM      4  C   UNL     1      45.110   1.352   9.018  0.00  0.00    +0.000 A 
ATOM      5  C   UNL     1      46.043   1.386   7.977  0.00  0.00    +0.000 A 
ATOM      6 CL   UNL     1      46.770  -0.125   7.559  0.00  0.00    +0.000 Cl
ATOM      7  C   UNL     1      46.360   2.608   7.371  0.00  0.00    +0.000 A 
ATOM      8  C   UNL     1      45.752   3.786   7.850  0.00  0.00    +0.000 A 
BRANCH   7   9
ATOM      9  C   UNL     1      47.324   2.772   6.249  0.00  0.00    +0.000 C 
ATOM     10  N   UNL     1      48.656   2.600   6.505  0.00  0.00    +0.000 N 
ATOM     11  O   UNL     1      46.942   3.017   5.113  0.00  0.00    +0.000 OA
ATOM     12  H   UNL     1      49.029   2.489   7.439  0.00  0.00    +0.000 HD
ATOM     13  H   UNL     1      49.305   2.771   5.747  0.00  0.00    +0.000 HD
ENDBRANCH   7   9
ENDBRANCH   1   2
BRANCH   1  14
ATOM     14  C   UNL     1      43.811   5.056  10.610  0.00  0.00    +0.000 C 
BRANCH  14  18
ATOM     15  C   UNL     1      46.953   6.209  13.170  0.00  0.00    +0.000 A 
ATOM     16  C   UNL     1      46.212   5.055  13.405  0.00  0.00    +0.000 A 
ATOM     17  N   UNL     1      45.179   4.665  12.618  0.00  0.00    +0.000 NA
ATOM     18  C   UNL     1      44.902   5.474  11.562  0.00  0.00    +0.000 A 
ATOM     19  C   UNL     1      45.643   6.628  11.327  0.00  0.00    +0.000 A 
ATOM     20  N   UNL     1      46.681   7.014  12.108  0.00  0.00    +0.000 NA
BRANCH  15  21
ATOM     21  C   UNL     1      48.115   6.572  14.059  0.00  0.00    +0.000 C 
BRANCH  21  22
ATOM     22  N   UNL     1      49.372   6.682  13.314  0.00  0.00    +0.000 NA
ATOM     23  H   UNL     1      50.030   7.235  13.861  0.00  0.00    +0.000 HD
ATOM     24  H   UNL     1      49.183   7.230  12.472  0.00  0.00    +0.000 HD
ENDBRANCH  21  22
ENDBRANCH  15  21
ENDBRANCH  14  18
ENDBRANCH   1  14
TORSDOF 6
ENDMDL
MODEL 4
REMARK VINA RESULT:    -7.221      1.919      2.484
REMARK INTER + INTRA:          -9.941
REMARK INTER:                  -9.424
REMARK INTRA:                  -0.517
REMARK UNBOUND:                -0.399
REMARK  Name = 
REMARK  6 active torsions:
REMARK  status: ('A' for Active; 'I' for Inactive)
REMARK    1  A    between atoms: N_1  and  C_2
REMARK    2  A    between atoms: C_2  and  C_3
REMARK    3  A    between atoms: C_6  and  C_7
REMARK    4  A    between atoms: C_7  and  O_8
REMARK    5  A    between atoms: O_8  and  C_9
REMARK    6  A    between atoms: C_14  and  C_15
REMARK                            x       y       z     vdW  Elec       q    Type
REMARK                         _______ _______ _______ _____ _____    ______ ____
ROOT
ATOM      1  O   UNL     1      43.996   4.300  11.291  0.00  0.00    +0.000 OA
ENDROOT
BRANCH   1   2
ATOM      2  C   UNL     1      44.998   4.864  12.039  0.00  0.00    +0.000 A 
ATOM      3  C   UNL     1      45.907   4.163  12.830  0.00  0.00    +0.000 A 
ATOM      4  C   UNL     1      46.873   4.851  13.570  0.00  0.00    +0.000 A 
ATOM      5  C   UNL     1      46.952   6.247  13.522  0.00  0.00    +0.000 A 
ATOM      6 CL   UNL     1      48.152   6.975  14.532  0.00  0.00    +0.000 Cl
ATOM      7  C   UNL     1      46.062   6.964  12.713  0.00  0.00    +0.000 A 
ATOM      8  C   UNL     1      45.078   6.260  11.989  0.00  0.00    +0.000 A 
BRANCH   7   9
ATOM      9  C   UNL     1      46.055   8.445  12.568  0.00  0.00    +0.000 C 
ATOM     10  N   UNL     1      44.943   9.133  12.966  0.00  0.00    +0.000 N 
ATOM     11  O   UNL     1      47.031   9.047  12.139  0.00  0.00    +0.000 OA
ATOM     12  H   UNL     1      44.080   8.679  13.237  0.00  0.00    +0.000 HD
ATOM     13  H   UNL     1      44.929  10.133  12.809  0.00  0.00    +0.000 HD
ENDBRANCH   7   9
ENDBRANCH   1   2
BRANCH   1  14
ATOM     14  C   UNL     1      43.931   4.699   9.918  0.00  0.00    +0.000 C 
BRANCH  14  18
ATOM     15  C   UNL     1      46.575   2.329   7.649  0.00  0.00    +0.000 A 
ATOM     16  C   UNL     1      46.480   3.703   7.450  0.00  0.00    +0.000 A 
ATOM     17  N   UNL     1      45.624   4.493   8.144  0.00  0.00    +0.000 NA
ATOM     18  C   UNL     1      44.852   3.863   9.066  0.00  0.00    +0.000 A 
ATOM     19  C   UNL     1      44.946   2.489   9.265  0.00  0.00    +0.000 A 
ATOM     20  N   UNL     1      45.807   1.699   8.578  0.00  0.00    +0.000 NA
BRANCH  15  21
ATOM     21  C   UNL     1      47.572   1.506   6.873  0.00  0.00    +0.000 C 
BRANCH  21  22
ATOM     22  N   UNL     1      48.453   2.334   6.046  0.00  0.00    +0.000 NA
ATOM     23  H   UNL     1      48.257   2.142   5.065  0.00  0.00    +0.000 HD
ATOM     24  H   UNL     1      49.411   2.016   6.204  0.00  0.00    +0.000 HD
ENDBRANCH  21  22
ENDBRANCH  15  21
ENDBRANCH  14  18
ENDBRANCH   1  14
TORSDOF 6
ENDMDL
MODEL 5
REMARK VINA RESULT:    -7.080      1.651      2.051
REMARK INTER + INTRA:          -9.756
REMARK INTER:                  -9.293
REMARK INTRA:                  -0.463
REMARK UNBOUND:                -0.399
REMARK  Name = 
REMARK  6 active torsions:
REMARK  status: ('A' for Active; 'I' for Inactive)
REMARK    1  A    between atoms: N_1  and  C_2
REMARK    2  A    between atoms: C_2  and  C_3
REMARK    3  A    between atoms: C_6  and  C_7
REMARK    4  A    between atoms: C_7  and  O_8
REMARK    5  A    between atoms: O_8  and  C_9
REMARK    6  A    between atoms: C_14  and  C_15
REMARK                            x       y       z     vdW  Elec       q    Type
REMARK                         _______ _______ _______ _____ _____    ______ ____
ROOT
ATOM      1  O   UNL     1      44.597   3.742  11.682  0.00  0.00    +0.000 OA
ENDROOT
BRANCH   1   2
ATOM      2  C   UNL     1      44.956   5.047  11.901  0.00  0.00    +0.000 A 
ATOM      3  C   UNL     1      44.223   6.164  11.502  0.00  0.00    +0.000 A 
ATOM      4  C   UNL     1      44.703   7.451  11.761  0.00  0.00    +0.000 A 
ATOM      5  C   UNL     1      45.916   7.641  12.432  0.00  0.00    +0.000 A 
ATOM      6 CL   UNL     1      46.423   9.282  12.632  0.00  0.00    +0.000 Cl
ATOM      7  C   UNL     1      46.651   6.531  12.862  0.00  0.00    +0.000 A 
ATOM      8  C   UNL     1      46.168   5.238  12.575  0.00  0.00    +0.000 A 
BRANCH   7   9
ATOM      9  C   UNL     1      47.945   6.604  13.595  0.00  0.00    +0.000 C 
ATOM     10  N   UNL     1      47.929   6.984  14.908  0.00  0.00    +0.000 N 
ATOM     11  O   UNL     1      49.000   6.295  13.056  0.00  0.00    +0.000 OA
ATOM     12  H   UNL     1      47.101   7.337  15.370  0.00  0.00    +0.000 HD
ATOM     13  H   UNL     1      48.820   7.085  15.378  0.00  0.00    +0.000 HD
ENDBRANCH   7   9
ENDBRANCH   1   2
BRANCH   1  14
ATOM     14  C   UNL     1      43.885   3.478  10.469  0.00  0.00    +0.000 C 
BRANCH  14  18
ATOM     15  C   UNL     1      46.440   2.773   7.193  0.00  0.00    +0.000 A 
ATOM     16  C   UNL     1      46.059   1.745   8.050  0.00  0.00    +0.000 A 
ATOM     17  N   UNL     1      45.259   1.938   9.127  0.00  0.00    +0.000 NA
ATOM     18  C   UNL     1      44.834   3.213   9.328  0.00  0.00    +0.000 A 
ATOM     19  C   UNL     1      45.215   4.241   8.472  0.00  0.00    +0.000 A 
ATOM     20  N   UNL     1      46.008   4.048   7.389  0.00  0.00    +0.000 NA
BRANCH  15  21
ATOM     21  C   UNL     1      47.302   2.492   5.989  0.00  0.00    +0.000 C 
BRANCH  21  22
ATOM     22  N   UNL     1      48.656   2.074   6.360  0.00  0.00    +0.000 NA
ATOM     23  H   UNL     1      49.199   2.901   6.603  0.00  0.00    +0.000 HD
ATOM     24  H   UNL     1      49.099   1.689   5.523  0.00  0.00    +0.000 HD
ENDBRANCH  21  22
ENDBRANCH  15  21
ENDBRANCH  14  18
ENDBRANCH   1  14
TORSDOF 6
ENDMDL
MODEL 6
REMARK VINA RESULT:    -6.509      3.519      7.684
REMARK INTER + INTRA:          -9.000
REMARK INTER:                  -8.644
REMARK INTRA:                  -0.356
REMARK UNBOUND:                -0.399
REMARK  Name = 
REMARK  6 active torsions:
REMARK  status: ('A' for Active; 'I' for Inactive)
REMARK    1  A    between atoms: N_1  and  C_2
REMARK    2  A    between atoms: C_2  and  C_3
REMARK    3  A    between atoms: C_6  and  C_7
REMARK    4  A    between atoms: C_7  and  O_8
REMARK    5  A    between atoms: O_8  and  C_9
REMARK    6  A    between atoms: C_14  and  C_15
REMARK                            x       y       z     vdW  Elec       q    Type
REMARK                         _______ _______ _______ _____ _____    ______ ____
ROOT
ATOM      1  O   UNL     1      47.537   3.096  14.614  0.00  0.00    +0.000 OA
ENDROOT
BRANCH   1   2
ATOM      2  C   UNL     1      46.791   3.893  13.784  0.00  0.00    +0.000 A 
ATOM      3  C   UNL     1      46.825   5.286  13.755  0.00  0.00    +0.000 A 
ATOM      4  C   UNL     1      45.997   5.993  12.879  0.00  0.00    +0.000 A 
ATOM      5  C   UNL     1      45.131   5.320  12.011  0.00  0.00    +0.000 A 
ATOM      6 CL   UNL     1      44.118   6.315  11.025  0.00  0.00    +0.000 Cl
ATOM      7  C   UNL     1      45.102   3.920  12.010  0.00  0.00    +0.000 A 
ATOM      8  C   UNL     1      45.926   3.219  12.914  0.00  0.00    +0.000 A 
BRANCH   7   9
ATOM      9  C   UNL     1      44.237   3.091  11.127  0.00  0.00    +0.000 C 
ATOM     10  N   UNL     1      44.810   2.459  10.060  0.00  0.00    +0.000 N 
ATOM     11  O   UNL     1      43.045   2.942  11.363  0.00  0.00    +0.000 OA
ATOM     12  H   UNL     1      45.765   2.624   9.768  0.00  0.00    +0.000 HD
ATOM     13  H   UNL     1      44.200   1.946   9.435  0.00  0.00    +0.000 HD
ENDBRANCH   7   9
ENDBRANCH   1   2
BRANCH   1  14
ATOM     14  C   UNL     1      47.540   3.455  16.000  0.00  0.00    +0.000 C 
BRANCH  14  18
ATOM     15  C   UNL     1      51.323   2.720  17.703  0.00  0.00    +0.000 A 
ATOM     16  C   UNL     1      50.682   1.765  16.920  0.00  0.00    +0.000 A 
ATOM     17  N   UNL     1      49.455   1.956  16.377  0.00  0.00    +0.000 NA
ATOM     18  C   UNL     1      48.874   3.156  16.636  0.00  0.00    +0.000 A 
ATOM     19  C   UNL     1      49.514   4.111  17.419  0.00  0.00    +0.000 A 
ATOM     20  N   UNL     1      50.744   3.924  17.957  0.00  0.00    +0.000 NA
BRANCH  15  21
ATOM     21  C   UNL     1      52.704   2.465  18.252  0.00  0.00    +0.000 C 
BRANCH  21  22
ATOM     22  N   UNL     1      52.960   1.040  18.472  0.00  0.00    +0.000 NA
ATOM     23  H   UNL     1      53.644   0.720  17.789  0.00  0.00    +0.000 HD
ATOM     24  H   UNL     1      52.098   0.536  18.257  0.00  0.00    +0.000 HD
ENDBRANCH  21  22
ENDBRANCH  15  21
ENDBRANCH  14  18
ENDBRANCH   1  14
TORSDOF 6
ENDMDL
MODEL 7
REMARK VINA RESULT:    -5.996      3.465      7.893
REMARK INTER + INTRA:          -8.323
REMARK INTER:                  -7.850
REMARK INTRA:                  -0.473
REMARK UNBOUND:                -0.399
REMARK  Name = 
REMARK  6 active torsions:
REMARK  status: ('A' for Active; 'I' for Inactive)
REMARK    1  A    between atoms: N_1  and  C_2
REMARK    2  A    between atoms: C_2  and  C_3
REMARK    3  A    between atoms: C_6  and  C_7
REMARK    4  A    between atoms: C_7  and  O_8
REMARK    5  A    between atoms: O_8  and  C_9
REMARK    6  A    between atoms: C_14  and  C_15
REMARK                            x       y       z     vdW  Elec       q    Type
REMARK                         _______ _______ _______ _____ _____    ______ ____
ROOT
ATOM      1  O   UNL     1      48.271   5.813  13.828  0.00  0.00    +0.000 OA
ENDROOT
BRANCH   1   2
ATOM      2  C   UNL     1      47.037   5.926  13.240  0.00  0.00    +0.000 A 
ATOM      3  C   UNL     1      46.400   7.124  12.923  0.00  0.00    +0.000 A 
ATOM      4  C   UNL     1      45.127   7.114  12.345  0.00  0.00    +0.000 A 
ATOM      5  C   UNL     1      44.477   5.907  12.065  0.00  0.00    +0.000 A 
ATOM      6 CL   UNL     1      42.882   6.038  11.409  0.00  0.00    +0.000 Cl
ATOM      7  C   UNL     1      45.113   4.695  12.355  0.00  0.00    +0.000 A 
ATOM      8  C   UNL     1      46.387   4.718  12.958  0.00  0.00    +0.000 A 
BRANCH   7   9
ATOM      9  C   UNL     1      44.532   3.349  12.092  0.00  0.00    +0.000 C 
ATOM     10  N   UNL     1      44.908   2.687  10.958  0.00  0.00    +0.000 N 
ATOM     11  O   UNL     1      43.764   2.823  12.887  0.00  0.00    +0.000 OA
ATOM     12  H   UNL     1      45.464   3.115  10.227  0.00  0.00    +0.000 HD
ATOM     13  H   UNL     1      44.463   1.799  10.763  0.00  0.00    +0.000 HD
ENDBRANCH   7   9
ENDBRANCH   1   2
BRANCH   1  14
ATOM     14  C   UNL     1      48.609   6.824  14.783  0.00  0.00    +0.000 C 
BRANCH  14  18
ATOM     15  C   UNL     1      49.013   5.266  18.677  0.00  0.00    +0.000 A 
ATOM     16  C   UNL     1      48.895   4.431  17.571  0.00  0.00    +0.000 A 
ATOM     17  N   UNL     1      48.739   4.896  16.307  0.00  0.00    +0.000 NA
ATOM     18  C   UNL     1      48.709   6.247  16.172  0.00  0.00    +0.000 A 
ATOM     19  C   UNL     1      48.827   7.082  17.279  0.00  0.00    +0.000 A 
ATOM     20  N   UNL     1      48.990   6.619  18.542  0.00  0.00    +0.000 NA
BRANCH  15  21
ATOM     21  C   UNL     1      49.221   4.693  20.056  0.00  0.00    +0.000 C 
BRANCH  21  22
ATOM     22  N   UNL     1      48.338   3.555  20.324  0.00  0.00    +0.000 NA
ATOM     23  H   UNL     1      48.848   2.693  20.137  0.00  0.00    +0.000 HD
ATOM     24  H   UNL     1      47.583   3.584  19.636  0.00  0.00    +0.000 HD
ENDBRANCH  21  22
ENDBRANCH  15  21
ENDBRANCH  14  18
ENDBRANCH   1  14
TORSDOF 6
ENDMDL
MODEL 8
REMARK VINA RESULT:    -5.879      4.029      7.402
REMARK INTER + INTRA:          -8.168
REMARK INTER:                  -7.900
REMARK INTRA:                  -0.267
REMARK UNBOUND:                -0.399
REMARK  Name = 
REMARK  6 active torsions:
REMARK  status: ('A' for Active; 'I' for Inactive)
REMARK    1  A    between atoms: N_1  and  C_2
REMARK    2  A    between atoms: C_2  and  C_3
REMARK    3  A    between atoms: C_6  and  C_7
REMARK    4  A    between atoms: C_7  and  O_8
REMARK    5  A    between atoms: O_8  and  C_9
REMARK    6  A    between atoms: C_14  and  C_15
REMARK                            x       y       z     vdW  Elec       q    Type
REMARK                         _______ _______ _______ _____ _____    ______ ____
ROOT
ATOM      1  O   UNL     1      47.270   5.116  14.874  0.00  0.00    +0.000 OA
ENDROOT
BRANCH   1   2
ATOM      2  C   UNL     1      46.477   4.796  13.802  0.00  0.00    +0.000 A 
ATOM      3  C   UNL     1      46.285   3.512  13.295  0.00  0.00    +0.000 A 
ATOM      4  C   UNL     1      45.469   3.310  12.178  0.00  0.00    +0.000 A 
ATOM      5  C   UNL     1      44.825   4.386  11.558  0.00  0.00    +0.000 A 
ATOM      6 CL   UNL     1      43.897   4.007  10.149  0.00  0.00    +0.000 Cl
ATOM      7  C   UNL     1      44.989   5.679  12.069  0.00  0.00    +0.000 A 
ATOM      8  C   UNL     1      45.831   5.872  13.183  0.00  0.00    +0.000 A 
BRANCH   7   9
ATOM      9  C   UNL     1      44.348   6.900  11.507  0.00  0.00    +0.000 C 
ATOM     10  N   UNL     1      43.007   6.870  11.245  0.00  0.00    +0.000 N 
ATOM     11  O   UNL     1      44.990   7.924  11.315  0.00  0.00    +0.000 OA
ATOM     12  H   UNL     1      42.453   6.024  11.298  0.00  0.00    +0.000 HD
ATOM     13  H   UNL     1      42.595   7.686  10.811  0.00  0.00    +0.000 HD
ENDBRANCH   7   9
ENDBRANCH   1   2
BRANCH   1  14
ATOM     14  C   UNL     1      47.117   4.299  16.039  0.00  0.00    +0.000 C 
BRANCH  14  18
ATOM     15  C   UNL     1      50.729   2.523  17.285  0.00  0.00    +0.000 A 
ATOM     16  C   UNL     1      50.484   3.879  17.477  0.00  0.00    +0.000 A 
ATOM     17  N   UNL     1      49.345   4.490  17.067  0.00  0.00    +0.000 NA
ATOM     18  C   UNL     1      48.434   3.692  16.453  0.00  0.00    +0.000 A 
ATOM     19  C   UNL     1      48.679   2.336  16.262  0.00  0.00    +0.000 A 
ATOM     20  N   UNL     1      49.814   1.722  16.677  0.00  0.00    +0.000 NA
BRANCH  15  21
ATOM     21  C   UNL     1      52.000   1.891  17.795  0.00  0.00    +0.000 C 
BRANCH  21  22
ATOM     22  N   UNL     1      52.250   0.580  17.190  0.00  0.00    +0.000 NA
ATOM     23  H   UNL     1      51.560   0.420  16.458  0.00  0.00    +0.000 HD
ATOM     24  H   UNL     1      52.065  -0.128  17.904  0.00  0.00    +0.000 HD
ENDBRANCH  21  22
ENDBRANCH  15  21
ENDBRANCH  14  18
ENDBRANCH   1  14
TORSDOF 6
ENDMDL
MODEL 9
REMARK VINA RESULT:    -5.873      4.030      6.080
REMARK INTER + INTRA:          -8.160
REMARK INTER:                  -7.815
REMARK INTRA:                  -0.346
REMARK UNBOUND:                -0.399
REMARK  Name = 
REMARK  6 active torsions:
REMARK  status: ('A' for Active; 'I' for Inactive)
REMARK    1  A    between atoms: N_1  and  C_2
REMARK    2  A    between atoms: C_2  and  C_3
REMARK    3  A    between atoms: C_6  and  C_7
REMARK    4  A    between atoms: C_7  and  O_8
REMARK    5  A    between atoms: O_8  and  C_9
REMARK    6  A    between atoms: C_14  and  C_15
REMARK                            x       y       z     vdW  Elec       q    Type
REMARK                         _______ _______ _______ _____ _____    ______ ____
ROOT
ATOM      1  O   UNL     1      46.750   3.658  15.824  0.00  0.00    +0.000 OA
ENDROOT
BRANCH   1   2
ATOM      2  C   UNL     1      47.562   3.966  16.886  0.00  0.00    +0.000 A 
ATOM      3  C   UNL     1      47.224   4.810  17.942  0.00  0.00    +0.000 A 
ATOM      4  C   UNL     1      48.148   5.069  18.959  0.00  0.00    +0.000 A 
ATOM      5  C   UNL     1      49.416   4.480  18.942  0.00  0.00    +0.000 A 
ATOM      6 CL   UNL     1      50.482   4.934  20.226  0.00  0.00    +0.000 Cl
ATOM      7  C   UNL     1      49.762   3.611  17.901  0.00  0.00    +0.000 A 
ATOM      8  C   UNL     1      48.831   3.375  16.870  0.00  0.00    +0.000 A 
BRANCH   7   9
ATOM      9  C   UNL     1      51.072   2.915  17.779  0.00  0.00    +0.000 C 
ATOM     10  N   UNL     1      51.086   1.548  17.771  0.00  0.00    +0.000 N 
ATOM     11  O   UNL     1      52.116   3.542  17.649  0.00  0.00    +0.000 OA
ATOM     12  H   UNL     1      50.267   0.987  17.968  0.00  0.00    +0.000 HD
ATOM     13  H   UNL     1      51.987   1.088  17.745  0.00  0.00    +0.000 HD
ENDBRANCH   7   9
ENDBRANCH   1   2
BRANCH   1  14
ATOM     14  C   UNL     1      47.305   3.870  14.522  0.00  0.00    +0.000 C 
BRANCH  14  18
ATOM     15  C   UNL     1      44.248   5.037  11.867  0.00  0.00    +0.000 A 
ATOM     16  C   UNL     1      44.561   3.696  12.068  0.00  0.00    +0.000 A 
ATOM     17  N   UNL     1      45.553   3.284  12.895  0.00  0.00    +0.000 NA
ATOM     18  C   UNL     1      46.237   4.268  13.535  0.00  0.00    +0.000 A 
ATOM     19  C   UNL     1      45.925   5.609  13.333  0.00  0.00    +0.000 A 
ATOM     20  N   UNL     1      44.928   6.022  12.513  0.00  0.00    +0.000 NA
BRANCH  15  21
ATOM     21  C   UNL     1      43.109   5.434  10.962  0.00  0.00    +0.000 C 
BRANCH  21  22
ATOM     22  N   UNL     1      42.638   6.796  11.227  0.00  0.00    +0.000 NA
ATOM     23  H   UNL     1      41.694   6.893  10.857  0.00  0.00    +0.000 HD
ATOM     24  H   UNL     1      43.218   7.433  10.677  0.00  0.00    +0.000 HD
ENDBRANCH  21  22
ENDBRANCH  15  21
ENDBRANCH  14  18
ENDBRANCH   1  14
TORSDOF 6
ENDMDL
