MODEL 1
REMARK VINA RESULT:    -8.207      0.000      0.000
REMARK INTER + INTRA:         -10.848
REMARK INTER:                 -10.127
REMARK INTRA:                  -0.722
REMARK UNBOUND:                -0.722
REMARK  Name = 
REMARK  5 active torsions:
REMARK  status: ('A' for Active; 'I' for Inactive)
REMARK    1  A    between atoms: C_1  and  O_2
REMARK    2  A    between atoms: O_2  and  C_3
REMARK    3  A    between atoms: C_6  and  C_7
REMARK    4  A    between atoms: C_7  and  N_8
REMARK    5  A    between atoms: C_13  and  C_14
REMARK                            x       y       z     vdW  Elec       q    Type
REMARK                         _______ _______ _______ _____ _____    ______ ____
ROOT
ATOM      1  N   UNL     1      44.296   4.382  10.680  0.00  0.00    +0.000 N 
ATOM      2  C   UNL     1      43.901   3.258  11.363  0.00  0.00    +0.000 A 
ATOM      3  C   UNL     1      43.906   2.204  10.480  0.00  0.00    +0.000 A 
ATOM      4  C   UNL     1      44.799   2.590   9.455  0.00  0.00    +0.000 A 
ATOM      5  C   UNL     1      45.605   1.871   8.554  0.00  0.00    +0.000 A 
ATOM      6  C   UNL     1      46.441   2.569   7.680  0.00  0.00    +0.000 A 
ATOM      7  C   UNL     1      46.312   3.962   7.560  0.00  0.00    +0.000 A 
ATOM      8  C   UNL     1      45.503   4.698   8.450  0.00  0.00    +0.000 A 
ATOM      9  C   UNL     1      44.872   3.982   9.475  0.00  0.00    +0.000 A 
ENDROOT
BRANCH   6  10
ATOM     10  C   UNL     1      47.511   1.781   6.992  0.00  0.00    +0.000 C 
ATOM     11  N   UNL     1      48.595   2.446   6.475  0.00  0.00    +0.000 N 
ATOM     12  O   UNL     1      47.462   0.560   6.923  0.00  0.00    +0.000 OA
ATOM     13  H   UNL     1      48.711   3.442   6.491  0.00  0.00    +0.000 HD
ATOM     14  H   UNL     1      49.334   1.877   6.094  0.00  0.00    +0.000 HD
ENDBRANCH   6  10
BRANCH   1  15
ATOM     15  C   UNL     1      44.436   5.692  11.298  0.00  0.00    +0.000 C 
BRANCH  15  19
ATOM     16  C   UNL     1      48.158   6.401  13.394  0.00  0.00    +0.000 A 
ATOM     17  C   UNL     1      47.961   6.953  12.121  0.00  0.00    +0.000 A 
ATOM     18  C   UNL     1      46.778   6.700  11.409  0.00  0.00    +0.000 A 
ATOM     19  C   UNL     1      45.770   5.904  11.979  0.00  0.00    +0.000 A 
ATOM     20  C   UNL     1      45.972   5.361  13.259  0.00  0.00    +0.000 A 
ATOM     21  C   UNL     1      47.156   5.614  13.954  0.00  0.00    +0.000 A 
BRANCH  16  23
ATOM     22  C   UNL     1      49.045   6.619  15.594  0.00  0.00    +0.000 C 
ATOM     23  O   UNL     1      49.256   6.570  14.190  0.00  0.00    +0.000 OA
ENDBRANCH  16  23
ENDBRANCH  15  19
ENDBRANCH   1  15
TORSDOF 4
ENDMDL
MODEL 2
REMARK VINA RESULT:    -7.403      1.870      6.374
REMARK INTER + INTRA:          -9.856
REMARK INTER:                  -9.329
REMARK INTRA:                  -0.527
REMARK UNBOUND:                -0.722
REMARK  Name = 
REMARK  5 active torsions:
REMARK  status: ('A' for Active; 'I' for Inactive)
REMARK    1  A    between atoms: C_1  and  O_2
REMARK    2  A    between atoms: O_2  and  C_3
REMARK    3  A    between atoms: C_6  and  C_7
REMARK    4  A    between atoms: C_7  and  N_8
REMARK    5  A    between atoms: C_13  and  C_14
REMARK                            x       y       z     vdW  Elec       q    Type
REMARK                         _______ _______ _______ _____ _____    ______ ____
ROOT
ATOM      1  N   UNL     1      43.856   4.134  11.113  0.00  0.00    +0.000 N 
ATOM      2  C   UNL     1      43.286   5.333  10.763  0.00  0.00    +0.000 A 
ATOM      3  C   UNL     1      43.575   6.242  11.753  0.00  0.00    +0.000 A 
ATOM      4  C   UNL     1      44.734   5.739  12.385  0.00  0.00    +0.000 A 
ATOM      5  C   UNL     1      45.786   6.342  13.097  0.00  0.00    +0.000 A 
ATOM      6  C   UNL     1      46.841   5.550  13.557  0.00  0.00    +0.000 A 
ATOM      7  C   UNL     1      46.737   4.152  13.495  0.00  0.00    +0.000 A 
ATOM      8  C   UNL     1      45.685   3.530  12.793  0.00  0.00    +0.000 A 
ATOM      9  C   UNL     1      44.779   4.369  12.131  0.00  0.00    +0.000 A 
ENDROOT
BRANCH   6  10
ATOM     10  C   UNL     1      48.080   6.263  13.999  0.00  0.00    +0.000 C 
ATOM     11  N   UNL     1      48.191   6.645  15.313  0.00  0.00    +0.000 N 
ATOM     12  O   UNL     1      49.010   6.470  13.229  0.00  0.00    +0.000 OA
ATOM     13  H   UNL     1      47.477   6.512  16.005  0.00  0.00    +0.000 HD
ATOM     14  H   UNL     1      49.071   7.046  15.594  0.00  0.00    +0.000 HD
ENDBRANCH   6  10
BRANCH   1  15
ATOM     15  C   UNL     1      43.783   2.937  10.288  0.00  0.00    +0.000 C 
BRANCH  15  19
ATOM     16  C   UNL     1      46.938   2.703   7.331  0.00  0.00    +0.000 A 
ATOM     17  C   UNL     1      46.370   3.946   7.646  0.00  0.00    +0.000 A 
ATOM     18  C   UNL     1      45.319   4.036   8.571  0.00  0.00    +0.000 A 
ATOM     19  C   UNL     1      44.838   2.878   9.206  0.00  0.00    +0.000 A 
ATOM     20  C   UNL     1      45.418   1.637   8.890  0.00  0.00    +0.000 A 
ATOM     21  C   UNL     1      46.459   1.560   7.963  0.00  0.00    +0.000 A 
BRANCH  16  23
ATOM     22  C   UNL     1      47.654   2.503   5.068  0.00  0.00    +0.000 C 
ATOM     23  O   UNL     1      47.962   2.479   6.455  0.00  0.00    +0.000 OA
ENDBRANCH  16  23
ENDBRANCH  15  19
ENDBRANCH   1  15
TORSDOF 4
ENDMDL
MODEL 3
REMARK VINA RESULT:    -7.209      2.217      6.706
REMARK INTER + INTRA:          -9.617
REMARK INTER:                  -9.093
REMARK INTRA:                  -0.524
REMARK UNBOUND:                -0.722
REMARK  Name = 
REMARK  5 active torsions:
REMARK  status: ('A' for Active; 'I' for Inactive)
REMARK    1  A    between atoms: C_1  and  O_2
REMARK    2  A    between atoms: O_2  and  C_3
REMARK    3  A    between atoms: C_6  and  C_7
REMARK    4  A    between atoms: C_7  and  N_8
REMARK    5  A    between atoms: C_13  and  C_14
REMARK                            x       y       z     vdW  Elec       q    Type
REMARK                         _______ _______ _______ _____ _____    ______ ____
ROOT
ATOM      1  N   UNL     1      44.183   3.967  10.804  0.00  0.00    +0.000 N 
ATOM      2  C   UNL     1      43.412   3.548  11.861  0.00  0.00    +0.000 A 
ATOM      3  C   UNL     1      43.975   4.043  13.014  0.00  0.00    +0.000 A 
ATOM      4  C   UNL     1      44.730   5.164  12.602  0.00  0.00    +0.000 A 
ATOM      5  C   UNL     1      45.138   6.345  13.247  0.00  0.00    +0.000 A 
ATOM      6  C   UNL     1      45.845   7.308  12.525  0.00  0.00    +0.000 A 
ATOM      7  C   UNL     1      46.324   7.000  11.241  0.00  0.00    +0.000 A 
ATOM      8  C   UNL     1      45.932   5.817  10.583  0.00  0.00    +0.000 A 
ATOM      9  C   UNL     1      45.017   4.991  11.249  0.00  0.00    +0.000 A 
ENDROOT
BRANCH   6  10
ATOM     10  C   UNL     1      45.958   8.668  13.139  0.00  0.00    +0.000 C 
ATOM     11  N   UNL     1      44.977   9.594  12.883  0.00  0.00    +0.000 N 
ATOM     12  O   UNL     1      46.876   8.954  13.897  0.00  0.00    +0.000 OA
ATOM     13  H   UNL     1      44.194   9.438  12.275  0.00  0.00    +0.000 HD
ATOM     14  H   UNL     1      45.041  10.468  13.379  0.00  0.00    +0.000 HD
ENDBRANCH   6  10
BRANCH   1  15
ATOM     15  C   UNL     1      43.879   3.657   9.415  0.00  0.00    +0.000 C 
BRANCH  15  19
ATOM     16  C   UNL     1      47.119   2.012   7.059  0.00  0.00    +0.000 A 
ATOM     17  C   UNL     1      46.461   1.204   7.997  0.00  0.00    +0.000 A 
ATOM     18  C   UNL     1      45.437   1.731   8.799  0.00  0.00    +0.000 A 
ATOM     19  C   UNL     1      45.048   3.073   8.652  0.00  0.00    +0.000 A 
ATOM     20  C   UNL     1      45.707   3.874   7.704  0.00  0.00    +0.000 A 
ATOM     21  C   UNL     1      46.730   3.340   6.917  0.00  0.00    +0.000 A 
BRANCH  16  23
ATOM     22  C   UNL     1      48.222   2.286   4.966  0.00  0.00    +0.000 C 
ATOM     23  O   UNL     1      48.125   1.624   6.219  0.00  0.00    +0.000 OA
ENDBRANCH  16  23
ENDBRANCH  15  19
ENDBRANCH   1  15
TORSDOF 4
ENDMDL
MODEL 4
REMARK VINA RESULT:    -6.670      2.136      6.920
REMARK INTER + INTRA:          -8.952
REMARK INTER:                  -8.308
REMARK INTRA:                  -0.644
REMARK UNBOUND:                -0.722
REMARK  Name = 
REMARK  5 active torsions:
REMARK  status: ('A' for Active; 'I' for Inactive)
REMARK    1  A    between atoms: C_1  and  O_2
REMARK    2  A    between atoms: O_2  and  C_3
REMARK    3  A    between atoms: C_6  and  C_7
REMARK    4  A    between atoms: C_7  and  N_8
REMARK    5  A    between atoms: C_13  and  C_14
REMARK                            x       y       z     vdW  Elec       q    Type
REMARK                         _______ _______ _______ _____ _____    ______ ____
ROOT
ATOM      1  N   UNL     1      45.525   4.740  11.949  0.00  0.00    +0.000 N 
ATOM      2  C   UNL     1      45.370   4.034  13.116  0.00  0.00    +0.000 A 
ATOM      3  C   UNL     1      46.411   4.365  13.951  0.00  0.00    +0.000 A 
ATOM      4  C   UNL     1      46.852   5.630  13.502  0.00  0.00    +0.000 A 
ATOM      5  C   UNL     1      47.499   6.708  14.132  0.00  0.00    +0.000 A 
ATOM      6  C   UNL     1      47.751   7.873  13.404  0.00  0.00    +0.000 A 
ATOM      7  C   UNL     1      47.555   7.879  12.014  0.00  0.00    +0.000 A 
ATOM      8  C   UNL     1      46.914   6.804  11.364  0.00  0.00    +0.000 A 
ATOM      9  C   UNL     1      46.451   5.757  12.173  0.00  0.00    +0.000 A 
ENDROOT
BRANCH   6  10
ATOM     10  C   UNL     1      48.123   9.093  14.187  0.00  0.00    +0.000 C 
ATOM     11  N   UNL     1      47.619   9.245  15.455  0.00  0.00    +0.000 N 
ATOM     12  O   UNL     1      48.899   9.928  13.741  0.00  0.00    +0.000 OA
ATOM     13  H   UNL     1      46.979   8.608  15.892  0.00  0.00    +0.000 HD
ATOM     14  H   UNL     1      47.956  10.034  15.982  0.00  0.00    +0.000 HD
ENDBRANCH   6  10
BRANCH   1  15
ATOM     15  C   UNL     1      44.592   4.666  10.834  0.00  0.00    +0.000 C 
BRANCH  15  19
ATOM     16  C   UNL     1      46.336   2.566   7.472  0.00  0.00    +0.000 A 
ATOM     17  C   UNL     1      46.389   3.966   7.521  0.00  0.00    +0.000 A 
ATOM     18  C   UNL     1      45.793   4.666   8.581  0.00  0.00    +0.000 A 
ATOM     19  C   UNL     1      45.153   3.964   9.617  0.00  0.00    +0.000 A 
ATOM     20  C   UNL     1      45.111   2.560   9.565  0.00  0.00    +0.000 A 
ATOM     21  C   UNL     1      45.702   1.876   8.500  0.00  0.00    +0.000 A 
BRANCH  16  23
ATOM     22  C   UNL     1      47.561   2.408   5.436  0.00  0.00    +0.000 C 
ATOM     23  O   UNL     1      46.875   1.768   6.503  0.00  0.00    +0.000 OA
ENDBRANCH  16  23
ENDBRANCH  15  19
ENDBRANCH   1  15
TORSDOF 4
ENDMDL
MODEL 5
REMARK VINA RESULT:    -6.549      2.023      6.423
REMARK INTER + INTRA:          -8.802
REMARK INTER:                  -8.186
REMARK INTRA:                  -0.616
REMARK UNBOUND:                -0.722
REMARK  Name = 
REMARK  5 active torsions:
REMARK  status: ('A' for Active; 'I' for Inactive)
REMARK    1  A    between atoms: C_1  and  O_2
REMARK    2  A    between atoms: O_2  and  C_3
REMARK    3  A    between atoms: C_6  and  C_7
REMARK    4  A    between atoms: C_7  and  N_8
REMARK    5  A    between atoms: C_13  and  C_14
REMARK                            x       y       z     vdW  Elec       q    Type
REMARK                         _______ _______ _______ _____ _____    ______ ____
ROOT
ATOM      1  N   UNL     1      44.034   6.182  11.507  0.00  0.00    +0.000 N 
ATOM      2  C   UNL     1      43.859   7.445  10.997  0.00  0.00    +0.000 A 
ATOM      3  C   UNL     1      44.618   8.311  11.748  0.00  0.00    +0.000 A 
ATOM      4  C   UNL     1      45.626   7.508  12.327  0.00  0.00    +0.000 A 
ATOM      5  C   UNL     1      46.932   7.771  12.777  0.00  0.00    +0.000 A 
ATOM      6  C   UNL     1      47.714   6.717  13.257  0.00  0.00    +0.000 A 
ATOM      7  C   UNL     1      47.124   5.464  13.485  0.00  0.00    +0.000 A 
ATOM      8  C   UNL     1      45.813   5.185  13.047  0.00  0.00    +0.000 A 
ATOM      9  C   UNL     1      45.149   6.198  12.344  0.00  0.00    +0.000 A 
ENDROOT
BRANCH   6  10
ATOM     10  C   UNL     1      49.181   6.974  13.402  0.00  0.00    +0.000 C 
ATOM     11  N   UNL     1      49.959   7.020  12.272  0.00  0.00    +0.000 N 
ATOM     12  O   UNL     1      49.689   7.190  14.495  0.00  0.00    +0.000 OA
ATOM     13  H   UNL     1      49.621   6.856  11.342  0.00  0.00    +0.000 HD
ATOM     14  H   UNL     1      50.924   7.278  12.399  0.00  0.00    +0.000 HD
ENDBRANCH   6  10
BRANCH   1  15
ATOM     15  C   UNL     1      43.405   4.994  10.948  0.00  0.00    +0.000 C 
BRANCH  15  19
ATOM     16  C   UNL     1      45.896   2.792   8.175  0.00  0.00    +0.000 A 
ATOM     17  C   UNL     1      45.072   2.098   9.072  0.00  0.00    +0.000 A 
ATOM     18  C   UNL     1      44.289   2.793  10.005  0.00  0.00    +0.000 A 
ATOM     19  C   UNL     1      44.311   4.198  10.035  0.00  0.00    +0.000 A 
ATOM     20  C   UNL     1      45.134   4.886   9.128  0.00  0.00    +0.000 A 
ATOM     21  C   UNL     1      45.914   4.182   8.208  0.00  0.00    +0.000 A 
BRANCH  16  23
ATOM     22  C   UNL     1      46.723   2.859   5.942  0.00  0.00    +0.000 C 
ATOM     23  O   UNL     1      46.702   2.238   7.220  0.00  0.00    +0.000 OA
ENDBRANCH  16  23
ENDBRANCH  15  19
ENDBRANCH   1  15
TORSDOF 4
ENDMDL
MODEL 6
REMARK VINA RESULT:    -6.126      3.679      5.787
REMARK INTER + INTRA:          -8.280
REMARK INTER:                  -7.879
REMARK INTRA:                  -0.401
REMARK UNBOUND:                -0.722
REMARK  Name = 
REMARK  5 active torsions:
REMARK  status: ('A' for Active; 'I' for Inactive)
REMARK    1  A    between atoms: C_1  and  O_2
REMARK    2  A    between atoms: O_2  and  C_3
REMARK    3  A    between atoms: C_6  and  C_7
REMARK    4  A    between atoms: C_7  and  N_8
REMARK    5  A    between atoms: C_13  and  C_14
REMARK                            x       y       z     vdW  Elec       q    Type
REMARK                         _______ _______ _______ _____ _____    ______ ____
ROOT
ATOM      1  N   UNL     1      47.306   4.868  14.775  0.00  0.00    +0.000 N 
ATOM      2  C   UNL     1      47.764   6.152  14.602  0.00  0.00    +0.000 A 
ATOM      3  C   UNL     1      47.737   6.430  13.256  0.00  0.00    +0.000 A 
ATOM      4  C   UNL     1      46.782   5.541  12.716  0.00  0.00    +0.000 A 
ATOM      5  C   UNL     1      45.946   5.588  11.586  0.00  0.00    +0.000 A 
ATOM      6  C   UNL     1      45.047   4.544  11.357  0.00  0.00    +0.000 A 
ATOM      7  C   UNL     1      45.136   3.372  12.125  0.00  0.00    +0.000 A 
ATOM      8  C   UNL     1      45.973   3.304  13.257  0.00  0.00    +0.000 A 
ATOM      9  C   UNL     1      46.676   4.466  13.598  0.00  0.00    +0.000 A 
ENDROOT
BRANCH   6  10
ATOM     10  C   UNL     1      43.962   4.792  10.358  0.00  0.00    +0.000 C 
ATOM     11  N   UNL     1      44.149   4.379   9.062  0.00  0.00    +0.000 N 
ATOM     12  O   UNL     1      42.900   5.308  10.680  0.00  0.00    +0.000 OA
ATOM     13  H   UNL     1      44.988   3.949   8.718  0.00  0.00    +0.000 HD
ATOM     14  H   UNL     1      43.367   4.486   8.437  0.00  0.00    +0.000 HD
ENDBRANCH   6  10
BRANCH   1  15
ATOM     15  C   UNL     1      47.168   4.232  16.077  0.00  0.00    +0.000 C 
BRANCH  15  19
ATOM     16  C   UNL     1      51.002   2.877  17.566  0.00  0.00    +0.000 A 
ATOM     17  C   UNL     1      50.125   1.962  16.966  0.00  0.00    +0.000 A 
ATOM     18  C   UNL     1      48.862   2.374  16.515  0.00  0.00    +0.000 A 
ATOM     19  C   UNL     1      48.472   3.718  16.644  0.00  0.00    +0.000 A 
ATOM     20  C   UNL     1      49.359   4.631  17.241  0.00  0.00    +0.000 A 
ATOM     21  C   UNL     1      50.611   4.207  17.692  0.00  0.00    +0.000 A 
BRANCH  16  23
ATOM     22  C   UNL     1      52.803   1.330  17.754  0.00  0.00    +0.000 C 
ATOM     23  O   UNL     1      52.253   2.608  18.043  0.00  0.00    +0.000 OA
ENDBRANCH  16  23
ENDBRANCH  15  19
ENDBRANCH   1  15
TORSDOF 4
ENDMDL
MODEL 7
REMARK VINA RESULT:    -5.923      2.680      6.414
REMARK INTER + INTRA:          -8.030
REMARK INTER:                  -7.558
REMARK INTRA:                  -0.472
REMARK UNBOUND:                -0.722
REMARK  Name = 
REMARK  5 active torsions:
REMARK  status: ('A' for Active; 'I' for Inactive)
REMARK    1  A    between atoms: C_1  and  O_2
REMARK    2  A    between atoms: O_2  and  C_3
REMARK    3  A    between atoms: C_6  and  C_7
REMARK    4  A    between atoms: C_7  and  N_8
REMARK    5  A    between atoms: C_13  and  C_14
REMARK                            x       y       z     vdW  Elec       q    Type
REMARK                         _______ _______ _______ _____ _____    ______ ____
ROOT
ATOM      1  N   UNL     1      45.588   7.414  12.749  0.00  0.00    +0.000 N 
ATOM      2  C   UNL     1      45.082   8.535  12.139  0.00  0.00    +0.000 A 
ATOM      3  C   UNL     1      46.077   9.483  12.108  0.00  0.00    +0.000 A 
ATOM      4  C   UNL     1      47.283   8.752  12.200  0.00  0.00    +0.000 A 
ATOM      5  C   UNL     1      48.598   8.999  11.771  0.00  0.00    +0.000 A 
ATOM      6  C   UNL     1      49.577   8.022  11.970  0.00  0.00    +0.000 A 
ATOM      7  C   UNL     1      49.292   6.911  12.779  0.00  0.00    +0.000 A 
ATOM      8  C   UNL     1      47.980   6.651  13.225  0.00  0.00    +0.000 A 
ATOM      9  C   UNL     1      46.977   7.528  12.792  0.00  0.00    +0.000 A 
ENDROOT
BRANCH   6  10
ATOM     10  C   UNL     1      50.855   8.179  11.208  0.00  0.00    +0.000 C 
ATOM     11  N   UNL     1      51.596   7.060  10.922  0.00  0.00    +0.000 N 
ATOM     12  O   UNL     1      51.226   9.271  10.797  0.00  0.00    +0.000 OA
ATOM     13  H   UNL     1      51.362   6.131  11.221  0.00  0.00    +0.000 HD
ATOM     14  H   UNL     1      52.405   7.191  10.337  0.00  0.00    +0.000 HD
ENDBRANCH   6  10
BRANCH   1  15
ATOM     15  C   UNL     1      44.826   6.187  12.938  0.00  0.00    +0.000 C 
BRANCH  15  19
ATOM     16  C   UNL     1      44.789   3.526   9.523  0.00  0.00    +0.000 A 
ATOM     17  C   UNL     1      45.456   4.756   9.439  0.00  0.00    +0.000 A 
ATOM     18  C   UNL     1      45.445   5.649  10.521  0.00  0.00    +0.000 A 
ATOM     19  C   UNL     1      44.776   5.307  11.709  0.00  0.00    +0.000 A 
ATOM     20  C   UNL     1      44.115   4.069  11.787  0.00  0.00    +0.000 A 
ATOM     21  C   UNL     1      44.129   3.192  10.701  0.00  0.00    +0.000 A 
BRANCH  16  23
ATOM     22  C   UNL     1      45.825   1.678   8.434  0.00  0.00    +0.000 C 
ATOM     23  O   UNL     1      44.725   2.570   8.548  0.00  0.00    +0.000 OA
ENDBRANCH  16  23
ENDBRANCH  15  19
ENDBRANCH   1  15
TORSDOF 4
ENDMDL
MODEL 8
REMARK VINA RESULT:    -5.713      3.702      6.074
REMARK INTER + INTRA:          -7.771
REMARK INTER:                  -7.288
REMARK INTRA:                  -0.484
REMARK UNBOUND:                -0.722
REMARK  Name = 
REMARK  5 active torsions:
REMARK  status: ('A' for Active; 'I' for Inactive)
REMARK    1  A    between atoms: C_1  and  O_2
REMARK    2  A    between atoms: O_2  and  C_3
REMARK    3  A    between atoms: C_6  and  C_7
REMARK    4  A    between atoms: C_7  and  N_8
REMARK    5  A    between atoms: C_13  and  C_14
REMARK                            x       y       z     vdW  Elec       q    Type
REMARK                         _______ _______ _______ _____ _____    ______ ____
ROOT
ATOM      1  N   UNL     1      47.617   5.035  15.015  0.00  0.00    +0.000 N 
ATOM      2  C   UNL     1      48.012   6.346  14.907  0.00  0.00    +0.000 A 
ATOM      3  C   UNL     1      47.916   6.708  13.584  0.00  0.00    +0.000 A 
ATOM      4  C   UNL     1      46.977   5.812  13.027  0.00  0.00    +0.000 A 
ATOM      5  C   UNL     1      46.093   5.893  11.936  0.00  0.00    +0.000 A 
ATOM      6  C   UNL     1      45.230   4.826  11.676  0.00  0.00    +0.000 A 
ATOM      7  C   UNL     1      45.401   3.613  12.361  0.00  0.00    +0.000 A 
ATOM      8  C   UNL     1      46.288   3.511  13.452  0.00  0.00    +0.000 A 
ATOM      9  C   UNL     1      46.955   4.680  13.840  0.00  0.00    +0.000 A 
ENDROOT
BRANCH   6  10
ATOM     10  C   UNL     1      44.094   5.087  10.738  0.00  0.00    +0.000 C 
ATOM     11  N   UNL     1      43.322   6.206  10.929  0.00  0.00    +0.000 N 
ATOM     12  O   UNL     1      43.870   4.355   9.783  0.00  0.00    +0.000 OA
ATOM     13  H   UNL     1      43.440   6.855  11.685  0.00  0.00    +0.000 HD
ATOM     14  H   UNL     1      42.621   6.395  10.232  0.00  0.00    +0.000 HD
ENDBRANCH   6  10
BRANCH   1  15
ATOM     15  C   UNL     1      47.561   4.312  16.277  0.00  0.00    +0.000 C 
BRANCH  15  19
ATOM     16  C   UNL     1      51.277   2.569  17.657  0.00  0.00    +0.000 A 
ATOM     17  C   UNL     1      51.043   3.940  17.834  0.00  0.00    +0.000 A 
ATOM     18  C   UNL     1      49.864   4.530  17.356  0.00  0.00    +0.000 A 
ATOM     19  C   UNL     1      48.894   3.744  16.712  0.00  0.00    +0.000 A 
ATOM     20  C   UNL     1      49.131   2.369  16.545  0.00  0.00    +0.000 A 
ATOM     21  C   UNL     1      50.313   1.795  17.019  0.00  0.00    +0.000 A 
BRANCH  16  23
ATOM     22  C   UNL     1      53.362   2.586  18.808  0.00  0.00    +0.000 C 
ATOM     23  O   UNL     1      52.376   1.873  18.074  0.00  0.00    +0.000 OA
ENDBRANCH  16  23
ENDBRANCH  15  19
ENDBRANCH   1  15
TORSDOF 4
ENDMDL
MODEL 9
REMARK VINA RESULT:    -5.509      2.473      3.819
REMARK INTER + INTRA:          -7.519
REMARK INTER:                  -6.844
REMARK INTRA:                  -0.675
REMARK UNBOUND:                -0.722
REMARK  Name = 
REMARK  5 active torsions:
REMARK  status: ('A' for Active; 'I' for Inactive)
REMARK    1  A    between atoms: C_1  and  O_2
REMARK    2  A    between atoms: O_2  and  C_3
REMARK    3  A    between atoms: C_6  and  C_7
REMARK    4  A    between atoms: C_7  and  N_8
REMARK    5  A    between atoms: C_13  and  C_14
REMARK                            x       y       z     vdW  Elec       q    Type
REMARK                         _______ _______ _______ _____ _____    ______ ____
ROOT
ATOM      1  N   UNL     1      46.312   6.169  13.272  0.00  0.00    +0.000 N 
ATOM      2  C   UNL     1      47.000   5.191  13.948  0.00  0.00    +0.000 A 
ATOM      3  C   UNL     1      46.361   3.995  13.721  0.00  0.00    +0.000 A 
ATOM      4  C   UNL     1      45.652   4.181  12.514  0.00  0.00    +0.000 A 
ATOM      5  C   UNL     1      45.213   3.305  11.505  0.00  0.00    +0.000 A 
ATOM      6  C   UNL     1      44.571   3.826  10.380  0.00  0.00    +0.000 A 
ATOM      7  C   UNL     1      44.182   5.175  10.366  0.00  0.00    +0.000 A 
ATOM      8  C   UNL     1      44.606   6.066  11.372  0.00  0.00    +0.000 A 
ATOM      9  C   UNL     1      45.461   5.553  12.357  0.00  0.00    +0.000 A 
ENDROOT
BRANCH   6  10
ATOM     10  C   UNL     1      44.430   2.918   9.199  0.00  0.00    +0.000 C 
ATOM     11  N   UNL     1      44.363   3.470   7.944  0.00  0.00    +0.000 N 
ATOM     12  O   UNL     1      44.422   1.700   9.325  0.00  0.00    +0.000 OA
ATOM     13  H   UNL     1      44.364   4.455   7.756  0.00  0.00    +0.000 HD
ATOM     14  H   UNL     1      44.353   2.827   7.168  0.00  0.00    +0.000 HD
ENDBRANCH   6  10
BRANCH   1  15
ATOM     15  C   UNL     1      46.712   7.569  13.257  0.00  0.00    +0.000 C 
BRANCH  15  19
ATOM     16  C   UNL     1      50.856   8.379  12.295  0.00  0.00    +0.000 A 
ATOM     17  C   UNL     1      50.007   7.838  11.319  0.00  0.00    +0.000 A 
ATOM     18  C   UNL     1      48.673   7.531  11.623  0.00  0.00    +0.000 A 
ATOM     19  C   UNL     1      48.169   7.782  12.911  0.00  0.00    +0.000 A 
ATOM     20  C   UNL     1      49.023   8.331  13.882  0.00  0.00    +0.000 A 
ATOM     21  C   UNL     1      50.351   8.625  13.568  0.00  0.00    +0.000 A 
BRANCH  16  23
ATOM     22  C   UNL     1      52.844   9.279  13.248  0.00  0.00    +0.000 C 
ATOM     23  O   UNL     1      52.167   8.723  12.129  0.00  0.00    +0.000 OA
ENDBRANCH  16  23
ENDBRANCH  15  19
ENDBRANCH   1  15
TORSDOF 4
ENDMDL
