MODEL 1
REMARK VINA RESULT:    -7.572      0.000      0.000
REMARK INTER + INTRA:         -10.899
REMARK INTER:                 -10.006
REMARK INTRA:                  -0.893
REMARK UNBOUND:                -0.893
REMARK  Name = 
REMARK  6 active torsions:
REMARK  status: ('A' for Active; 'I' for Inactive)
REMARK    1  A    between atoms: N_1  and  C_2
REMARK    2  A    between atoms: C_2  and  C_3
REMARK    3  A    between atoms: C_2  and  C_18
REMARK    4  A    between atoms: C_3  and  C_4
REMARK    5  A    between atoms: C_7  and  S_8
REMARK    6  A    between atoms: S_8  and  N_11
REMARK                            x       y       z     vdW  Elec       q    Type
REMARK                         _______ _______ _______ _____ _____    ______ ____
ROOT
ATOM      1  C   UNL     1      47.681   4.798  16.516  0.00  0.00    +0.000 C 
ENDROOT
BRANCH   1   2
ATOM      2  C   UNL     1      48.954   4.646  17.324  0.00  0.00    +0.000 A 
ATOM      3  C   UNL     1      49.386   5.602  18.231  0.00  0.00    +0.000 A 
ATOM      4  S   UNL     1      50.840   5.184  19.020  0.00  0.00    +0.000 S 
ATOM      5  C   UNL     1      50.938   3.705  18.182  0.00  0.00    +0.000 A 
ATOM      6  N   UNL     1      51.962   2.839  18.401  0.00  0.00    +0.000 NA
ATOM      7  C   UNL     1      51.902   1.752  17.701  0.00  0.00    +0.000 A 
ATOM      8  N   UNL     1      50.909   1.456  16.807  0.00  0.00    +0.000 N 
ATOM      9  C   UNL     1      49.826   2.273  16.587  0.00  0.00    +0.000 A 
ATOM     10  O   UNL     1      48.905   1.935  15.852  0.00  0.00    +0.000 OA
ATOM     11  C   UNL     1      49.869   3.527  17.322  0.00  0.00    +0.000 A 
ATOM     12  H   UNL     1      50.908   0.575  16.310  0.00  0.00    +0.000 HD
ENDBRANCH   1   2
BRANCH   1  13
ATOM     13  N   UNL     1      46.861   3.611  16.762  0.00  0.00    +0.000 NA
ATOM     14  H   UNL     1      46.523   3.235  15.878  0.00  0.00    +0.000 HD
ATOM     15  H   UNL     1      46.034   3.888  17.301  0.00  0.00    +0.000 HD
ENDBRANCH   1  13
BRANCH   1  16
ATOM     16  C   UNL     1      47.941   5.085  15.013  0.00  0.00    +0.000 C 
BRANCH  16  17
ATOM     17  C   UNL     1      46.847   4.748  14.019  0.00  0.00    +0.000 A 
ATOM     18  C   UNL     1      46.823   3.472  13.433  0.00  0.00    +0.000 A 
ATOM     19  C   UNL     1      45.791   3.114  12.567  0.00  0.00    +0.000 A 
ATOM     20  C   UNL     1      44.803   4.053  12.326  0.00  0.00    +0.000 A 
ATOM     21  N   UNL     1      44.793   5.300  12.848  0.00  0.00    +0.000 NA
ATOM     22  C   UNL     1      45.819   5.619  13.669  0.00  0.00    +0.000 A 
BRANCH  20  23
ATOM     23  S   UNL     1      43.369   3.586  11.347  0.00  0.00    +0.000 S 
ATOM     24  O   UNL     1      42.983   2.256  11.782  0.00  0.00    +0.000 OA
ATOM     25  O   UNL     1      42.435   4.692  11.444  0.00  0.00    +0.000 OA
BRANCH  23  26
ATOM     26  N   UNL     1      43.844   3.475   9.721  0.00  0.00    +0.000 NA
ATOM     27  C   UNL     1      44.305   2.185   9.181  0.00  0.00    +0.000 C 
ATOM     28  C   UNL     1      45.774   2.387   8.867  0.00  0.00    +0.000 C 
ATOM     29  C   UNL     1      45.894   3.864   8.530  0.00  0.00    +0.000 C 
ATOM     30  C   UNL     1      44.680   4.551   9.154  0.00  0.00    +0.000 C 
ENDBRANCH  23  26
ENDBRANCH  20  23
ENDBRANCH  16  17
ENDBRANCH   1  16
TORSDOF 6
ENDMDL
MODEL 2
REMARK VINA RESULT:    -7.141      2.696      8.663
REMARK INTER + INTRA:         -10.330
REMARK INTER:                  -9.776
REMARK INTRA:                  -0.554
REMARK UNBOUND:                -0.893
REMARK  Name = 
REMARK  6 active torsions:
REMARK  status: ('A' for Active; 'I' for Inactive)
REMARK    1  A    between atoms: N_1  and  C_2
REMARK    2  A    between atoms: C_2  and  C_3
REMARK    3  A    between atoms: C_2  and  C_18
REMARK    4  A    between atoms: C_3  and  C_4
REMARK    5  A    between atoms: C_7  and  S_8
REMARK    6  A    between atoms: S_8  and  N_11
REMARK                            x       y       z     vdW  Elec       q    Type
REMARK                         _______ _______ _______ _____ _____    ______ ____
ROOT
ATOM      1  C   UNL     1      45.100   6.354  12.000  0.00  0.00    +0.000 C 
ENDROOT
BRANCH   1   2
ATOM      2  C   UNL     1      44.615   4.978  11.590  0.00  0.00    +0.000 A 
ATOM      3  C   UNL     1      43.784   4.207  12.390  0.00  0.00    +0.000 A 
ATOM      4  S   UNL     1      43.373   2.704  11.693  0.00  0.00    +0.000 S 
ATOM      5  C   UNL     1      44.284   3.037  10.294  0.00  0.00    +0.000 A 
ATOM      6  N   UNL     1      44.351   2.147   9.269  0.00  0.00    +0.000 NA
ATOM      7  C   UNL     1      45.071   2.538   8.268  0.00  0.00    +0.000 A 
ATOM      8  N   UNL     1      45.727   3.737   8.201  0.00  0.00    +0.000 N 
ATOM      9  C   UNL     1      45.651   4.692   9.186  0.00  0.00    +0.000 A 
ATOM     10  O   UNL     1      46.170   5.794   9.054  0.00  0.00    +0.000 OA
ATOM     11  C   UNL     1      44.884   4.284  10.352  0.00  0.00    +0.000 A 
ATOM     12  H   UNL     1      46.254   3.991   7.377  0.00  0.00    +0.000 HD
ENDBRANCH   1   2
BRANCH   1  13
ATOM     13  N   UNL     1      44.613   7.306  11.000  0.00  0.00    +0.000 NA
ATOM     14  H   UNL     1      43.944   7.944  11.427  0.00  0.00    +0.000 HD
ATOM     15  H   UNL     1      44.107   6.790  10.273  0.00  0.00    +0.000 HD
ENDBRANCH   1  13
BRANCH   1  16
ATOM     16  C   UNL     1      46.633   6.418  12.237  0.00  0.00    +0.000 C 
BRANCH  16  17
ATOM     17  C   UNL     1      47.169   5.972  13.583  0.00  0.00    +0.000 A 
ATOM     18  C   UNL     1      46.626   4.831  14.193  0.00  0.00    +0.000 A 
ATOM     19  C   UNL     1      47.146   4.361  15.399  0.00  0.00    +0.000 A 
ATOM     20  C   UNL     1      48.212   5.052  15.948  0.00  0.00    +0.000 A 
ATOM     21  N   UNL     1      48.756   6.168  15.410  0.00  0.00    +0.000 NA
ATOM     22  C   UNL     1      48.214   6.604  14.251  0.00  0.00    +0.000 A 
BRANCH  20  23
ATOM     23  S   UNL     1      49.022   4.396  17.413  0.00  0.00    +0.000 S 
ATOM     24  O   UNL     1      48.237   3.256  17.847  0.00  0.00    +0.000 OA
ATOM     25  O   UNL     1      50.421   4.237  17.065  0.00  0.00    +0.000 OA
BRANCH  23  26
ATOM     26  N   UNL     1      48.943   5.569  18.639  0.00  0.00    +0.000 NA
ATOM     27  C   UNL     1      49.730   5.394  19.870  0.00  0.00    +0.000 C 
ATOM     28  C   UNL     1      48.708   5.186  20.970  0.00  0.00    +0.000 C 
ATOM     29  C   UNL     1      47.486   5.962  20.508  0.00  0.00    +0.000 C 
ATOM     30  C   UNL     1      47.625   6.129  18.996  0.00  0.00    +0.000 C 
ENDBRANCH  23  26
ENDBRANCH  20  23
ENDBRANCH  16  17
ENDBRANCH   1  16
TORSDOF 6
ENDMDL
MODEL 3
REMARK VINA RESULT:    -7.080      2.134      8.419
REMARK INTER + INTRA:         -10.249
REMARK INTER:                  -9.698
REMARK INTRA:                  -0.552
REMARK UNBOUND:                -0.893
REMARK  Name = 
REMARK  6 active torsions:
REMARK  status: ('A' for Active; 'I' for Inactive)
REMARK    1  A    between atoms: N_1  and  C_2
REMARK    2  A    between atoms: C_2  and  C_3
REMARK    3  A    between atoms: C_2  and  C_18
REMARK    4  A    between atoms: C_3  and  C_4
REMARK    5  A    between atoms: C_7  and  S_8
REMARK    6  A    between atoms: S_8  and  N_11
REMARK                            x       y       z     vdW  Elec       q    Type
REMARK                         _______ _______ _______ _____ _____    ______ ____
ROOT
ATOM      1  C   UNL     1      45.098   6.221  12.115  0.00  0.00    +0.000 C 
ENDROOT
BRANCH   1   2
ATOM      2  C   UNL     1      44.624   4.856  11.656  0.00  0.00    +0.000 A 
ATOM      3  C   UNL     1      43.820   4.039  12.437  0.00  0.00    +0.000 A 
ATOM      4  S   UNL     1      43.416   2.563  11.683  0.00  0.00    +0.000 S 
ATOM      5  C   UNL     1      44.295   2.968  10.283  0.00  0.00    +0.000 A 
ATOM      6  N   UNL     1      44.354   2.124   9.220  0.00  0.00    +0.000 NA
ATOM      7  C   UNL     1      45.049   2.568   8.223  0.00  0.00    +0.000 A 
ATOM      8  N   UNL     1      45.687   3.779   8.196  0.00  0.00    +0.000 N 
ATOM      9  C   UNL     1      45.617   4.689   9.223  0.00  0.00    +0.000 A 
ATOM     10  O   UNL     1      46.119   5.803   9.128  0.00  0.00    +0.000 OA
ATOM     11  C   UNL     1      44.878   4.220  10.384  0.00  0.00    +0.000 A 
ATOM     12  H   UNL     1      46.195   4.076   7.373  0.00  0.00    +0.000 HD
ENDBRANCH   1   2
BRANCH   1  13
ATOM     13  N   UNL     1      44.600   7.205  11.154  0.00  0.00    +0.000 NA
ATOM     14  H   UNL     1      44.496   8.110  11.608  0.00  0.00    +0.000 HD
ATOM     15  H   UNL     1      43.665   6.919  10.845  0.00  0.00    +0.000 HD
ENDBRANCH   1  13
BRANCH   1  16
ATOM     16  C   UNL     1      46.631   6.289  12.351  0.00  0.00    +0.000 C 
BRANCH  16  17
ATOM     17  C   UNL     1      47.172   5.840  13.693  0.00  0.00    +0.000 A 
ATOM     18  C   UNL     1      46.652   4.679  14.288  0.00  0.00    +0.000 A 
ATOM     19  C   UNL     1      47.177   4.207  15.490  0.00  0.00    +0.000 A 
ATOM     20  C   UNL     1      48.225   4.916  16.053  0.00  0.00    +0.000 A 
ATOM     21  N   UNL     1      48.745   6.050  15.530  0.00  0.00    +0.000 NA
ATOM     22  C   UNL     1      48.199   6.488  14.374  0.00  0.00    +0.000 A 
BRANCH  20  23
ATOM     23  S   UNL     1      49.042   4.261  17.513  0.00  0.00    +0.000 S 
ATOM     24  O   UNL     1      49.438   5.403  18.316  0.00  0.00    +0.000 OA
ATOM     25  O   UNL     1      48.153   3.251  18.056  0.00  0.00    +0.000 OA
BRANCH  23  26
ATOM     26  N   UNL     1      50.460   3.465  17.021  0.00  0.00    +0.000 NA
ATOM     27  C   UNL     1      50.434   2.015  16.769  0.00  0.00    +0.000 C 
ATOM     28  C   UNL     1      51.305   1.407  17.850  0.00  0.00    +0.000 C 
ATOM     29  C   UNL     1      52.331   2.485  18.166  0.00  0.00    +0.000 C 
ATOM     30  C   UNL     1      51.730   3.807  17.690  0.00  0.00    +0.000 C 
ENDBRANCH  23  26
ENDBRANCH  20  23
ENDBRANCH  16  17
ENDBRANCH   1  16
TORSDOF 6
ENDMDL
MODEL 4
REMARK VINA RESULT:    -7.064      2.337      3.126
REMARK INTER + INTRA:         -10.228
REMARK INTER:                  -9.510
REMARK INTRA:                  -0.718
REMARK UNBOUND:                -0.893
REMARK  Name = 
REMARK  6 active torsions:
REMARK  status: ('A' for Active; 'I' for Inactive)
REMARK    1  A    between atoms: N_1  and  C_2
REMARK    2  A    between atoms: C_2  and  C_3
REMARK    3  A    between atoms: C_2  and  C_18
REMARK    4  A    between atoms: C_3  and  C_4
REMARK    5  A    between atoms: C_7  and  S_8
REMARK    6  A    between atoms: S_8  and  N_11
REMARK                            x       y       z     vdW  Elec       q    Type
REMARK                         _______ _______ _______ _____ _____    ______ ____
ROOT
ATOM      1  C   UNL     1      48.033   6.217  14.074  0.00  0.00    +0.000 C 
ENDROOT
BRANCH   1   2
ATOM      2  C   UNL     1      48.338   6.198  15.558  0.00  0.00    +0.000 A 
ATOM      3  C   UNL     1      48.704   7.334  16.265  0.00  0.00    +0.000 A 
ATOM      4  S   UNL     1      48.979   7.045  17.923  0.00  0.00    +0.000 S 
ATOM      5  C   UNL     1      48.610   5.391  17.757  0.00  0.00    +0.000 A 
ATOM      6  N   UNL     1      48.645   4.551  18.825  0.00  0.00    +0.000 NA
ATOM      7  C   UNL     1      48.332   3.326  18.551  0.00  0.00    +0.000 A 
ATOM      8  N   UNL     1      47.987   2.869  17.308  0.00  0.00    +0.000 N 
ATOM      9  C   UNL     1      47.889   3.685  16.207  0.00  0.00    +0.000 A 
ATOM     10  O   UNL     1      47.484   3.264  15.129  0.00  0.00    +0.000 OA
ATOM     11  C   UNL     1      48.269   5.067  16.455  0.00  0.00    +0.000 A 
ATOM     12  H   UNL     1      47.730   1.901  17.167  0.00  0.00    +0.000 HD
ENDBRANCH   1   2
BRANCH   1  13
ATOM     13  N   UNL     1      48.785   7.327  13.487  0.00  0.00    +0.000 NA
ATOM     14  H   UNL     1      48.426   7.534  12.556  0.00  0.00    +0.000 HD
ATOM     15  H   UNL     1      49.762   7.037  13.369  0.00  0.00    +0.000 HD
ENDBRANCH   1  13
BRANCH   1  16
ATOM     16  C   UNL     1      46.513   6.250  13.761  0.00  0.00    +0.000 C 
BRANCH  16  17
ATOM     17  C   UNL     1      46.016   5.505  12.538  0.00  0.00    +0.000 A 
ATOM     18  C   UNL     1      46.085   6.127  11.282  0.00  0.00    +0.000 A 
ATOM     19  C   UNL     1      45.696   5.439  10.133  0.00  0.00    +0.000 A 
ATOM     20  C   UNL     1      45.259   4.134  10.285  0.00  0.00    +0.000 A 
ATOM     21  N   UNL     1      45.155   3.500  11.475  0.00  0.00    +0.000 NA
ATOM     22  C   UNL     1      45.523   4.203  12.569  0.00  0.00    +0.000 A 
BRANCH  20  23
ATOM     23  S   UNL     1      44.901   3.153   8.822  0.00  0.00    +0.000 S 
ATOM     24  O   UNL     1      44.320   1.908   9.288  0.00  0.00    +0.000 OA
ATOM     25  O   UNL     1      44.162   4.020   7.924  0.00  0.00    +0.000 OA
BRANCH  23  26
ATOM     26  N   UNL     1      46.370   2.778   8.057  0.00  0.00    +0.000 NA
ATOM     27  C   UNL     1      46.865   3.632   6.966  0.00  0.00    +0.000 C 
ATOM     28  C   UNL     1      46.804   2.765   5.723  0.00  0.00    +0.000 C 
ATOM     29  C   UNL     1      47.008   1.348   6.235  0.00  0.00    +0.000 C 
ATOM     30  C   UNL     1      46.651   1.368   7.720  0.00  0.00    +0.000 C 
ENDBRANCH  23  26
ENDBRANCH  20  23
ENDBRANCH  16  17
ENDBRANCH   1  16
TORSDOF 6
ENDMDL
MODEL 5
REMARK VINA RESULT:    -7.026      2.420      3.066
REMARK INTER + INTRA:         -10.178
REMARK INTER:                  -9.030
REMARK INTRA:                  -1.149
REMARK UNBOUND:                -0.893
REMARK  Name = 
REMARK  6 active torsions:
REMARK  status: ('A' for Active; 'I' for Inactive)
REMARK    1  A    between atoms: N_1  and  C_2
REMARK    2  A    between atoms: C_2  and  C_3
REMARK    3  A    between atoms: C_2  and  C_18
REMARK    4  A    between atoms: C_3  and  C_4
REMARK    5  A    between atoms: C_7  and  S_8
REMARK    6  A    between atoms: S_8  and  N_11
REMARK                            x       y       z     vdW  Elec       q    Type
REMARK                         _______ _______ _______ _____ _____    ______ ____
ROOT
ATOM      1  C   UNL     1      49.381   7.100  14.738  0.00  0.00    +0.000 C 
ENDROOT
BRANCH   1   2
ATOM      2  C   UNL     1      48.989   7.427  16.165  0.00  0.00    +0.000 A 
ATOM      3  C   UNL     1      48.801   8.726  16.613  0.00  0.00    +0.000 A 
ATOM      4  S   UNL     1      48.351   8.820  18.257  0.00  0.00    +0.000 S 
ATOM      5  C   UNL     1      48.384   7.126  18.424  0.00  0.00    +0.000 A 
ATOM      6  N   UNL     1      48.081   6.529  19.607  0.00  0.00    +0.000 NA
ATOM      7  C   UNL     1      48.138   5.237  19.584  0.00  0.00    +0.000 A 
ATOM      8  N   UNL     1      48.469   4.491  18.484  0.00  0.00    +0.000 N 
ATOM      9  C   UNL     1      48.734   5.042  17.253  0.00  0.00    +0.000 A 
ATOM     10  O   UNL     1      48.932   4.343  16.267  0.00  0.00    +0.000 OA
ATOM     11  C   UNL     1      48.721   6.496  17.238  0.00  0.00    +0.000 A 
ATOM     12  H   UNL     1      48.471   3.481  18.528  0.00  0.00    +0.000 HD
ENDBRANCH   1   2
BRANCH   1  13
ATOM     13  N   UNL     1      50.768   7.528  14.555  0.00  0.00    +0.000 NA
ATOM     14  H   UNL     1      50.903   7.867  13.605  0.00  0.00    +0.000 HD
ATOM     15  H   UNL     1      51.382   6.714  14.669  0.00  0.00    +0.000 HD
ENDBRANCH   1  13
BRANCH   1  16
ATOM     16  C   UNL     1      48.398   7.680  13.685  0.00  0.00    +0.000 C 
BRANCH  16  17
ATOM     17  C   UNL     1      47.191   6.850  13.296  0.00  0.00    +0.000 A 
ATOM     18  C   UNL     1      47.276   5.449  13.352  0.00  0.00    +0.000 A 
ATOM     19  C   UNL     1      46.161   4.665  13.063  0.00  0.00    +0.000 A 
ATOM     20  C   UNL     1      44.984   5.318  12.738  0.00  0.00    +0.000 A 
ATOM     21  N   UNL     1      44.859   6.662  12.650  0.00  0.00    +0.000 NA
ATOM     22  C   UNL     1      45.965   7.390  12.919  0.00  0.00    +0.000 A 
BRANCH  20  23
ATOM     23  S   UNL     1      43.480   4.359  12.516  0.00  0.00    +0.000 S 
ATOM     24  O   UNL     1      43.606   3.187  13.362  0.00  0.00    +0.000 OA
ATOM     25  O   UNL     1      42.379   5.285  12.700  0.00  0.00    +0.000 OA
BRANCH  23  26
ATOM     26  N   UNL     1      43.419   3.824  10.905  0.00  0.00    +0.000 NA
ATOM     27  C   UNL     1      43.951   2.497  10.555  0.00  0.00    +0.000 C 
ATOM     28  C   UNL     1      45.160   2.770   9.683  0.00  0.00    +0.000 C 
ATOM     29  C   UNL     1      44.840   4.083   8.985  0.00  0.00    +0.000 C 
ATOM     30  C   UNL     1      43.772   4.774   9.832  0.00  0.00    +0.000 C 
ENDBRANCH  23  26
ENDBRANCH  20  23
ENDBRANCH  16  17
ENDBRANCH   1  16
TORSDOF 6
ENDMDL
MODEL 6
REMARK VINA RESULT:    -6.896      2.675      8.712
REMARK INTER + INTRA:         -10.006
REMARK INTER:                  -9.285
REMARK INTRA:                  -0.721
REMARK UNBOUND:                -0.893
REMARK  Name = 
REMARK  6 active torsions:
REMARK  status: ('A' for Active; 'I' for Inactive)
REMARK    1  A    between atoms: N_1  and  C_2
REMARK    2  A    between atoms: C_2  and  C_3
REMARK    3  A    between atoms: C_2  and  C_18
REMARK    4  A    between atoms: C_3  and  C_4
REMARK    5  A    between atoms: C_7  and  S_8
REMARK    6  A    between atoms: S_8  and  N_11
REMARK                            x       y       z     vdW  Elec       q    Type
REMARK                         _______ _______ _______ _____ _____    ______ ____
ROOT
ATOM      1  C   UNL     1      45.259   6.447  11.877  0.00  0.00    +0.000 C 
ENDROOT
BRANCH   1   2
ATOM      2  C   UNL     1      44.699   5.058  11.640  0.00  0.00    +0.000 A 
ATOM      3  C   UNL     1      43.951   4.378  12.590  0.00  0.00    +0.000 A 
ATOM      4  S   UNL     1      43.428   2.840  12.071  0.00  0.00    +0.000 S 
ATOM      5  C   UNL     1      44.177   3.032  10.554  0.00  0.00    +0.000 A 
ATOM      6  N   UNL     1      44.105   2.062   9.605  0.00  0.00    +0.000 NA
ATOM      7  C   UNL     1      44.712   2.350   8.499  0.00  0.00    +0.000 A 
ATOM      8  N   UNL     1      45.381   3.520   8.259  0.00  0.00    +0.000 N 
ATOM      9  C   UNL     1      45.441   4.552   9.165  0.00  0.00    +0.000 A 
ATOM     10  O   UNL     1      45.965   5.623   8.884  0.00  0.00    +0.000 OA
ATOM     11  C   UNL     1      44.806   4.260  10.441  0.00  0.00    +0.000 A 
ATOM     12  H   UNL     1      45.814   3.691   7.362  0.00  0.00    +0.000 HD
ENDBRANCH   1   2
BRANCH   1  13
ATOM     13  N   UNL     1      44.604   7.351  10.930  0.00  0.00    +0.000 NA
ATOM     14  H   UNL     1      43.940   7.946  11.422  0.00  0.00    +0.000 HD
ATOM     15  H   UNL     1      44.063   6.792  10.262  0.00  0.00    +0.000 HD
ENDBRANCH   1  13
BRANCH   1  16
ATOM     16  C   UNL     1      46.809   6.499  11.830  0.00  0.00    +0.000 C 
BRANCH  16  17
ATOM     17  C   UNL     1      47.572   6.365  13.133  0.00  0.00    +0.000 A 
ATOM     18  C   UNL     1      48.554   7.315  13.453  0.00  0.00    +0.000 A 
ATOM     19  C   UNL     1      49.223   7.254  14.674  0.00  0.00    +0.000 A 
ATOM     20  C   UNL     1      48.871   6.238  15.547  0.00  0.00    +0.000 A 
ATOM     21  N   UNL     1      47.947   5.288  15.276  0.00  0.00    +0.000 NA
ATOM     22  C   UNL     1      47.332   5.368  14.076  0.00  0.00    +0.000 A 
BRANCH  20  23
ATOM     23  S   UNL     1      49.586   6.211  17.196  0.00  0.00    +0.000 S 
ATOM     24  O   UNL     1      50.859   5.523  17.085  0.00  0.00    +0.000 OA
ATOM     25  O   UNL     1      49.526   7.575  17.686  0.00  0.00    +0.000 OA
BRANCH  23  26
ATOM     26  N   UNL     1      48.584   5.275  18.198  0.00  0.00    +0.000 NA
ATOM     27  C   UNL     1      47.437   5.902  18.874  0.00  0.00    +0.000 C 
ATOM     28  C   UNL     1      47.773   5.858  20.352  0.00  0.00    +0.000 C 
ATOM     29  C   UNL     1      48.643   4.621  20.509  0.00  0.00    +0.000 C 
ATOM     30  C   UNL     1      49.211   4.313  19.124  0.00  0.00    +0.000 C 
ENDBRANCH  23  26
ENDBRANCH  20  23
ENDBRANCH  16  17
ENDBRANCH   1  16
TORSDOF 6
ENDMDL
MODEL 7
REMARK VINA RESULT:    -6.446      2.864      8.556
REMARK INTER + INTRA:          -9.412
REMARK INTER:                  -8.794
REMARK INTRA:                  -0.618
REMARK UNBOUND:                -0.893
REMARK  Name = 
REMARK  6 active torsions:
REMARK  status: ('A' for Active; 'I' for Inactive)
REMARK    1  A    between atoms: N_1  and  C_2
REMARK    2  A    between atoms: C_2  and  C_3
REMARK    3  A    between atoms: C_2  and  C_18
REMARK    4  A    between atoms: C_3  and  C_4
REMARK    5  A    between atoms: C_7  and  S_8
REMARK    6  A    between atoms: S_8  and  N_11
REMARK                            x       y       z     vdW  Elec       q    Type
REMARK                         _______ _______ _______ _____ _____    ______ ____
ROOT
ATOM      1  C   UNL     1      45.166   6.536  12.067  0.00  0.00    +0.000 C 
ENDROOT
BRANCH   1   2
ATOM      2  C   UNL     1      44.648   5.144  11.763  0.00  0.00    +0.000 A 
ATOM      3  C   UNL     1      43.889   4.413  12.664  0.00  0.00    +0.000 A 
ATOM      4  S   UNL     1      43.421   2.882  12.075  0.00  0.00    +0.000 S 
ATOM      5  C   UNL     1      44.211   3.146  10.590  0.00  0.00    +0.000 A 
ATOM      6  N   UNL     1      44.192   2.210   9.606  0.00  0.00    +0.000 NA
ATOM      7  C   UNL     1      44.826   2.552   8.530  0.00  0.00    +0.000 A 
ATOM      8  N   UNL     1      45.472   3.745   8.353  0.00  0.00    +0.000 N 
ATOM      9  C   UNL     1      45.479   4.745   9.297  0.00  0.00    +0.000 A 
ATOM     10  O   UNL     1      45.985   5.837   9.070  0.00  0.00    +0.000 OA
ATOM     11  C   UNL     1      44.813   4.392  10.540  0.00  0.00    +0.000 A 
ATOM     12  H   UNL     1      45.929   3.959   7.477  0.00  0.00    +0.000 HD
ENDBRANCH   1   2
BRANCH   1  13
ATOM     13  N   UNL     1      44.535   7.454  11.118  0.00  0.00    +0.000 NA
ATOM     14  H   UNL     1      43.619   7.735  11.464  0.00  0.00    +0.000 HD
ATOM     15  H   UNL     1      44.378   6.958  10.234  0.00  0.00    +0.000 HD
ENDBRANCH   1  13
BRANCH   1  16
ATOM     16  C   UNL     1      46.715   6.622  12.092  0.00  0.00    +0.000 C 
BRANCH  16  17
ATOM     17  C   UNL     1      47.434   6.241  13.371  0.00  0.00    +0.000 A 
ATOM     18  C   UNL     1      48.478   7.055  13.838  0.00  0.00    +0.000 A 
ATOM     19  C   UNL     1      49.112   6.763  15.045  0.00  0.00    +0.000 A 
ATOM     20  C   UNL     1      48.663   5.663  15.755  0.00  0.00    +0.000 A 
ATOM     21  N   UNL     1      47.677   4.837  15.336  0.00  0.00    +0.000 NA
ATOM     22  C   UNL     1      47.098   5.140  14.153  0.00  0.00    +0.000 A 
BRANCH  20  23
ATOM     23  S   UNL     1      49.335   5.340  17.391  0.00  0.00    +0.000 S 
ATOM     24  O   UNL     1      48.438   4.395  18.029  0.00  0.00    +0.000 OA
ATOM     25  O   UNL     1      50.734   5.011  17.195  0.00  0.00    +0.000 OA
BRANCH  23  26
ATOM     26  N   UNL     1      49.281   6.782  18.285  0.00  0.00    +0.000 NA
ATOM     27  C   UNL     1      47.987   7.433  18.545  0.00  0.00    +0.000 C 
ATOM     28  C   UNL     1      48.035   8.737  17.772  0.00  0.00    +0.000 C 
ATOM     29  C   UNL     1      49.508   9.113  17.748  0.00  0.00    +0.000 C 
ATOM     30  C   UNL     1      50.288   7.824  18.006  0.00  0.00    +0.000 C 
ENDBRANCH  23  26
ENDBRANCH  20  23
ENDBRANCH  16  17
ENDBRANCH   1  16
TORSDOF 6
ENDMDL
MODEL 8
REMARK VINA RESULT:    -6.121      3.097      3.759
REMARK INTER + INTRA:          -8.981
REMARK INTER:                  -8.239
REMARK INTRA:                  -0.743
REMARK UNBOUND:                -0.893
REMARK  Name = 
REMARK  6 active torsions:
REMARK  status: ('A' for Active; 'I' for Inactive)
REMARK    1  A    between atoms: N_1  and  C_2
REMARK    2  A    between atoms: C_2  and  C_3
REMARK    3  A    between atoms: C_2  and  C_18
REMARK    4  A    between atoms: C_3  and  C_4
REMARK    5  A    between atoms: C_7  and  S_8
REMARK    6  A    between atoms: S_8  and  N_11
REMARK                            x       y       z     vdW  Elec       q    Type
REMARK                         _______ _______ _______ _____ _____    ______ ____
ROOT
ATOM      1  C   UNL     1      47.885   6.608  14.307  0.00  0.00    +0.000 C 
ENDROOT
BRANCH   1   2
ATOM      2  C   UNL     1      48.888   6.460  15.433  0.00  0.00    +0.000 A 
ATOM      3  C   UNL     1      48.640   5.697  16.564  0.00  0.00    +0.000 A 
ATOM      4  S   UNL     1      49.935   5.684  17.674  0.00  0.00    +0.000 S 
ATOM      5  C   UNL     1      50.878   6.691  16.676  0.00  0.00    +0.000 A 
ATOM      6  N   UNL     1      52.133   7.066  17.039  0.00  0.00    +0.000 NA
ATOM      7  C   UNL     1      52.734   7.823  16.179  0.00  0.00    +0.000 A 
ATOM      8  N   UNL     1      52.193   8.234  14.991  0.00  0.00    +0.000 N 
ATOM      9  C   UNL     1      50.950   7.843  14.554  0.00  0.00    +0.000 A 
ATOM     10  O   UNL     1      50.534   8.150  13.444  0.00  0.00    +0.000 OA
ATOM     11  C   UNL     1      50.218   7.022  15.505  0.00  0.00    +0.000 A 
ATOM     12  H   UNL     1      52.728   8.807  14.352  0.00  0.00    +0.000 HD
ENDBRANCH   1   2
BRANCH   1  13
ATOM     13  N   UNL     1      47.472   8.012  14.269  0.00  0.00    +0.000 NA
ATOM     14  H   UNL     1      48.040   8.556  14.916  0.00  0.00    +0.000 HD
ATOM     15  H   UNL     1      46.503   8.079  14.598  0.00  0.00    +0.000 HD
ENDBRANCH   1  13
BRANCH   1  16
ATOM     16  C   UNL     1      46.704   5.606  14.402  0.00  0.00    +0.000 C 
BRANCH  16  17
ATOM     17  C   UNL     1      46.137   5.040  13.116  0.00  0.00    +0.000 A 
ATOM     18  C   UNL     1      46.053   5.864  11.983  0.00  0.00    +0.000 A 
ATOM     19  C   UNL     1      45.598   5.350  10.770  0.00  0.00    +0.000 A 
ATOM     20  C   UNL     1      45.250   4.010  10.732  0.00  0.00    +0.000 A 
ATOM     21  N   UNL     1      45.293   3.182  11.800  0.00  0.00    +0.000 NA
ATOM     22  C   UNL     1      45.722   3.719  12.964  0.00  0.00    +0.000 A 
BRANCH  20  23
ATOM     23  S   UNL     1      44.813   3.261   9.157  0.00  0.00    +0.000 S 
ATOM     24  O   UNL     1      44.124   2.021   9.464  0.00  0.00    +0.000 OA
ATOM     25  O   UNL     1      44.154   4.298   8.385  0.00  0.00    +0.000 OA
BRANCH  23  26
ATOM     26  N   UNL     1      46.246   2.863   8.338  0.00  0.00    +0.000 NA
ATOM     27  C   UNL     1      46.724   3.721   7.242  0.00  0.00    +0.000 C 
ATOM     28  C   UNL     1      46.601   2.874   5.990  0.00  0.00    +0.000 C 
ATOM     29  C   UNL     1      46.788   1.446   6.475  0.00  0.00    +0.000 C 
ATOM     30  C   UNL     1      46.481   1.452   7.972  0.00  0.00    +0.000 C 
ENDBRANCH  23  26
ENDBRANCH  20  23
ENDBRANCH  16  17
ENDBRANCH   1  16
TORSDOF 6
ENDMDL
MODEL 9
REMARK VINA RESULT:    -6.081      3.169      4.187
REMARK INTER + INTRA:          -8.929
REMARK INTER:                  -7.701
REMARK INTRA:                  -1.228
REMARK UNBOUND:                -0.893
REMARK  Name = 
REMARK  6 active torsions:
REMARK  status: ('A' for Active; 'I' for Inactive)
REMARK    1  A    between atoms: N_1  and  C_2
REMARK    2  A    between atoms: C_2  and  C_3
REMARK    3  A    between atoms: C_2  and  C_18
REMARK    4  A    between atoms: C_3  and  C_4
REMARK    5  A    between atoms: C_7  and  S_8
REMARK    6  A    between atoms: S_8  and  N_11
REMARK                            x       y       z     vdW  Elec       q    Type
REMARK                         _______ _______ _______ _____ _____    ______ ____
ROOT
ATOM      1  C   UNL     1      50.739   7.380  15.137  0.00  0.00    +0.000 C 
ENDROOT
BRANCH   1   2
ATOM      2  C   UNL     1      50.222   7.322  16.560  0.00  0.00    +0.000 A 
ATOM      3  C   UNL     1      50.728   8.118  17.576  0.00  0.00    +0.000 A 
ATOM      4  S   UNL     1      49.964   7.869  19.081  0.00  0.00    +0.000 S 
ATOM      5  C   UNL     1      48.923   6.693  18.424  0.00  0.00    +0.000 A 
ATOM      6  N   UNL     1      47.989   6.072  19.192  0.00  0.00    +0.000 NA
ATOM      7  C   UNL     1      47.263   5.209  18.557  0.00  0.00    +0.000 A 
ATOM      8  N   UNL     1      47.387   4.917  17.226  0.00  0.00    +0.000 N 
ATOM      9  C   UNL     1      48.279   5.552  16.395  0.00  0.00    +0.000 A 
ATOM     10  O   UNL     1      48.299   5.336  15.189  0.00  0.00    +0.000 OA
ATOM     11  C   UNL     1      49.147   6.503  17.071  0.00  0.00    +0.000 A 
ATOM     12  H   UNL     1      46.769   4.248  16.785  0.00  0.00    +0.000 HD
ENDBRANCH   1   2
BRANCH   1  13
ATOM     13  N   UNL     1      52.198   7.478  15.205  0.00  0.00    +0.000 NA
ATOM     14  H   UNL     1      52.493   8.421  14.958  0.00  0.00    +0.000 HD
ATOM     15  H   UNL     1      52.604   6.849  14.504  0.00  0.00    +0.000 HD
ENDBRANCH   1  13
BRANCH   1  16
ATOM     16  C   UNL     1      50.072   8.494  14.287  0.00  0.00    +0.000 C 
BRANCH  16  17
ATOM     17  C   UNL     1      48.816   8.149  13.511  0.00  0.00    +0.000 A 
ATOM     18  C   UNL     1      48.912   7.314  12.387  0.00  0.00    +0.000 A 
ATOM     19  C   UNL     1      47.765   6.928  11.696  0.00  0.00    +0.000 A 
ATOM     20  C   UNL     1      46.547   7.387  12.168  0.00  0.00    +0.000 A 
ATOM     21  N   UNL     1      46.405   8.210  13.232  0.00  0.00    +0.000 NA
ATOM     22  C   UNL     1      47.540   8.578  13.867  0.00  0.00    +0.000 A 
BRANCH  20  23
ATOM     23  S   UNL     1      45.030   6.789  11.412  0.00  0.00    +0.000 S 
ATOM     24  O   UNL     1      44.132   7.925  11.327  0.00  0.00    +0.000 OA
ATOM     25  O   UNL     1      45.429   6.075  10.214  0.00  0.00    +0.000 OA
BRANCH  23  26
ATOM     26  N   UNL     1      44.323   5.653  12.458  0.00  0.00    +0.000 NA
ATOM     27  C   UNL     1      45.173   4.681  13.164  0.00  0.00    +0.000 C 
ATOM     28  C   UNL     1      44.803   3.331  12.582  0.00  0.00    +0.000 C 
ATOM     29  C   UNL     1      43.345   3.477  12.177  0.00  0.00    +0.000 C 
ATOM     30  C   UNL     1      43.084   4.976  12.031  0.00  0.00    +0.000 C 
ENDBRANCH  23  26
ENDBRANCH  20  23
ENDBRANCH  16  17
ENDBRANCH   1  16
TORSDOF 6
ENDMDL
