MODEL 1
REMARK VINA RESULT:    -8.558      0.000      0.000
REMARK INTER + INTRA:         -11.891
REMARK INTER:                 -11.060
REMARK INTRA:                  -0.831
REMARK UNBOUND:                -0.831
REMARK  Name = 
REMARK  5 active torsions:
REMARK  status: ('A' for Active; 'I' for Inactive)
REMARK    1  A    between atoms: C_2  and  C_4
REMARK    2  A    between atoms: C_7  and  O_8
REMARK    3  A    between atoms: O_8  and  C_9
REMARK    4  A    between atoms: C_9  and  C_10
REMARK    5  A    between atoms: C_14  and  C_15
REMARK                            x       y       z     vdW  Elec       q    Type
REMARK                         _______ _______ _______ _____ _____    ______ ____
ROOT
ATOM      1  C   UNL     1      43.735   4.298  11.227  0.00  0.00    +0.000 C 
ENDROOT
BRANCH   1   2
ATOM      2  C   UNL     1      44.953   4.783  11.985  0.00  0.00    +0.000 A 
ATOM      3  C   UNL     1      45.572   3.897  12.878  0.00  0.00    +0.000 A 
ATOM      4  C   UNL     1      46.716   4.280  13.570  0.00  0.00    +0.000 A 
ATOM      5  C   UNL     1      47.263   5.546  13.362  0.00  0.00    +0.000 A 
ATOM      6  C   UNL     1      46.696   6.452  12.447  0.00  0.00    +0.000 A 
ATOM      7  C   UNL     1      45.520   6.052  11.783  0.00  0.00    +0.000 A 
BRANCH   6   8
ATOM      8  C   UNL     1      47.346   7.747  12.143  0.00  0.00    +0.000 A 
ATOM      9  C   UNL     1      46.649   8.954  12.308  0.00  0.00    +0.000 A 
ATOM     10  C   UNL     1      47.299  10.155  12.060  0.00  0.00    +0.000 A 
ATOM     11  N   UNL     1      48.586  10.249  11.672  0.00  0.00    +0.000 NA
ATOM     12  C   UNL     1      49.248   9.087  11.519  0.00  0.00    +0.000 A 
ATOM     13  C   UNL     1      48.682   7.838  11.731  0.00  0.00    +0.000 A 
ENDBRANCH   6   8
ENDBRANCH   1   2
BRANCH   1  14
ATOM     14  O   UNL     1      43.738   4.700   9.850  0.00  0.00    +0.000 OA
BRANCH  14  18
ATOM     15  C   UNL     1      46.443   2.489   7.673  0.00  0.00    +0.000 A 
ATOM     16  C   UNL     1      45.596   1.845   8.575  0.00  0.00    +0.000 A 
ATOM     17  C   UNL     1      44.682   2.603   9.313  0.00  0.00    +0.000 A 
ATOM     18  C   UNL     1      44.658   3.977   9.118  0.00  0.00    +0.000 A 
ATOM     19  N   UNL     1      45.476   4.623   8.263  0.00  0.00    +0.000 NA
ATOM     20  C   UNL     1      46.359   3.869   7.566  0.00  0.00    +0.000 A 
BRANCH  15  22
ATOM     21  N   UNL     1      48.518   2.510   6.410  0.00  0.00    +0.000 N 
ATOM     22  C   UNL     1      47.442   1.787   6.840  0.00  0.00    +0.000 C 
ATOM     23  O   UNL     1      47.341   0.595   6.587  0.00  0.00    +0.000 OA
ATOM     24  H   UNL     1      49.250   1.983   5.950  0.00  0.00    +0.000 HD
ATOM     25  H   UNL     1      48.770   3.402   6.812  0.00  0.00    +0.000 HD
ENDBRANCH  15  22
ENDBRANCH  14  18
ENDBRANCH   1  14
TORSDOF 5
ENDMDL
MODEL 2
REMARK VINA RESULT:    -8.351      2.152      3.396
REMARK INTER + INTRA:         -11.623
REMARK INTER:                 -10.870
REMARK INTRA:                  -0.753
REMARK UNBOUND:                -0.831
REMARK  Name = 
REMARK  5 active torsions:
REMARK  status: ('A' for Active; 'I' for Inactive)
REMARK    1  A    between atoms: C_2  and  C_4
REMARK    2  A    between atoms: C_7  and  O_8
REMARK    3  A    between atoms: O_8  and  C_9
REMARK    4  A    between atoms: C_9  and  C_10
REMARK    5  A    between atoms: C_14  and  C_15
REMARK                            x       y       z     vdW  Elec       q    Type
REMARK                         _______ _______ _______ _____ _____    ______ ____
ROOT
ATOM      1  C   UNL     1      43.870   4.465  11.297  0.00  0.00    +0.000 C 
ENDROOT
BRANCH   1   2
ATOM      2  C   UNL     1      45.024   5.241  11.896  0.00  0.00    +0.000 A 
ATOM      3  C   UNL     1      45.333   6.495  11.351  0.00  0.00    +0.000 A 
ATOM      4  C   UNL     1      46.358   7.264  11.889  0.00  0.00    +0.000 A 
ATOM      5  C   UNL     1      47.075   6.795  12.991  0.00  0.00    +0.000 A 
ATOM      6  C   UNL     1      46.773   5.559  13.592  0.00  0.00    +0.000 A 
ATOM      7  C   UNL     1      45.751   4.786  13.008  0.00  0.00    +0.000 A 
BRANCH   6   8
ATOM      8  C   UNL     1      47.456   5.119  14.830  0.00  0.00    +0.000 A 
ATOM      9  C   UNL     1      48.288   5.998  15.539  0.00  0.00    +0.000 A 
ATOM     10  C   UNL     1      48.877   5.574  16.723  0.00  0.00    +0.000 A 
ATOM     11  N   UNL     1      48.695   4.351  17.258  0.00  0.00    +0.000 NA
ATOM     12  C   UNL     1      47.894   3.514  16.573  0.00  0.00    +0.000 A 
ATOM     13  C   UNL     1      47.270   3.842  15.377  0.00  0.00    +0.000 A 
ENDBRANCH   6   8
ENDBRANCH   1   2
BRANCH   1  14
ATOM     14  O   UNL     1      43.721   4.687   9.888  0.00  0.00    +0.000 OA
BRANCH  14  18
ATOM     15  C   UNL     1      46.417   2.439   7.738  0.00  0.00    +0.000 A 
ATOM     16  C   UNL     1      45.587   1.813   8.669  0.00  0.00    +0.000 A 
ATOM     17  C   UNL     1      44.677   2.584   9.397  0.00  0.00    +0.000 A 
ATOM     18  C   UNL     1      44.637   3.951   9.164  0.00  0.00    +0.000 A 
ATOM     19  N   UNL     1      45.438   4.581   8.280  0.00  0.00    +0.000 NA
ATOM     20  C   UNL     1      46.318   3.814   7.593  0.00  0.00    +0.000 A 
BRANCH  15  22
ATOM     21  N   UNL     1      48.478   2.440   6.453  0.00  0.00    +0.000 N 
ATOM     22  C   UNL     1      47.410   1.722   6.912  0.00  0.00    +0.000 C 
ATOM     23  O   UNL     1      47.313   0.524   6.688  0.00  0.00    +0.000 OA
ATOM     24  H   UNL     1      49.208   1.907   5.998  0.00  0.00    +0.000 HD
ATOM     25  H   UNL     1      48.729   3.343   6.831  0.00  0.00    +0.000 HD
ENDBRANCH  15  22
ENDBRANCH  14  18
ENDBRANCH   1  14
TORSDOF 5
ENDMDL
MODEL 3
REMARK VINA RESULT:    -7.990      1.580      2.253
REMARK INTER + INTRA:         -11.156
REMARK INTER:                 -10.381
REMARK INTRA:                  -0.776
REMARK UNBOUND:                -0.831
REMARK  Name = 
REMARK  5 active torsions:
REMARK  status: ('A' for Active; 'I' for Inactive)
REMARK    1  A    between atoms: C_2  and  C_4
REMARK    2  A    between atoms: C_7  and  O_8
REMARK    3  A    between atoms: O_8  and  C_9
REMARK    4  A    between atoms: C_9  and  C_10
REMARK    5  A    between atoms: C_14  and  C_15
REMARK                            x       y       z     vdW  Elec       q    Type
REMARK                         _______ _______ _______ _____ _____    ______ ____
ROOT
ATOM      1  C   UNL     1      44.211   3.400  11.574  0.00  0.00    +0.000 C 
ENDROOT
BRANCH   1   2
ATOM      2  C   UNL     1      44.619   4.858  11.612  0.00  0.00    +0.000 A 
ATOM      3  C   UNL     1      43.636   5.827  11.368  0.00  0.00    +0.000 A 
ATOM      4  C   UNL     1      43.950   7.180  11.429  0.00  0.00    +0.000 A 
ATOM      5  C   UNL     1      45.247   7.579  11.753  0.00  0.00    +0.000 A 
ATOM      6  C   UNL     1      46.255   6.640  12.042  0.00  0.00    +0.000 A 
ATOM      7  C   UNL     1      45.918   5.276  11.942  0.00  0.00    +0.000 A 
BRANCH   6   8
ATOM      8  C   UNL     1      47.596   7.068  12.500  0.00  0.00    +0.000 A 
ATOM      9  C   UNL     1      48.025   6.799  13.809  0.00  0.00    +0.000 A 
ATOM     10  C   UNL     1      49.306   7.169  14.196  0.00  0.00    +0.000 A 
ATOM     11  N   UNL     1      50.193   7.775  13.383  0.00  0.00    +0.000 NA
ATOM     12  C   UNL     1      49.774   8.027  12.128  0.00  0.00    +0.000 A 
ATOM     13  C   UNL     1      48.512   7.706  11.651  0.00  0.00    +0.000 A 
ENDBRANCH   6   8
ENDBRANCH   1   2
BRANCH   1  14
ATOM     14  O   UNL     1      43.603   3.023  10.332  0.00  0.00    +0.000 OA
BRANCH  14  18
ATOM     15  C   UNL     1      46.436   2.527   7.387  0.00  0.00    +0.000 A 
ATOM     16  C   UNL     1      45.730   3.728   7.467  0.00  0.00    +0.000 A 
ATOM     17  C   UNL     1      44.767   3.887   8.468  0.00  0.00    +0.000 A 
ATOM     18  C   UNL     1      44.550   2.835   9.346  0.00  0.00    +0.000 A 
ATOM     19  N   UNL     1      45.210   1.661   9.280  0.00  0.00    +0.000 NA
ATOM     20  C   UNL     1      46.131   1.527   8.296  0.00  0.00    +0.000 A 
BRANCH  15  22
ATOM     21  N   UNL     1      47.452   3.004   5.233  0.00  0.00    +0.000 N 
ATOM     22  C   UNL     1      47.476   2.254   6.373  0.00  0.00    +0.000 C 
ATOM     23  O   UNL     1      48.356   1.427   6.566  0.00  0.00    +0.000 OA
ATOM     24  H   UNL     1      48.243   2.890   4.610  0.00  0.00    +0.000 HD
ATOM     25  H   UNL     1      46.920   3.860   5.155  0.00  0.00    +0.000 HD
ENDBRANCH  15  22
ENDBRANCH  14  18
ENDBRANCH   1  14
TORSDOF 5
ENDMDL
MODEL 4
REMARK VINA RESULT:    -6.873      2.650      7.068
REMARK INTER + INTRA:          -9.713
REMARK INTER:                  -9.233
REMARK INTRA:                  -0.480
REMARK UNBOUND:                -0.831
REMARK  Name = 
REMARK  5 active torsions:
REMARK  status: ('A' for Active; 'I' for Inactive)
REMARK    1  A    between atoms: C_2  and  C_4
REMARK    2  A    between atoms: C_7  and  O_8
REMARK    3  A    between atoms: O_8  and  C_9
REMARK    4  A    between atoms: C_9  and  C_10
REMARK    5  A    between atoms: C_14  and  C_15
REMARK                            x       y       z     vdW  Elec       q    Type
REMARK                         _______ _______ _______ _____ _____    ______ ____
ROOT
ATOM      1  C   UNL     1      44.190   6.561  11.489  0.00  0.00    +0.000 C 
ENDROOT
BRANCH   1   2
ATOM      2  C   UNL     1      44.228   5.098  11.098  0.00  0.00    +0.000 A 
ATOM      3  C   UNL     1      43.409   4.204  11.803  0.00  0.00    +0.000 A 
ATOM      4  C   UNL     1      43.377   2.857  11.459  0.00  0.00    +0.000 A 
ATOM      5  C   UNL     1      44.150   2.393  10.395  0.00  0.00    +0.000 A 
ATOM      6  C   UNL     1      44.957   3.263   9.637  0.00  0.00    +0.000 A 
ATOM      7  C   UNL     1      44.995   4.616  10.026  0.00  0.00    +0.000 A 
BRANCH   6   8
ATOM      8  C   UNL     1      45.682   2.789   8.437  0.00  0.00    +0.000 A 
ATOM      9  C   UNL     1      45.953   3.662   7.373  0.00  0.00    +0.000 A 
ATOM     10  C   UNL     1      46.677   3.203   6.281  0.00  0.00    +0.000 A 
ATOM     11  N   UNL     1      47.159   1.949   6.170  0.00  0.00    +0.000 NA
ATOM     12  C   UNL     1      46.896   1.118   7.196  0.00  0.00    +0.000 A 
ATOM     13  C   UNL     1      46.173   1.481   8.324  0.00  0.00    +0.000 A 
ENDBRANCH   6   8
ENDBRANCH   1   2
BRANCH   1  14
ATOM     14  O   UNL     1      45.412   7.249  11.190  0.00  0.00    +0.000 OA
BRANCH  14  18
ATOM     15  C   UNL     1      48.020   7.134  14.373  0.00  0.00    +0.000 A 
ATOM     16  C   UNL     1      47.781   5.973  13.637  0.00  0.00    +0.000 A 
ATOM     17  C   UNL     1      46.892   6.020  12.560  0.00  0.00    +0.000 A 
ATOM     18  C   UNL     1      46.276   7.229  12.266  0.00  0.00    +0.000 A 
ATOM     19  N   UNL     1      46.480   8.360  12.971  0.00  0.00    +0.000 NA
ATOM     20  C   UNL     1      47.339   8.287  14.016  0.00  0.00    +0.000 A 
BRANCH  15  22
ATOM     21  N   UNL     1      48.541   7.930  16.608  0.00  0.00    +0.000 N 
ATOM     22  C   UNL     1      48.942   7.199  15.526  0.00  0.00    +0.000 C 
ATOM     23  O   UNL     1      49.998   6.583  15.537  0.00  0.00    +0.000 OA
ATOM     24  H   UNL     1      49.125   7.860  17.432  0.00  0.00    +0.000 HD
ATOM     25  H   UNL     1      47.583   8.223  16.742  0.00  0.00    +0.000 HD
ENDBRANCH  15  22
ENDBRANCH  14  18
ENDBRANCH   1  14
TORSDOF 5
ENDMDL
MODEL 5
REMARK VINA RESULT:    -6.830      5.300      7.935
REMARK INTER + INTRA:          -9.657
REMARK INTER:                  -8.915
REMARK INTRA:                  -0.742
REMARK UNBOUND:                -0.831
REMARK  Name = 
REMARK  5 active torsions:
REMARK  status: ('A' for Active; 'I' for Inactive)
REMARK    1  A    between atoms: C_2  and  C_4
REMARK    2  A    between atoms: C_7  and  O_8
REMARK    3  A    between atoms: O_8  and  C_9
REMARK    4  A    between atoms: C_9  and  C_10
REMARK    5  A    between atoms: C_14  and  C_15
REMARK                            x       y       z     vdW  Elec       q    Type
REMARK                         _______ _______ _______ _____ _____    ______ ____
ROOT
ATOM      1  C   UNL     1      48.637   6.391  15.698  0.00  0.00    +0.000 C 
ENDROOT
BRANCH   1   2
ATOM      2  C   UNL     1      48.081   6.507  14.294  0.00  0.00    +0.000 A 
ATOM      3  C   UNL     1      48.778   7.299  13.370  0.00  0.00    +0.000 A 
ATOM      4  C   UNL     1      48.331   7.408  12.057  0.00  0.00    +0.000 A 
ATOM      5  C   UNL     1      47.192   6.712  11.651  0.00  0.00    +0.000 A 
ATOM      6  C   UNL     1      46.485   5.878  12.536  0.00  0.00    +0.000 A 
ATOM      7  C   UNL     1      46.940   5.810  13.867  0.00  0.00    +0.000 A 
BRANCH   6   8
ATOM      8  C   UNL     1      45.348   5.051  12.071  0.00  0.00    +0.000 A 
ATOM      9  C   UNL     1      45.105   4.875  10.700  0.00  0.00    +0.000 A 
ATOM     10  C   UNL     1      44.062   4.055  10.292  0.00  0.00    +0.000 A 
ATOM     11  N   UNL     1      43.250   3.392  11.139  0.00  0.00    +0.000 NA
ATOM     12  C   UNL     1      43.491   3.564  12.452  0.00  0.00    +0.000 A 
ATOM     13  C   UNL     1      44.502   4.370  12.957  0.00  0.00    +0.000 A 
ENDBRANCH   6   8
ENDBRANCH   1   2
BRANCH   1  14
ATOM     14  O   UNL     1      48.070   5.299  16.434  0.00  0.00    +0.000 OA
BRANCH  14  18
ATOM     15  C   UNL     1      50.891   2.451  17.363  0.00  0.00    +0.000 A 
ATOM     16  C   UNL     1      49.595   2.053  17.033  0.00  0.00    +0.000 A 
ATOM     17  C   UNL     1      48.642   3.027  16.723  0.00  0.00    +0.000 A 
ATOM     18  C   UNL     1      49.027   4.360  16.757  0.00  0.00    +0.000 A 
ATOM     19  N   UNL     1      50.269   4.769  17.086  0.00  0.00    +0.000 NA
ATOM     20  C   UNL     1      51.173   3.808  17.393  0.00  0.00    +0.000 A 
BRANCH  15  22
ATOM     21  N   UNL     1      51.614   0.257  18.114  0.00  0.00    +0.000 N 
ATOM     22  C   UNL     1      51.977   1.507  17.704  0.00  0.00    +0.000 C 
ATOM     23  O   UNL     1      53.154   1.812  17.576  0.00  0.00    +0.000 OA
ATOM     24  H   UNL     1      52.367  -0.411  18.221  0.00  0.00    +0.000 HD
ATOM     25  H   UNL     1      50.683  -0.112  17.978  0.00  0.00    +0.000 HD
ENDBRANCH  15  22
ENDBRANCH  14  18
ENDBRANCH   1  14
TORSDOF 5
ENDMDL
MODEL 6
REMARK VINA RESULT:    -6.766      2.552      6.751
REMARK INTER + INTRA:          -9.575
REMARK INTER:                  -8.752
REMARK INTRA:                  -0.823
REMARK UNBOUND:                -0.831
REMARK  Name = 
REMARK  5 active torsions:
REMARK  status: ('A' for Active; 'I' for Inactive)
REMARK    1  A    between atoms: C_2  and  C_4
REMARK    2  A    between atoms: C_7  and  O_8
REMARK    3  A    between atoms: O_8  and  C_9
REMARK    4  A    between atoms: C_9  and  C_10
REMARK    5  A    between atoms: C_14  and  C_15
REMARK                            x       y       z     vdW  Elec       q    Type
REMARK                         _______ _______ _______ _____ _____    ______ ____
ROOT
ATOM      1  C   UNL     1      44.630   6.049  12.187  0.00  0.00    +0.000 C 
ENDROOT
BRANCH   1   2
ATOM      2  C   UNL     1      44.488   4.707  11.499  0.00  0.00    +0.000 A 
ATOM      3  C   UNL     1      43.505   3.824  11.968  0.00  0.00    +0.000 A 
ATOM      4  C   UNL     1      43.308   2.596  11.347  0.00  0.00    +0.000 A 
ATOM      5  C   UNL     1      44.079   2.245  10.239  0.00  0.00    +0.000 A 
ATOM      6  C   UNL     1      45.051   3.117   9.713  0.00  0.00    +0.000 A 
ATOM      7  C   UNL     1      45.252   4.341  10.379  0.00  0.00    +0.000 A 
BRANCH   6   8
ATOM      8  C   UNL     1      45.783   2.791   8.468  0.00  0.00    +0.000 A 
ATOM      9  C   UNL     1      46.271   1.495   8.243  0.00  0.00    +0.000 A 
ATOM     10  C   UNL     1      46.912   1.206   7.047  0.00  0.00    +0.000 A 
ATOM     11  N   UNL     1      47.097   2.101   6.056  0.00  0.00    +0.000 NA
ATOM     12  C   UNL     1      46.624   3.342   6.279  0.00  0.00    +0.000 A 
ATOM     13  C   UNL     1      45.980   3.729   7.445  0.00  0.00    +0.000 A 
ENDBRANCH   6   8
ENDBRANCH   1   2
BRANCH   1  14
ATOM     14  O   UNL     1      45.592   6.032  13.250  0.00  0.00    +0.000 OA
BRANCH  14  18
ATOM     15  C   UNL     1      49.066   7.932  12.126  0.00  0.00    +0.000 A 
ATOM     16  C   UNL     1      47.834   8.499  11.798  0.00  0.00    +0.000 A 
ATOM     17  C   UNL     1      46.659   7.846  12.180  0.00  0.00    +0.000 A 
ATOM     18  C   UNL     1      46.768   6.649  12.874  0.00  0.00    +0.000 A 
ATOM     19  N   UNL     1      47.945   6.075  13.191  0.00  0.00    +0.000 NA
ATOM     20  C   UNL     1      49.070   6.721  12.802  0.00  0.00    +0.000 A 
BRANCH  15  22
ATOM     21  N   UNL     1      51.487   7.786  11.997  0.00  0.00    +0.000 N 
ATOM     22  C   UNL     1      50.368   8.538  11.777  0.00  0.00    +0.000 C 
ATOM     23  O   UNL     1      50.442   9.645  11.263  0.00  0.00    +0.000 OA
ATOM     24  H   UNL     1      52.354   8.166  11.636  0.00  0.00    +0.000 HD
ATOM     25  H   UNL     1      51.450   6.790  12.163  0.00  0.00    +0.000 HD
ENDBRANCH  15  22
ENDBRANCH  14  18
ENDBRANCH   1  14
TORSDOF 5
ENDMDL
MODEL 7
REMARK VINA RESULT:    -6.371      5.771      8.377
REMARK INTER + INTRA:          -9.064
REMARK INTER:                  -8.321
REMARK INTRA:                  -0.744
REMARK UNBOUND:                -0.831
REMARK  Name = 
REMARK  5 active torsions:
REMARK  status: ('A' for Active; 'I' for Inactive)
REMARK    1  A    between atoms: C_2  and  C_4
REMARK    2  A    between atoms: C_7  and  O_8
REMARK    3  A    between atoms: O_8  and  C_9
REMARK    4  A    between atoms: C_9  and  C_10
REMARK    5  A    between atoms: C_14  and  C_15
REMARK                            x       y       z     vdW  Elec       q    Type
REMARK                         _______ _______ _______ _____ _____    ______ ____
ROOT
ATOM      1  C   UNL     1      47.594   4.339  16.629  0.00  0.00    +0.000 C 
ENDROOT
BRANCH   1   2
ATOM      2  C   UNL     1      47.381   4.987  15.277  0.00  0.00    +0.000 A 
ATOM      3  C   UNL     1      48.201   6.069  14.925  0.00  0.00    +0.000 A 
ATOM      4  C   UNL     1      48.073   6.675  13.680  0.00  0.00    +0.000 A 
ATOM      5  C   UNL     1      47.133   6.195  12.767  0.00  0.00    +0.000 A 
ATOM      6  C   UNL     1      46.315   5.089  13.066  0.00  0.00    +0.000 A 
ATOM      7  C   UNL     1      46.444   4.513  14.345  0.00  0.00    +0.000 A 
BRANCH   6   8
ATOM      8  C   UNL     1      45.405   4.510  12.052  0.00  0.00    +0.000 A 
ATOM      9  C   UNL     1      44.481   3.515  12.406  0.00  0.00    +0.000 A 
ATOM     10  C   UNL     1      43.606   3.024  11.446  0.00  0.00    +0.000 A 
ATOM     11  N   UNL     1      43.574   3.452  10.168  0.00  0.00    +0.000 NA
ATOM     12  C   UNL     1      44.462   4.408   9.838  0.00  0.00    +0.000 A 
ATOM     13  C   UNL     1      45.382   4.953  10.723  0.00  0.00    +0.000 A 
ENDBRANCH   6   8
ENDBRANCH   1   2
BRANCH   1  14
ATOM     14  O   UNL     1      48.039   2.979  16.532  0.00  0.00    +0.000 OA
BRANCH  14  18
ATOM     15  C   UNL     1      51.929   2.631  17.832  0.00  0.00    +0.000 A 
ATOM     16  C   UNL     1      51.223   3.808  18.082  0.00  0.00    +0.000 A 
ATOM     17  C   UNL     1      49.904   3.920  17.634  0.00  0.00    +0.000 A 
ATOM     18  C   UNL     1      49.347   2.847  16.952  0.00  0.00    +0.000 A 
ATOM     19  N   UNL     1      50.013   1.705  16.687  0.00  0.00    +0.000 NA
ATOM     20  C   UNL     1      51.293   1.624  17.122  0.00  0.00    +0.000 A 
BRANCH  15  22
ATOM     21  N   UNL     1      53.570   2.392  19.606  0.00  0.00    +0.000 N 
ATOM     22  C   UNL     1      53.324   2.404  18.263  0.00  0.00    +0.000 C 
ATOM     23  O   UNL     1      54.216   2.183  17.456  0.00  0.00    +0.000 OA
ATOM     24  H   UNL     1      54.502   2.111  19.883  0.00  0.00    +0.000 HD
ATOM     25  H   UNL     1      52.835   2.303  20.293  0.00  0.00    +0.000 HD
ENDBRANCH  15  22
ENDBRANCH  14  18
ENDBRANCH   1  14
TORSDOF 5
ENDMDL
MODEL 8
REMARK VINA RESULT:    -6.314      4.590      8.234
REMARK INTER + INTRA:          -8.991
REMARK INTER:                  -8.272
REMARK INTRA:                  -0.719
REMARK UNBOUND:                -0.831
REMARK  Name = 
REMARK  5 active torsions:
REMARK  status: ('A' for Active; 'I' for Inactive)
REMARK    1  A    between atoms: C_2  and  C_4
REMARK    2  A    between atoms: C_7  and  O_8
REMARK    3  A    between atoms: O_8  and  C_9
REMARK    4  A    between atoms: C_9  and  C_10
REMARK    5  A    between atoms: C_14  and  C_15
REMARK                            x       y       z     vdW  Elec       q    Type
REMARK                         _______ _______ _______ _____ _____    ______ ____
ROOT
ATOM      1  C   UNL     1      48.255   7.551  13.877  0.00  0.00    +0.000 C 
ENDROOT
BRANCH   1   2
ATOM      2  C   UNL     1      47.005   7.474  13.025  0.00  0.00    +0.000 A 
ATOM      3  C   UNL     1      46.202   8.619  12.923  0.00  0.00    +0.000 A 
ATOM      4  C   UNL     1      45.065   8.613  12.123  0.00  0.00    +0.000 A 
ATOM      5  C   UNL     1      44.728   7.466  11.402  0.00  0.00    +0.000 A 
ATOM      6  C   UNL     1      45.526   6.308  11.447  0.00  0.00    +0.000 A 
ATOM      7  C   UNL     1      46.655   6.331  12.289  0.00  0.00    +0.000 A 
BRANCH   6   8
ATOM      8  C   UNL     1      45.231   5.137  10.591  0.00  0.00    +0.000 A 
ATOM      9  C   UNL     1      45.641   5.109   9.250  0.00  0.00    +0.000 A 
ATOM     10  C   UNL     1      45.393   3.978   8.484  0.00  0.00    +0.000 A 
ATOM     11  N   UNL     1      44.778   2.873   8.950  0.00  0.00    +0.000 NA
ATOM     12  C   UNL     1      44.390   2.907  10.239  0.00  0.00    +0.000 A 
ATOM     13  C   UNL     1      44.583   3.994  11.080  0.00  0.00    +0.000 A 
ENDBRANCH   6   8
ENDBRANCH   1   2
BRANCH   1  14
ATOM     14  O   UNL     1      48.808   6.263  14.175  0.00  0.00    +0.000 OA
BRANCH  14  18
ATOM     15  C   UNL     1      48.437   5.428  18.188  0.00  0.00    +0.000 A 
ATOM     16  C   UNL     1      48.912   6.677  17.786  0.00  0.00    +0.000 A 
ATOM     17  C   UNL     1      49.039   6.951  16.422  0.00  0.00    +0.000 A 
ATOM     18  C   UNL     1      48.685   5.961  15.516  0.00  0.00    +0.000 A 
ATOM     19  N   UNL     1      48.236   4.743  15.880  0.00  0.00    +0.000 NA
ATOM     20  C   UNL     1      48.131   4.497  17.208  0.00  0.00    +0.000 A 
BRANCH  15  22
ATOM     21  N   UNL     1      48.451   3.717  19.912  0.00  0.00    +0.000 N 
ATOM     22  C   UNL     1      48.260   5.033  19.602  0.00  0.00    +0.000 C 
ATOM     23  O   UNL     1      48.004   5.856  20.469  0.00  0.00    +0.000 OA
ATOM     24  H   UNL     1      48.450   3.490  20.899  0.00  0.00    +0.000 HD
ATOM     25  H   UNL     1      48.916   3.073  19.289  0.00  0.00    +0.000 HD
ENDBRANCH  15  22
ENDBRANCH  14  18
ENDBRANCH   1  14
TORSDOF 5
ENDMDL
MODEL 9
REMARK VINA RESULT:    -6.164      5.568      7.640
REMARK INTER + INTRA:          -8.796
REMARK INTER:                  -8.270
REMARK INTRA:                  -0.527
REMARK UNBOUND:                -0.831
REMARK  Name = 
REMARK  5 active torsions:
REMARK  status: ('A' for Active; 'I' for Inactive)
REMARK    1  A    between atoms: C_2  and  C_4
REMARK    2  A    between atoms: C_7  and  O_8
REMARK    3  A    between atoms: O_8  and  C_9
REMARK    4  A    between atoms: C_9  and  C_10
REMARK    5  A    between atoms: C_14  and  C_15
REMARK                            x       y       z     vdW  Elec       q    Type
REMARK                         _______ _______ _______ _____ _____    ______ ____
ROOT
ATOM      1  C   UNL     1      47.181   4.261  15.850  0.00  0.00    +0.000 C 
ENDROOT
BRANCH   1   2
ATOM      2  C   UNL     1      48.212   4.319  16.957  0.00  0.00    +0.000 A 
ATOM      3  C   UNL     1      47.901   5.048  18.113  0.00  0.00    +0.000 A 
ATOM      4  C   UNL     1      48.797   5.102  19.175  0.00  0.00    +0.000 A 
ATOM      5  C   UNL     1      50.007   4.412  19.098  0.00  0.00    +0.000 A 
ATOM      6  C   UNL     1      50.343   3.638  17.972  0.00  0.00    +0.000 A 
ATOM      7  C   UNL     1      49.432   3.627  16.898  0.00  0.00    +0.000 A 
BRANCH   6   8
ATOM      8  C   UNL     1      51.573   2.815  17.943  0.00  0.00    +0.000 A 
ATOM      9  C   UNL     1      52.777   3.308  18.469  0.00  0.00    +0.000 A 
ATOM     10  C   UNL     1      53.903   2.496  18.472  0.00  0.00    +0.000 A 
ATOM     11  N   UNL     1      53.921   1.232  18.004  0.00  0.00    +0.000 NA
ATOM     12  C   UNL     1      52.761   0.766  17.503  0.00  0.00    +0.000 A 
ATOM     13  C   UNL     1      51.588   1.504  17.446  0.00  0.00    +0.000 A 
ENDBRANCH   6   8
ENDBRANCH   1   2
BRANCH   1  14
ATOM     14  O   UNL     1      47.670   4.773  14.603  0.00  0.00    +0.000 OA
BRANCH  14  18
ATOM     15  C   UNL     1      44.637   5.514  11.921  0.00  0.00    +0.000 A 
ATOM     16  C   UNL     1      45.851   6.188  11.789  0.00  0.00    +0.000 A 
ATOM     17  C   UNL     1      46.875   5.933  12.706  0.00  0.00    +0.000 A 
ATOM     18  C   UNL     1      46.638   5.014  13.719  0.00  0.00    +0.000 A 
ATOM     19  N   UNL     1      45.469   4.361  13.875  0.00  0.00    +0.000 NA
ATOM     20  C   UNL     1      44.489   4.632  12.980  0.00  0.00    +0.000 A 
BRANCH  15  22
ATOM     21  N   UNL     1      42.735   6.828  11.176  0.00  0.00    +0.000 N 
ATOM     22  C   UNL     1      43.490   5.703  11.008  0.00  0.00    +0.000 C 
ATOM     23  O   UNL     1      43.255   4.914  10.104  0.00  0.00    +0.000 OA
ATOM     24  H   UNL     1      42.035   7.002  10.465  0.00  0.00    +0.000 HD
ATOM     25  H   UNL     1      43.049   7.618  11.721  0.00  0.00    +0.000 HD
ENDBRANCH  15  22
ENDBRANCH  14  18
ENDBRANCH   1  14
TORSDOF 5
ENDMDL
