MODEL 1
REMARK VINA RESULT:    -8.114      0.000      0.000
REMARK INTER + INTRA:         -12.055
REMARK INTER:                 -10.960
REMARK INTRA:                  -1.094
REMARK UNBOUND:                -1.094
REMARK  Name = 
REMARK  7 active torsions:
REMARK  status: ('A' for Active; 'I' for Inactive)
REMARK    1  A    between atoms: C_1  and  C_2
REMARK    2  A    between atoms: C_5  and  C_6
REMARK    3  A    between atoms: N_8  and  C_9
REMARK    4  A    between atoms: C_9  and  C_10
REMARK    5  A    between atoms: C_13  and  C_14
REMARK    6  A    between atoms: C_14  and  N_15
REMARK    7  A    between atoms: C_16  and  C_18
REMARK                            x       y       z     vdW  Elec       q    Type
REMARK                         _______ _______ _______ _____ _____    ______ ____
ROOT
ATOM      1  C   UNL     1      44.878   5.881  10.921  0.00  0.00    +0.000 A 
ATOM      2  C   UNL     1      44.268   6.732  11.853  0.00  0.00    +0.000 A 
ATOM      3  C   UNL     1      45.039   7.518  12.719  0.00  0.00    +0.000 A 
ATOM      4  C   UNL     1      46.439   7.486  12.657  0.00  0.00    +0.000 A 
ATOM      5  C   UNL     1      47.048   6.634  11.727  0.00  0.00    +0.000 A 
ATOM      6  C   UNL     1      46.278   5.850  10.861  0.00  0.00    +0.000 A 
ENDROOT
BRANCH   1   7
ATOM      7  C   UNL     1      44.048   5.030   9.995  0.00  0.00    +0.000 C 
BRANCH   7  10
ATOM      8  C   UNL     1      44.951   2.914   9.131  0.00  0.00    +0.000 C 
ATOM      9  O   UNL     1      44.338   2.255   9.963  0.00  0.00    +0.000 OA
ATOM     10  N   UNL     1      44.870   4.285   9.069  0.00  0.00    +0.000 N 
ATOM     11  H   UNL     1      45.430   4.801   8.407  0.00  0.00    +0.000 HD
BRANCH   8  16
ATOM     12  C   UNL     1      47.782   2.482   5.081  0.00  0.00    +0.000 C 
ATOM     13  C   UNL     1      47.084   2.093   6.329  0.00  0.00    +0.000 A 
ATOM     14  N   UNL     1      47.122   0.914   6.912  0.00  0.00    +0.000 NA
ATOM     15  C   UNL     1      46.343   1.029   8.033  0.00  0.00    +0.000 A 
ATOM     16  C   UNL     1      45.808   2.296   8.149  0.00  0.00    +0.000 A 
ATOM     17  N   UNL     1      46.293   2.959   7.042  0.00  0.00    +0.000 N 
ATOM     18  H   UNL     1      46.095   3.924   6.812  0.00  0.00    +0.000 HD
ENDBRANCH   8  16
ENDBRANCH   7  10
ENDBRANCH   1   7
BRANCH   4  19
ATOM     19  C   UNL     1      47.279   8.324  13.588  0.00  0.00    +0.000 C 
BRANCH  19  20
ATOM     20  N   UNL     1      47.659   7.588  14.767  0.00  0.00    +0.000 N 
ATOM     21  C   UNL     1      48.877   6.955  14.847  0.00  0.00    +0.000 C 
ATOM     22  O   UNL     1      49.706   7.029  13.944  0.00  0.00    +0.000 OA
ATOM     23  H   UNL     1      46.918   7.321  15.405  0.00  0.00    +0.000 HD
BRANCH  21  24
ATOM     24  C   UNL     1      49.166   6.233  16.094  0.00  0.00    +0.000 A 
ATOM     25  C   UNL     1      50.213   6.652  16.904  0.00  0.00    +0.000 A 
ATOM     26  S   UNL     1      50.375   5.743  18.339  0.00  0.00    +0.000 S 
ATOM     27  C   UNL     1      49.086   4.721  17.901  0.00  0.00    +0.000 A 
ATOM     28  N   UNL     1      48.710   3.688  18.701  0.00  0.00    +0.000 NA
ATOM     29  C   UNL     1      47.744   2.973  18.229  0.00  0.00    +0.000 A 
ATOM     30  N   UNL     1      47.116   3.202  17.032  0.00  0.00    +0.000 N 
ATOM     31  C   UNL     1      47.440   4.252  16.206  0.00  0.00    +0.000 A 
ATOM     32  O   UNL     1      46.830   4.454  15.162  0.00  0.00    +0.000 OA
ATOM     33  C   UNL     1      48.530   5.080  16.685  0.00  0.00    +0.000 A 
ATOM     34  H   UNL     1      46.361   2.609  16.722  0.00  0.00    +0.000 HD
ENDBRANCH  21  24
ENDBRANCH  19  20
ENDBRANCH   4  19
TORSDOF 6
ENDMDL
MODEL 2
REMARK VINA RESULT:    -7.422      1.796      2.027
REMARK INTER + INTRA:         -11.119
REMARK INTER:                 -10.298
REMARK INTRA:                  -0.821
REMARK UNBOUND:                -1.094
REMARK  Name = 
REMARK  7 active torsions:
REMARK  status: ('A' for Active; 'I' for Inactive)
REMARK    1  A    between atoms: C_1  and  C_2
REMARK    2  A    between atoms: C_5  and  C_6
REMARK    3  A    between atoms: N_8  and  C_9
REMARK    4  A    between atoms: C_9  and  C_10
REMARK    5  A    between atoms: C_13  and  C_14
REMARK    6  A    between atoms: C_14  and  N_15
REMARK    7  A    between atoms: C_16  and  C_18
REMARK                            x       y       z     vdW  Elec       q    Type
REMARK                         _______ _______ _______ _____ _____    ______ ____
ROOT
ATOM      1  C   UNL     1      45.639   4.560  12.378  0.00  0.00    +0.000 A 
ATOM      2  C   UNL     1      45.738   5.819  11.770  0.00  0.00    +0.000 A 
ATOM      3  C   UNL     1      46.538   6.824  12.328  0.00  0.00    +0.000 A 
ATOM      4  C   UNL     1      47.276   6.584  13.496  0.00  0.00    +0.000 A 
ATOM      5  C   UNL     1      47.175   5.326  14.104  0.00  0.00    +0.000 A 
ATOM      6  C   UNL     1      46.377   4.321  13.546  0.00  0.00    +0.000 A 
ENDROOT
BRANCH   1   7
ATOM      7  C   UNL     1      44.771   3.481  11.781  0.00  0.00    +0.000 C 
BRANCH   7  10
ATOM      8  C   UNL     1      45.078   3.085   9.375  0.00  0.00    +0.000 C 
ATOM      9  O   UNL     1      44.205   3.893   9.080  0.00  0.00    +0.000 OA
ATOM     10  N   UNL     1      45.426   2.816  10.678  0.00  0.00    +0.000 N 
ATOM     11  H   UNL     1      46.111   2.105  10.888  0.00  0.00    +0.000 HD
BRANCH   8  16
ATOM     12  C   UNL     1      47.861   2.272   5.351  0.00  0.00    +0.000 C 
ATOM     13  C   UNL     1      47.061   1.976   6.563  0.00  0.00    +0.000 A 
ATOM     14  N   UNL     1      46.829   0.787   7.075  0.00  0.00    +0.000 NA
ATOM     15  C   UNL     1      46.062   1.006   8.189  0.00  0.00    +0.000 A 
ATOM     16  C   UNL     1      45.809   2.351   8.372  0.00  0.00    +0.000 A 
ATOM     17  N   UNL     1      46.455   2.953   7.313  0.00  0.00    +0.000 N 
ATOM     18  H   UNL     1      46.477   3.949   7.138  0.00  0.00    +0.000 HD
ENDBRANCH   8  16
ENDBRANCH   7  10
ENDBRANCH   1   7
BRANCH   4  19
ATOM     19  C   UNL     1      48.136   7.660  14.108  0.00  0.00    +0.000 C 
BRANCH  19  20
ATOM     20  N   UNL     1      48.134   7.586  15.548  0.00  0.00    +0.000 N 
ATOM     21  C   UNL     1      49.179   7.011  16.231  0.00  0.00    +0.000 C 
ATOM     22  O   UNL     1      50.174   6.582  15.652  0.00  0.00    +0.000 OA
ATOM     23  H   UNL     1      47.244   7.712  16.017  0.00  0.00    +0.000 HD
BRANCH  21  24
ATOM     24  C   UNL     1      49.079   6.988  17.696  0.00  0.00    +0.000 A 
ATOM     25  C   UNL     1      49.183   8.173  18.412  0.00  0.00    +0.000 A 
ATOM     26  S   UNL     1      48.986   7.976  20.095  0.00  0.00    +0.000 S 
ATOM     27  C   UNL     1      48.809   6.291  19.932  0.00  0.00    +0.000 A 
ATOM     28  N   UNL     1      48.627   5.499  21.022  0.00  0.00    +0.000 NA
ATOM     29  C   UNL     1      48.545   4.238  20.757  0.00  0.00    +0.000 A 
ATOM     30  N   UNL     1      48.622   3.699  19.499  0.00  0.00    +0.000 N 
ATOM     31  C   UNL     1      48.773   4.463  18.366  0.00  0.00    +0.000 A 
ATOM     32  O   UNL     1      48.795   3.953  17.251  0.00  0.00    +0.000 OA
ATOM     33  C   UNL     1      48.883   5.888  18.611  0.00  0.00    +0.000 A 
ATOM     34  H   UNL     1      48.543   2.703  19.357  0.00  0.00    +0.000 HD
ENDBRANCH  21  24
ENDBRANCH  19  20
ENDBRANCH   4  19
TORSDOF 6
ENDMDL
MODEL 3
REMARK VINA RESULT:    -7.042      1.729      2.362
REMARK INTER + INTRA:         -10.607
REMARK INTER:                  -9.605
REMARK INTRA:                  -1.001
REMARK UNBOUND:                -1.094
REMARK  Name = 
REMARK  7 active torsions:
REMARK  status: ('A' for Active; 'I' for Inactive)
REMARK    1  A    between atoms: C_1  and  C_2
REMARK    2  A    between atoms: C_5  and  C_6
REMARK    3  A    between atoms: N_8  and  C_9
REMARK    4  A    between atoms: C_9  and  C_10
REMARK    5  A    between atoms: C_13  and  C_14
REMARK    6  A    between atoms: C_14  and  N_15
REMARK    7  A    between atoms: C_16  and  C_18
REMARK                            x       y       z     vdW  Elec       q    Type
REMARK                         _______ _______ _______ _____ _____    ______ ____
ROOT
ATOM      1  C   UNL     1      44.995   6.083  11.034  0.00  0.00    +0.000 A 
ATOM      2  C   UNL     1      44.445   6.979  11.961  0.00  0.00    +0.000 A 
ATOM      3  C   UNL     1      45.269   7.766  12.774  0.00  0.00    +0.000 A 
ATOM      4  C   UNL     1      46.665   7.690  12.664  0.00  0.00    +0.000 A 
ATOM      5  C   UNL     1      47.214   6.793  11.739  0.00  0.00    +0.000 A 
ATOM      6  C   UNL     1      46.391   6.007  10.925  0.00  0.00    +0.000 A 
ENDROOT
BRANCH   1   7
ATOM      7  C   UNL     1      44.106   5.231  10.164  0.00  0.00    +0.000 C 
BRANCH   7  10
ATOM      8  C   UNL     1      44.963   3.093   9.305  0.00  0.00    +0.000 C 
ATOM      9  O   UNL     1      44.410   2.457  10.195  0.00  0.00    +0.000 OA
ATOM     10  N   UNL     1      44.870   4.462   9.209  0.00  0.00    +0.000 N 
ATOM     11  H   UNL     1      45.382   4.960   8.496  0.00  0.00    +0.000 HD
BRANCH   8  16
ATOM     12  C   UNL     1      47.651   2.590   5.167  0.00  0.00    +0.000 C 
ATOM     13  C   UNL     1      46.967   2.215   6.428  0.00  0.00    +0.000 A 
ATOM     14  N   UNL     1      46.957   1.024   6.986  0.00  0.00    +0.000 NA
ATOM     15  C   UNL     1      46.217   1.158   8.132  0.00  0.00    +0.000 A 
ATOM     16  C   UNL     1      45.757   2.450   8.287  0.00  0.00    +0.000 A 
ATOM     17  N   UNL     1      46.246   3.108   7.179  0.00  0.00    +0.000 N 
ATOM     18  H   UNL     1      46.095   4.087   6.974  0.00  0.00    +0.000 HD
ENDBRANCH   8  16
ENDBRANCH   7  10
ENDBRANCH   1   7
BRANCH   4  19
ATOM     19  C   UNL     1      47.562   8.529  13.538  0.00  0.00    +0.000 C 
BRANCH  19  20
ATOM     20  N   UNL     1      47.695   7.965  14.858  0.00  0.00    +0.000 N 
ATOM     21  C   UNL     1      48.710   7.087  15.156  0.00  0.00    +0.000 C 
ATOM     22  O   UNL     1      49.568   6.784  14.331  0.00  0.00    +0.000 OA
ATOM     23  H   UNL     1      46.884   8.012  15.466  0.00  0.00    +0.000 HD
BRANCH  21  24
ATOM     24  C   UNL     1      48.756   6.571  16.531  0.00  0.00    +0.000 A 
ATOM     25  C   UNL     1      48.640   5.207  16.758  0.00  0.00    +0.000 A 
ATOM     26  S   UNL     1      48.772   4.772  18.403  0.00  0.00    +0.000 S 
ATOM     27  C   UNL     1      48.933   6.399  18.875  0.00  0.00    +0.000 A 
ATOM     28  N   UNL     1      49.063   6.736  20.186  0.00  0.00    +0.000 NA
ATOM     29  C   UNL     1      49.139   8.006  20.405  0.00  0.00    +0.000 A 
ATOM     30  N   UNL     1      49.101   8.970  19.430  0.00  0.00    +0.000 N 
ATOM     31  C   UNL     1      49.003   8.675  18.090  0.00  0.00    +0.000 A 
ATOM     32  O   UNL     1      49.016   9.558  17.241  0.00  0.00    +0.000 OA
ATOM     33  C   UNL     1      48.903   7.259  17.792  0.00  0.00    +0.000 A 
ATOM     34  H   UNL     1      49.172   9.948  19.666  0.00  0.00    +0.000 HD
ENDBRANCH  21  24
ENDBRANCH  19  20
ENDBRANCH   4  19
TORSDOF 6
ENDMDL
MODEL 4
REMARK VINA RESULT:    -7.005      4.653      7.297
REMARK INTER + INTRA:         -10.557
REMARK INTER:                  -9.627
REMARK INTRA:                  -0.930
REMARK UNBOUND:                -1.094
REMARK  Name = 
REMARK  7 active torsions:
REMARK  status: ('A' for Active; 'I' for Inactive)
REMARK    1  A    between atoms: C_1  and  C_2
REMARK    2  A    between atoms: C_5  and  C_6
REMARK    3  A    between atoms: N_8  and  C_9
REMARK    4  A    between atoms: C_9  and  C_10
REMARK    5  A    between atoms: C_13  and  C_14
REMARK    6  A    between atoms: C_14  and  N_15
REMARK    7  A    between atoms: C_16  and  C_18
REMARK                            x       y       z     vdW  Elec       q    Type
REMARK                         _______ _______ _______ _____ _____    ______ ____
ROOT
ATOM      1  C   UNL     1      50.442   8.699  11.521  0.00  0.00    +0.000 A 
ATOM      2  C   UNL     1      49.536   9.765  11.611  0.00  0.00    +0.000 A 
ATOM      3  C   UNL     1      48.242   9.566  12.108  0.00  0.00    +0.000 A 
ATOM      4  C   UNL     1      47.832   8.300  12.547  0.00  0.00    +0.000 A 
ATOM      5  C   UNL     1      48.737   7.234  12.455  0.00  0.00    +0.000 A 
ATOM      6  C   UNL     1      50.030   7.432  11.959  0.00  0.00    +0.000 A 
ENDROOT
BRANCH   1   7
ATOM      7  C   UNL     1      51.832   8.912  10.977  0.00  0.00    +0.000 C 
BRANCH   7  10
ATOM      8  C   UNL     1      53.001   7.132   9.750  0.00  0.00    +0.000 C 
ATOM      9  O   UNL     1      53.684   6.839  10.725  0.00  0.00    +0.000 OA
ATOM     10  N   UNL     1      52.064   8.138   9.780  0.00  0.00    +0.000 N 
ATOM     11  H   UNL     1      51.557   8.389   8.944  0.00  0.00    +0.000 HD
BRANCH   8  16
ATOM     12  C   UNL     1      54.027   3.460   6.577  0.00  0.00    +0.000 C 
ATOM     13  C   UNL     1      53.590   4.793   7.057  0.00  0.00    +0.000 A 
ATOM     14  N   UNL     1      53.134   5.780   6.316  0.00  0.00    +0.000 NA
ATOM     15  C   UNL     1      52.847   6.797   7.189  0.00  0.00    +0.000 A 
ATOM     16  C   UNL     1      53.131   6.439   8.492  0.00  0.00    +0.000 A 
ATOM     17  N   UNL     1      53.612   5.152   8.382  0.00  0.00    +0.000 N 
ATOM     18  H   UNL     1      53.918   4.580   9.158  0.00  0.00    +0.000 HD
ENDBRANCH   8  16
ENDBRANCH   7  10
ENDBRANCH   1   7
BRANCH   4  19
ATOM     19  C   UNL     1      46.439   8.073  13.080  0.00  0.00    +0.000 C 
BRANCH  19  20
ATOM     20  N   UNL     1      45.959   6.752  12.765  0.00  0.00    +0.000 N 
ATOM     21  C   UNL     1      45.013   6.555  11.788  0.00  0.00    +0.000 C 
ATOM     22  O   UNL     1      44.574   7.483  11.114  0.00  0.00    +0.000 OA
ATOM     23  H   UNL     1      46.124   6.023  13.451  0.00  0.00    +0.000 HD
BRANCH  21  24
ATOM     24  C   UNL     1      44.592   5.168  11.544  0.00  0.00    +0.000 A 
ATOM     25  C   UNL     1      43.897   4.477  12.527  0.00  0.00    +0.000 A 
ATOM     26  S   UNL     1      43.434   2.903  12.061  0.00  0.00    +0.000 S 
ATOM     27  C   UNL     1      44.196   3.068  10.549  0.00  0.00    +0.000 A 
ATOM     28  N   UNL     1      44.195   2.047   9.650  0.00  0.00    +0.000 NA
ATOM     29  C   UNL     1      44.841   2.297   8.560  0.00  0.00    +0.000 A 
ATOM     30  N   UNL     1      45.483   3.476   8.285  0.00  0.00    +0.000 N 
ATOM     31  C   UNL     1      45.483   4.546   9.149  0.00  0.00    +0.000 A 
ATOM     32  O   UNL     1      46.030   5.603   8.855  0.00  0.00    +0.000 OA
ATOM     33  C   UNL     1      44.780   4.313  10.396  0.00  0.00    +0.000 A 
ATOM     34  H   UNL     1      45.965   3.611   7.410  0.00  0.00    +0.000 HD
ENDBRANCH  21  24
ENDBRANCH  19  20
ENDBRANCH   4  19
TORSDOF 6
ENDMDL
MODEL 5
REMARK VINA RESULT:    -6.523      3.809      8.907
REMARK INTER + INTRA:          -9.905
REMARK INTER:                  -9.199
REMARK INTRA:                  -0.706
REMARK UNBOUND:                -1.094
REMARK  Name = 
REMARK  7 active torsions:
REMARK  status: ('A' for Active; 'I' for Inactive)
REMARK    1  A    between atoms: C_1  and  C_2
REMARK    2  A    between atoms: C_5  and  C_6
REMARK    3  A    between atoms: N_8  and  C_9
REMARK    4  A    between atoms: C_9  and  C_10
REMARK    5  A    between atoms: C_13  and  C_14
REMARK    6  A    between atoms: C_14  and  N_15
REMARK    7  A    between atoms: C_16  and  C_18
REMARK                            x       y       z     vdW  Elec       q    Type
REMARK                         _______ _______ _______ _____ _____    ______ ____
ROOT
ATOM      1  C   UNL     1      48.900   5.037  17.382  0.00  0.00    +0.000 A 
ATOM      2  C   UNL     1      47.890   4.509  16.567  0.00  0.00    +0.000 A 
ATOM      3  C   UNL     1      47.565   5.112  15.345  0.00  0.00    +0.000 A 
ATOM      4  C   UNL     1      48.259   6.247  14.902  0.00  0.00    +0.000 A 
ATOM      5  C   UNL     1      49.267   6.776  15.719  0.00  0.00    +0.000 A 
ATOM      6  C   UNL     1      49.593   6.172  16.938  0.00  0.00    +0.000 A 
ENDROOT
BRANCH   1   7
ATOM      7  C   UNL     1      49.243   4.391  18.700  0.00  0.00    +0.000 C 
BRANCH   7  10
ATOM      8  C   UNL     1      51.103   2.991  17.910  0.00  0.00    +0.000 C 
ATOM      9  O   UNL     1      50.392   2.425  17.088  0.00  0.00    +0.000 OA
ATOM     10  N   UNL     1      50.625   3.972  18.748  0.00  0.00    +0.000 N 
ATOM     11  H   UNL     1      51.224   4.380  19.450  0.00  0.00    +0.000 HD
BRANCH   8  16
ATOM     12  C   UNL     1      55.145   0.299  18.917  0.00  0.00    +0.000 C 
ATOM     13  C   UNL     1      54.324   1.465  18.513  0.00  0.00    +0.000 A 
ATOM     14  N   UNL     1      54.773   2.639  18.123  0.00  0.00    +0.000 NA
ATOM     15  C   UNL     1      53.659   3.386  17.841  0.00  0.00    +0.000 A 
ATOM     16  C   UNL     1      52.500   2.669  18.062  0.00  0.00    +0.000 A 
ATOM     17  N   UNL     1      52.952   1.442  18.498  0.00  0.00    +0.000 N 
ATOM     18  H   UNL     1      52.359   0.664  18.753  0.00  0.00    +0.000 HD
ENDBRANCH   8  16
ENDBRANCH   7  10
ENDBRANCH   1   7
BRANCH   4  19
ATOM     19  C   UNL     1      47.915   6.909  13.592  0.00  0.00    +0.000 C 
BRANCH  19  20
ATOM     20  N   UNL     1      47.250   5.996  12.695  0.00  0.00    +0.000 N 
ATOM     21  C   UNL     1      46.276   6.433  11.831  0.00  0.00    +0.000 C 
ATOM     22  O   UNL     1      45.964   7.619  11.751  0.00  0.00    +0.000 OA
ATOM     23  H   UNL     1      47.318   5.006  12.908  0.00  0.00    +0.000 HD
BRANCH  21  24
ATOM     24  C   UNL     1      45.662   5.422  10.959  0.00  0.00    +0.000 A 
ATOM     25  C   UNL     1      45.771   5.545   9.581  0.00  0.00    +0.000 A 
ATOM     26  S   UNL     1      45.055   4.258   8.720  0.00  0.00    +0.000 S 
ATOM     27  C   UNL     1      44.525   3.519  10.158  0.00  0.00    +0.000 A 
ATOM     28  N   UNL     1      43.809   2.363  10.128  0.00  0.00    +0.000 NA
ATOM     29  C   UNL     1      43.441   1.934  11.288  0.00  0.00    +0.000 A 
ATOM     30  N   UNL     1      43.728   2.553  12.477  0.00  0.00    +0.000 N 
ATOM     31  C   UNL     1      44.475   3.705  12.559  0.00  0.00    +0.000 A 
ATOM     32  O   UNL     1      44.751   4.210  13.641  0.00  0.00    +0.000 OA
ATOM     33  C   UNL     1      44.904   4.236  11.279  0.00  0.00    +0.000 A 
ATOM     34  H   UNL     1      43.416   2.162  13.353  0.00  0.00    +0.000 HD
ENDBRANCH  21  24
ENDBRANCH  19  20
ENDBRANCH   4  19
TORSDOF 6
ENDMDL
MODEL 6
REMARK VINA RESULT:    -6.294      3.447      4.735
REMARK INTER + INTRA:          -9.596
REMARK INTER:                  -8.566
REMARK INTRA:                  -1.030
REMARK UNBOUND:                -1.094
REMARK  Name = 
REMARK  7 active torsions:
REMARK  status: ('A' for Active; 'I' for Inactive)
REMARK    1  A    between atoms: C_1  and  C_2
REMARK    2  A    between atoms: C_5  and  C_6
REMARK    3  A    between atoms: N_8  and  C_9
REMARK    4  A    between atoms: C_9  and  C_10
REMARK    5  A    between atoms: C_13  and  C_14
REMARK    6  A    between atoms: C_14  and  N_15
REMARK    7  A    between atoms: C_16  and  C_18
REMARK                            x       y       z     vdW  Elec       q    Type
REMARK                         _______ _______ _______ _____ _____    ______ ____
ROOT
ATOM      1  C   UNL     1      45.453   4.745  12.431  0.00  0.00    +0.000 A 
ATOM      2  C   UNL     1      46.363   4.427  13.448  0.00  0.00    +0.000 A 
ATOM      3  C   UNL     1      47.166   5.417  14.027  0.00  0.00    +0.000 A 
ATOM      4  C   UNL     1      47.062   6.753  13.616  0.00  0.00    +0.000 A 
ATOM      5  C   UNL     1      46.154   7.070  12.598  0.00  0.00    +0.000 A 
ATOM      6  C   UNL     1      45.350   6.081  12.020  0.00  0.00    +0.000 A 
ENDROOT
BRANCH   1   7
ATOM      7  C   UNL     1      44.593   3.677  11.802  0.00  0.00    +0.000 C 
BRANCH   7  10
ATOM      8  C   UNL     1      44.997   3.310   9.406  0.00  0.00    +0.000 C 
ATOM      9  O   UNL     1      44.164   4.150   9.086  0.00  0.00    +0.000 OA
ATOM     10  N   UNL     1      45.276   3.009  10.719  0.00  0.00    +0.000 N 
ATOM     11  H   UNL     1      45.928   2.274  10.947  0.00  0.00    +0.000 HD
BRANCH   8  16
ATOM     12  C   UNL     1      47.788   2.461   5.395  0.00  0.00    +0.000 C 
ATOM     13  C   UNL     1      47.006   2.178   6.622  0.00  0.00    +0.000 A 
ATOM     14  N   UNL     1      46.820   0.999   7.176  0.00  0.00    +0.000 NA
ATOM     15  C   UNL     1      46.050   1.229   8.286  0.00  0.00    +0.000 A 
ATOM     16  C   UNL     1      45.750   2.569   8.424  0.00  0.00    +0.000 A 
ATOM     17  N   UNL     1      46.368   3.157   7.342  0.00  0.00    +0.000 N 
ATOM     18  H   UNL     1      46.352   4.147   7.133  0.00  0.00    +0.000 HD
ENDBRANCH   8  16
ENDBRANCH   7  10
ENDBRANCH   1   7
BRANCH   4  19
ATOM     19  C   UNL     1      47.926   7.826  14.229  0.00  0.00    +0.000 C 
BRANCH  19  20
ATOM     20  N   UNL     1      49.284   7.750  13.753  0.00  0.00    +0.000 N 
ATOM     21  C   UNL     1      50.113   8.846  13.792  0.00  0.00    +0.000 C 
ATOM     22  O   UNL     1      49.750   9.916  14.274  0.00  0.00    +0.000 OA
ATOM     23  H   UNL     1      49.520   6.970  13.149  0.00  0.00    +0.000 HD
BRANCH  21  24
ATOM     24  C   UNL     1      51.479   8.661  13.284  0.00  0.00    +0.000 A 
ATOM     25  C   UNL     1      52.561   9.031  14.070  0.00  0.00    +0.000 A 
ATOM     26  S   UNL     1      54.074   8.695  13.355  0.00  0.00    +0.000 S 
ATOM     27  C   UNL     1      53.335   8.094  11.945  0.00  0.00    +0.000 A 
ATOM     28  N   UNL     1      54.082   7.651  10.899  0.00  0.00    +0.000 NA
ATOM     29  C   UNL     1      53.392   7.257   9.881  0.00  0.00    +0.000 A 
ATOM     30  N   UNL     1      52.023   7.261   9.817  0.00  0.00    +0.000 N 
ATOM     31  C   UNL     1      51.227   7.669  10.861  0.00  0.00    +0.000 A 
ATOM     32  O   UNL     1      50.004   7.619  10.787  0.00  0.00    +0.000 OA
ATOM     33  C   UNL     1      51.954   8.134  12.026  0.00  0.00    +0.000 A 
ATOM     34  H   UNL     1      51.542   6.933   8.993  0.00  0.00    +0.000 HD
ENDBRANCH  21  24
ENDBRANCH  19  20
ENDBRANCH   4  19
TORSDOF 6
ENDMDL
MODEL 7
REMARK VINA RESULT:    -6.126      3.182      5.094
REMARK INTER + INTRA:          -9.369
REMARK INTER:                  -8.423
REMARK INTRA:                  -0.946
REMARK UNBOUND:                -1.094
REMARK  Name = 
REMARK  7 active torsions:
REMARK  status: ('A' for Active; 'I' for Inactive)
REMARK    1  A    between atoms: C_1  and  C_2
REMARK    2  A    between atoms: C_5  and  C_6
REMARK    3  A    between atoms: N_8  and  C_9
REMARK    4  A    between atoms: C_9  and  C_10
REMARK    5  A    between atoms: C_13  and  C_14
REMARK    6  A    between atoms: C_14  and  N_15
REMARK    7  A    between atoms: C_16  and  C_18
REMARK                            x       y       z     vdW  Elec       q    Type
REMARK                         _______ _______ _______ _____ _____    ______ ____
ROOT
ATOM      1  C   UNL     1      45.575   4.268  12.490  0.00  0.00    +0.000 A 
ATOM      2  C   UNL     1      46.053   3.705  13.681  0.00  0.00    +0.000 A 
ATOM      3  C   UNL     1      46.958   4.402  14.491  0.00  0.00    +0.000 A 
ATOM      4  C   UNL     1      47.389   5.689  14.138  0.00  0.00    +0.000 A 
ATOM      5  C   UNL     1      46.913   6.250  12.946  0.00  0.00    +0.000 A 
ATOM      6  C   UNL     1      46.008   5.554  12.137  0.00  0.00    +0.000 A 
ENDROOT
BRANCH   1   7
ATOM      7  C   UNL     1      44.607   3.514  11.614  0.00  0.00    +0.000 C 
BRANCH   7  10
ATOM      8  C   UNL     1      45.211   3.333   9.238  0.00  0.00    +0.000 C 
ATOM      9  O   UNL     1      44.583   4.346   8.950  0.00  0.00    +0.000 OA
ATOM     10  N   UNL     1      45.279   2.847  10.523  0.00  0.00    +0.000 N 
ATOM     11  H   UNL     1      45.759   1.981  10.716  0.00  0.00    +0.000 HD
BRANCH   8  16
ATOM     12  C   UNL     1      47.721   2.374   5.070  0.00  0.00    +0.000 C 
ATOM     13  C   UNL     1      47.057   2.130   6.372  0.00  0.00    +0.000 A 
ATOM     14  N   UNL     1      46.988   0.983   7.012  0.00  0.00    +0.000 NA
ATOM     15  C   UNL     1      46.297   1.244   8.167  0.00  0.00    +0.000 A 
ATOM     16  C   UNL     1      45.927   2.571   8.245  0.00  0.00    +0.000 A 
ATOM     17  N   UNL     1      46.420   3.119   7.080  0.00  0.00    +0.000 N 
ATOM     18  H   UNL     1      46.327   4.089   6.812  0.00  0.00    +0.000 HD
ENDBRANCH   8  16
ENDBRANCH   7  10
ENDBRANCH   1   7
BRANCH   4  19
ATOM     19  C   UNL     1      48.367   6.446  15.000  0.00  0.00    +0.000 C 
BRANCH  19  20
ATOM     20  N   UNL     1      49.235   7.282  14.209  0.00  0.00    +0.000 N 
ATOM     21  C   UNL     1      49.388   8.617  14.494  0.00  0.00    +0.000 C 
ATOM     22  O   UNL     1      48.834   9.143  15.456  0.00  0.00    +0.000 OA
ATOM     23  H   UNL     1      49.505   6.934  13.295  0.00  0.00    +0.000 HD
BRANCH  21  24
ATOM     24  C   UNL     1      50.298   9.379  13.627  0.00  0.00    +0.000 A 
ATOM     25  C   UNL     1      51.631   9.520  13.984  0.00  0.00    +0.000 A 
ATOM     26  S   UNL     1      52.560  10.381  12.840  0.00  0.00    +0.000 S 
ATOM     27  C   UNL     1      51.199  10.643  11.853  0.00  0.00    +0.000 A 
ATOM     28  N   UNL     1      51.300  11.353  10.697  0.00  0.00    +0.000 NA
ATOM     29  C   UNL     1      50.184  11.506  10.067  0.00  0.00    +0.000 A 
ATOM     30  N   UNL     1      48.976  11.009  10.485  0.00  0.00    +0.000 N 
ATOM     31  C   UNL     1      48.832  10.259  11.628  0.00  0.00    +0.000 A 
ATOM     32  O   UNL     1      47.746   9.793  11.952  0.00  0.00    +0.000 OA
ATOM     33  C   UNL     1      50.057  10.068  12.381  0.00  0.00    +0.000 A 
ATOM     34  H   UNL     1      48.139  11.159   9.942  0.00  0.00    +0.000 HD
ENDBRANCH  21  24
ENDBRANCH  19  20
ENDBRANCH   4  19
TORSDOF 6
ENDMDL
MODEL 8
REMARK VINA RESULT:    -6.086      4.706      7.658
REMARK INTER + INTRA:          -9.315
REMARK INTER:                  -8.633
REMARK INTRA:                  -0.682
REMARK UNBOUND:                -1.094
REMARK  Name = 
REMARK  7 active torsions:
REMARK  status: ('A' for Active; 'I' for Inactive)
REMARK    1  A    between atoms: C_1  and  C_2
REMARK    2  A    between atoms: C_5  and  C_6
REMARK    3  A    between atoms: N_8  and  C_9
REMARK    4  A    between atoms: C_9  and  C_10
REMARK    5  A    between atoms: C_13  and  C_14
REMARK    6  A    between atoms: C_14  and  N_15
REMARK    7  A    between atoms: C_16  and  C_18
REMARK                            x       y       z     vdW  Elec       q    Type
REMARK                         _______ _______ _______ _____ _____    ______ ____
ROOT
ATOM      1  C   UNL     1      49.380   9.332  11.561  0.00  0.00    +0.000 A 
ATOM      2  C   UNL     1      49.005   8.016  11.863  0.00  0.00    +0.000 A 
ATOM      3  C   UNL     1      47.672   7.698  12.150  0.00  0.00    +0.000 A 
ATOM      4  C   UNL     1      46.679   8.687  12.121  0.00  0.00    +0.000 A 
ATOM      5  C   UNL     1      47.055  10.003  11.821  0.00  0.00    +0.000 A 
ATOM      6  C   UNL     1      48.386  10.321  11.533  0.00  0.00    +0.000 A 
ENDROOT
BRANCH   1   7
ATOM      7  C   UNL     1      50.817   9.675  11.260  0.00  0.00    +0.000 C 
BRANCH   7  10
ATOM      8  C   UNL     1      52.589   8.508  10.019  0.00  0.00    +0.000 C 
ATOM      9  O   UNL     1      52.855   9.508   9.362  0.00  0.00    +0.000 OA
ATOM     10  N   UNL     1      51.601   8.495  10.976  0.00  0.00    +0.000 N 
ATOM     11  H   UNL     1      51.370   7.641  11.460  0.00  0.00    +0.000 HD
BRANCH   8  16
ATOM     12  C   UNL     1      55.171   4.440  11.193  0.00  0.00    +0.000 C 
ATOM     13  C   UNL     1      54.456   5.431  10.354  0.00  0.00    +0.000 A 
ATOM     14  N   UNL     1      54.264   5.362   9.054  0.00  0.00    +0.000 NA
ATOM     15  C   UNL     1      53.549   6.484   8.725  0.00  0.00    +0.000 A 
ATOM     16  C   UNL     1      53.294   7.264   9.835  0.00  0.00    +0.000 A 
ATOM     17  N   UNL     1      53.890   6.572  10.867  0.00  0.00    +0.000 N 
ATOM     18  H   UNL     1      53.894   6.865  11.835  0.00  0.00    +0.000 HD
ENDBRANCH   8  16
ENDBRANCH   7  10
ENDBRANCH   1   7
BRANCH   4  19
ATOM     19  C   UNL     1      45.241   8.357  12.433  0.00  0.00    +0.000 C 
BRANCH  19  20
ATOM     20  N   UNL     1      44.849   7.095  11.857  0.00  0.00    +0.000 N 
ATOM     21  C   UNL     1      45.020   5.917  12.543  0.00  0.00    +0.000 C 
ATOM     22  O   UNL     1      45.468   5.893  13.687  0.00  0.00    +0.000 OA
ATOM     23  H   UNL     1      44.706   7.069  10.853  0.00  0.00    +0.000 HD
BRANCH  21  24
ATOM     24  C   UNL     1      44.587   4.688  11.866  0.00  0.00    +0.000 A 
ATOM     25  C   UNL     1      43.822   3.757  12.555  0.00  0.00    +0.000 A 
ATOM     26  S   UNL     1      43.354   2.418  11.607  0.00  0.00    +0.000 S 
ATOM     27  C   UNL     1      44.205   3.008  10.257  0.00  0.00    +0.000 A 
ATOM     28  N   UNL     1      44.235   2.311   9.090  0.00  0.00    +0.000 NA
ATOM     29  C   UNL     1      44.948   2.856   8.162  0.00  0.00    +0.000 A 
ATOM     30  N   UNL     1      45.629   4.039   8.293  0.00  0.00    +0.000 N 
ATOM     31  C   UNL     1      45.601   4.794   9.442  0.00  0.00    +0.000 A 
ATOM     32  O   UNL     1      46.186   5.869   9.513  0.00  0.00    +0.000 OA
ATOM     33  C   UNL     1      44.823   4.218  10.522  0.00  0.00    +0.000 A 
ATOM     34  H   UNL     1      46.163   4.416   7.526  0.00  0.00    +0.000 HD
ENDBRANCH  21  24
ENDBRANCH  19  20
ENDBRANCH   4  19
TORSDOF 6
ENDMDL
MODEL 9
REMARK VINA RESULT:    -5.901      5.496      7.210
REMARK INTER + INTRA:          -9.065
REMARK INTER:                  -8.145
REMARK INTRA:                  -0.921
REMARK UNBOUND:                -1.094
REMARK  Name = 
REMARK  7 active torsions:
REMARK  status: ('A' for Active; 'I' for Inactive)
REMARK    1  A    between atoms: C_1  and  C_2
REMARK    2  A    between atoms: C_5  and  C_6
REMARK    3  A    between atoms: N_8  and  C_9
REMARK    4  A    between atoms: C_9  and  C_10
REMARK    5  A    between atoms: C_13  and  C_14
REMARK    6  A    between atoms: C_14  and  N_15
REMARK    7  A    between atoms: C_16  and  C_18
REMARK                            x       y       z     vdW  Elec       q    Type
REMARK                         _______ _______ _______ _____ _____    ______ ____
ROOT
ATOM      1  C   UNL     1      52.683   8.377   9.405  0.00  0.00    +0.000 A 
ATOM      2  C   UNL     1      52.009   7.258   9.911  0.00  0.00    +0.000 A 
ATOM      3  C   UNL     1      51.012   7.400  10.883  0.00  0.00    +0.000 A 
ATOM      4  C   UNL     1      50.650   8.669  11.356  0.00  0.00    +0.000 A 
ATOM      5  C   UNL     1      51.326   9.788  10.852  0.00  0.00    +0.000 A 
ATOM      6  C   UNL     1      52.322   9.646   9.879  0.00  0.00    +0.000 A 
ENDROOT
BRANCH   1   7
ATOM      7  C   UNL     1      53.763   8.222   8.364  0.00  0.00    +0.000 C 
BRANCH   7  10
ATOM      8  C   UNL     1      53.846   6.096   7.135  0.00  0.00    +0.000 C 
ATOM      9  O   UNL     1      53.170   6.543   6.216  0.00  0.00    +0.000 OA
ATOM     10  N   UNL     1      54.189   6.848   8.234  0.00  0.00    +0.000 N 
ATOM     11  H   UNL     1      54.701   6.433   8.998  0.00  0.00    +0.000 HD
BRANCH   8  16
ATOM     12  C   UNL     1      54.247   1.327   5.833  0.00  0.00    +0.000 C 
ATOM     13  C   UNL     1      54.523   2.593   6.553  0.00  0.00    +0.000 A 
ATOM     14  N   UNL     1      55.439   2.782   7.478  0.00  0.00    +0.000 NA
ATOM     15  C   UNL     1      55.333   4.099   7.840  0.00  0.00    +0.000 A 
ATOM     16  C   UNL     1      54.336   4.740   7.132  0.00  0.00    +0.000 A 
ATOM     17  N   UNL     1      53.826   3.751   6.317  0.00  0.00    +0.000 N 
ATOM     18  H   UNL     1      53.071   3.878   5.656  0.00  0.00    +0.000 HD
ENDBRANCH   8  16
ENDBRANCH   7  10
ENDBRANCH   1   7
BRANCH   4  19
ATOM     19  C   UNL     1      49.581   8.834  12.407  0.00  0.00    +0.000 C 
BRANCH  19  20
ATOM     20  N   UNL     1      48.517   7.877  12.236  0.00  0.00    +0.000 N 
ATOM     21  C   UNL     1      47.943   7.253  13.317  0.00  0.00    +0.000 C 
ATOM     22  O   UNL     1      48.276   7.517  14.470  0.00  0.00    +0.000 OA
ATOM     23  H   UNL     1      48.397   7.479  11.310  0.00  0.00    +0.000 HD
BRANCH  21  24
ATOM     24  C   UNL     1      46.866   6.295  13.033  0.00  0.00    +0.000 A 
ATOM     25  C   UNL     1      47.014   4.965  13.401  0.00  0.00    +0.000 A 
ATOM     26  S   UNL     1      45.649   4.002  13.052  0.00  0.00    +0.000 S 
ATOM     27  C   UNL     1      44.834   5.318  12.345  0.00  0.00    +0.000 A 
ATOM     28  N   UNL     1      43.593   5.166  11.810  0.00  0.00    +0.000 NA
ATOM     29  C   UNL     1      43.108   6.236  11.275  0.00  0.00    +0.000 A 
ATOM     30  N   UNL     1      43.751   7.446  11.231  0.00  0.00    +0.000 N 
ATOM     31  C   UNL     1      44.991   7.655  11.786  0.00  0.00    +0.000 A 
ATOM     32  O   UNL     1      45.520   8.760  11.767  0.00  0.00    +0.000 OA
ATOM     33  C   UNL     1      45.586   6.478  12.390  0.00  0.00    +0.000 A 
ATOM     34  H   UNL     1      43.314   8.249  10.803  0.00  0.00    +0.000 HD
ENDBRANCH  21  24
ENDBRANCH  19  20
ENDBRANCH   4  19
TORSDOF 6
ENDMDL
