MODEL 1
REMARK VINA RESULT:    -7.558      0.000      0.000
REMARK INTER + INTRA:         -11.129
REMARK INTER:                 -10.651
REMARK INTRA:                  -0.478
REMARK UNBOUND:                -0.478
REMARK  Name = 
REMARK  8 active torsions:
REMARK  status: ('A' for Active; 'I' for Inactive)
REMARK    1  A    between atoms: C_1  and  N_2
REMARK    2  A    between atoms: N_2  and  C_3
REMARK    3  A    between atoms: C_3  and  C_4
REMARK    4  A    between atoms: C_4  and  C_5
REMARK    5  A    between atoms: C_8  and  C_9
REMARK    6  A    between atoms: C_9  and  O_10
REMARK    7  A    between atoms: O_10  and  C_11
REMARK    8  A    between atoms: C_15  and  C_16
REMARK                            x       y       z     vdW  Elec       q    Type
REMARK                         _______ _______ _______ _____ _____    ______ ____
ROOT
ATOM      1  C   UNL     1      43.449   3.986  11.163  0.00  0.00    +0.000 C 
ENDROOT
BRANCH   1   5
ATOM      2  C   UNL     1      46.732   5.355  13.620  0.00  0.00    +0.000 A 
ATOM      3  C   UNL     1      45.924   6.273  12.937  0.00  0.00    +0.000 A 
ATOM      4  C   UNL     1      44.879   5.833  12.123  0.00  0.00    +0.000 A 
ATOM      5  C   UNL     1      44.627   4.464  11.973  0.00  0.00    +0.000 A 
ATOM      6  C   UNL     1      45.476   3.545  12.600  0.00  0.00    +0.000 A 
ATOM      7  C   UNL     1      46.517   3.986  13.421  0.00  0.00    +0.000 A 
BRANCH   2   8
ATOM      8  C   UNL     1      47.807   5.836  14.569  0.00  0.00    +0.000 C 
BRANCH   8   9
ATOM      9  C   UNL     1      48.599   7.015  13.980  0.00  0.00    +0.000 C 
BRANCH   9  11
ATOM     10  C   UNL     1      49.511   7.677  11.858  0.00  0.00    +0.000 C 
ATOM     11  N   UNL     1      49.399   6.593  12.826  0.00  0.00    +0.000 NA
ATOM     12  H   UNL     1      50.332   6.327  13.140  0.00  0.00    +0.000 HD
ENDBRANCH   9  11
ENDBRANCH   8   9
ENDBRANCH   2   8
ENDBRANCH   1   5
BRANCH   1  13
ATOM     13  O   UNL     1      43.836   2.866  10.372  0.00  0.00    +0.000 OA
BRANCH  13  14
ATOM     14  C   UNL     1      44.738   3.116   9.370  0.00  0.00    +0.000 A 
ATOM     15  C   UNL     1      45.047   4.374   8.847  0.00  0.00    +0.000 A 
ATOM     16  C   UNL     1      45.992   4.496   7.829  0.00  0.00    +0.000 A 
ATOM     17  C   UNL     1      46.640   3.362   7.337  0.00  0.00    +0.000 A 
ATOM     18  C   UNL     1      46.345   2.094   7.856  0.00  0.00    +0.000 A 
ATOM     19  C   UNL     1      45.379   1.980   8.865  0.00  0.00    +0.000 A 
BRANCH  18  20
ATOM     20  C   UNL     1      47.102   0.933   7.308  0.00  0.00    +0.000 C 
ATOM     21  N   UNL     1      46.734  -0.330   7.686  0.00  0.00    +0.000 N 
ATOM     22  O   UNL     1      48.047   1.088   6.543  0.00  0.00    +0.000 OA
ATOM     23  H   UNL     1      45.990  -0.555   8.325  0.00  0.00    +0.000 HD
ATOM     24  H   UNL     1      47.290  -1.091   7.319  0.00  0.00    +0.000 HD
ENDBRANCH  18  20
ENDBRANCH  13  14
ENDBRANCH   1  13
TORSDOF 7
ENDMDL
MODEL 2
REMARK VINA RESULT:    -7.364      2.450      6.454
REMARK INTER + INTRA:         -10.856
REMARK INTER:                 -10.272
REMARK INTRA:                  -0.584
REMARK UNBOUND:                -0.478
REMARK  Name = 
REMARK  8 active torsions:
REMARK  status: ('A' for Active; 'I' for Inactive)
REMARK    1  A    between atoms: C_1  and  N_2
REMARK    2  A    between atoms: N_2  and  C_3
REMARK    3  A    between atoms: C_3  and  C_4
REMARK    4  A    between atoms: C_4  and  C_5
REMARK    5  A    between atoms: C_8  and  C_9
REMARK    6  A    between atoms: C_9  and  O_10
REMARK    7  A    between atoms: O_10  and  C_11
REMARK    8  A    between atoms: C_15  and  C_16
REMARK                            x       y       z     vdW  Elec       q    Type
REMARK                         _______ _______ _______ _____ _____    ______ ____
ROOT
ATOM      1  C   UNL     1      44.059   5.035  11.246  0.00  0.00    +0.000 C 
ENDROOT
BRANCH   1   5
ATOM      2  C   UNL     1      45.674   2.505   8.134  0.00  0.00    +0.000 A 
ATOM      3  C   UNL     1      45.863   3.893   8.092  0.00  0.00    +0.000 A 
ATOM      4  C   UNL     1      45.321   4.715   9.082  0.00  0.00    +0.000 A 
ATOM      5  C   UNL     1      44.575   4.163  10.130  0.00  0.00    +0.000 A 
ATOM      6  C   UNL     1      44.328   2.785  10.134  0.00  0.00    +0.000 A 
ATOM      7  C   UNL     1      44.878   1.962   9.148  0.00  0.00    +0.000 A 
BRANCH   2   8
ATOM      8  C   UNL     1      46.335   1.610   7.110  0.00  0.00    +0.000 C 
BRANCH   8   9
ATOM      9  C   UNL     1      47.868   1.713   7.169  0.00  0.00    +0.000 C 
BRANCH   9  11
ATOM     10  C   UNL     1      47.604   2.554   4.934  0.00  0.00    +0.000 C 
ATOM     11  N   UNL     1      48.448   1.766   5.824  0.00  0.00    +0.000 NA
ATOM     12  H   UNL     1      49.374   2.191   5.871  0.00  0.00    +0.000 HD
ENDBRANCH   9  11
ENDBRANCH   8   9
ENDBRANCH   2   8
ENDBRANCH   1   5
BRANCH   1  13
ATOM     13  O   UNL     1      44.757   6.277  11.244  0.00  0.00    +0.000 OA
BRANCH  13  14
ATOM     14  C   UNL     1      45.878   6.342  12.031  0.00  0.00    +0.000 A 
ATOM     15  C   UNL     1      46.878   7.313  11.948  0.00  0.00    +0.000 A 
ATOM     16  C   UNL     1      47.969   7.270  12.816  0.00  0.00    +0.000 A 
ATOM     17  C   UNL     1      48.059   6.263  13.776  0.00  0.00    +0.000 A 
ATOM     18  C   UNL     1      47.060   5.285  13.876  0.00  0.00    +0.000 A 
ATOM     19  C   UNL     1      45.978   5.324  12.987  0.00  0.00    +0.000 A 
BRANCH  18  20
ATOM     20  C   UNL     1      47.204   4.261  14.950  0.00  0.00    +0.000 C 
ATOM     21  N   UNL     1      47.039   4.646  16.252  0.00  0.00    +0.000 N 
ATOM     22  O   UNL     1      47.477   3.095  14.690  0.00  0.00    +0.000 OA
ATOM     23  H   UNL     1      46.837   5.582  16.564  0.00  0.00    +0.000 HD
ATOM     24  H   UNL     1      47.174   3.932  16.955  0.00  0.00    +0.000 HD
ENDBRANCH  18  20
ENDBRANCH  13  14
ENDBRANCH   1  13
TORSDOF 7
ENDMDL
MODEL 3
REMARK VINA RESULT:    -7.226      2.606      6.870
REMARK INTER + INTRA:         -10.661
REMARK INTER:                  -9.884
REMARK INTRA:                  -0.778
REMARK UNBOUND:                -0.478
REMARK  Name = 
REMARK  8 active torsions:
REMARK  status: ('A' for Active; 'I' for Inactive)
REMARK    1  A    between atoms: C_1  and  N_2
REMARK    2  A    between atoms: N_2  and  C_3
REMARK    3  A    between atoms: C_3  and  C_4
REMARK    4  A    between atoms: C_4  and  C_5
REMARK    5  A    between atoms: C_8  and  C_9
REMARK    6  A    between atoms: C_9  and  O_10
REMARK    7  A    between atoms: O_10  and  C_11
REMARK    8  A    between atoms: C_15  and  C_16
REMARK                            x       y       z     vdW  Elec       q    Type
REMARK                         _______ _______ _______ _____ _____    ______ ____
ROOT
ATOM      1  C   UNL     1      43.487   4.737  11.451  0.00  0.00    +0.000 C 
ENDROOT
BRANCH   1   5
ATOM      2  C   UNL     1      45.547   2.880   8.134  0.00  0.00    +0.000 A 
ATOM      3  C   UNL     1      44.822   2.102   9.047  0.00  0.00    +0.000 A 
ATOM      4  C   UNL     1      44.176   2.696  10.133  0.00  0.00    +0.000 A 
ATOM      5  C   UNL     1      44.250   4.080  10.328  0.00  0.00    +0.000 A 
ATOM      6  C   UNL     1      45.030   4.848   9.457  0.00  0.00    +0.000 A 
ATOM      7  C   UNL     1      45.669   4.255   8.365  0.00  0.00    +0.000 A 
BRANCH   2   8
ATOM      8  C   UNL     1      46.171   2.246   6.911  0.00  0.00    +0.000 C 
BRANCH   8   9
ATOM      9  C   UNL     1      47.529   1.601   7.235  0.00  0.00    +0.000 C 
BRANCH   9  11
ATOM     10  C   UNL     1      47.847   2.493   5.027  0.00  0.00    +0.000 C 
ATOM     11  N   UNL     1      48.476   1.777   6.131  0.00  0.00    +0.000 NA
ATOM     12  H   UNL     1      49.283   2.307   6.457  0.00  0.00    +0.000 HD
ENDBRANCH   9  11
ENDBRANCH   8   9
ENDBRANCH   2   8
ENDBRANCH   1   5
BRANCH   1  13
ATOM     13  O   UNL     1      44.176   4.532  12.681  0.00  0.00    +0.000 OA
BRANCH  13  14
ATOM     14  C   UNL     1      45.251   5.350  12.915  0.00  0.00    +0.000 A 
ATOM     15  C   UNL     1      46.520   4.933  13.320  0.00  0.00    +0.000 A 
ATOM     16  C   UNL     1      47.535   5.869  13.518  0.00  0.00    +0.000 A 
ATOM     17  C   UNL     1      47.287   7.225  13.301  0.00  0.00    +0.000 A 
ATOM     18  C   UNL     1      46.020   7.658  12.889  0.00  0.00    +0.000 A 
ATOM     19  C   UNL     1      45.002   6.713  12.712  0.00  0.00    +0.000 A 
BRANCH  18  20
ATOM     20  C   UNL     1      45.839   9.117  12.642  0.00  0.00    +0.000 C 
ATOM     21  N   UNL     1      44.579   9.645  12.715  0.00  0.00    +0.000 N 
ATOM     22  O   UNL     1      46.787   9.842  12.366  0.00  0.00    +0.000 OA
ATOM     23  H   UNL     1      43.738   9.126  12.912  0.00  0.00    +0.000 HD
ATOM     24  H   UNL     1      44.490  10.632  12.511  0.00  0.00    +0.000 HD
ENDBRANCH  18  20
ENDBRANCH  13  14
ENDBRANCH   1  13
TORSDOF 7
ENDMDL
MODEL 4
REMARK VINA RESULT:    -6.884      1.718      2.548
REMARK INTER + INTRA:         -10.180
REMARK INTER:                  -9.395
REMARK INTRA:                  -0.785
REMARK UNBOUND:                -0.478
REMARK  Name = 
REMARK  8 active torsions:
REMARK  status: ('A' for Active; 'I' for Inactive)
REMARK    1  A    between atoms: C_1  and  N_2
REMARK    2  A    between atoms: N_2  and  C_3
REMARK    3  A    between atoms: C_3  and  C_4
REMARK    4  A    between atoms: C_4  and  C_5
REMARK    5  A    between atoms: C_8  and  C_9
REMARK    6  A    between atoms: C_9  and  O_10
REMARK    7  A    between atoms: O_10  and  C_11
REMARK    8  A    between atoms: C_15  and  C_16
REMARK                            x       y       z     vdW  Elec       q    Type
REMARK                         _______ _______ _______ _____ _____    ______ ____
ROOT
ATOM      1  C   UNL     1      44.148   5.041  10.910  0.00  0.00    +0.000 C 
ENDROOT
BRANCH   1   5
ATOM      2  C   UNL     1      47.675   6.385  13.017  0.00  0.00    +0.000 A 
ATOM      3  C   UNL     1      46.842   5.407  13.577  0.00  0.00    +0.000 A 
ATOM      4  C   UNL     1      45.688   4.990  12.910  0.00  0.00    +0.000 A 
ATOM      5  C   UNL     1      45.346   5.547  11.673  0.00  0.00    +0.000 A 
ATOM      6  C   UNL     1      46.140   6.572  11.146  0.00  0.00    +0.000 A 
ATOM      7  C   UNL     1      47.299   6.984  11.809  0.00  0.00    +0.000 A 
BRANCH   2   8
ATOM      8  C   UNL     1      48.969   6.772  13.699  0.00  0.00    +0.000 C 
BRANCH   8   9
ATOM      9  C   UNL     1      48.755   7.080  15.190  0.00  0.00    +0.000 C 
BRANCH   9  11
ATOM     10  C   UNL     1      48.669   5.276  16.774  0.00  0.00    +0.000 C 
ATOM     11  N   UNL     1      49.544   6.179  16.036  0.00  0.00    +0.000 NA
ATOM     12  H   UNL     1      50.174   5.630  15.452  0.00  0.00    +0.000 HD
ENDBRANCH   9  11
ENDBRANCH   8   9
ENDBRANCH   2   8
ENDBRANCH   1   5
BRANCH   1  13
ATOM     13  O   UNL     1      44.453   4.990   9.519  0.00  0.00    +0.000 OA
BRANCH  13  14
ATOM     14  C   UNL     1      44.938   3.795   9.051  0.00  0.00    +0.000 A 
ATOM     15  C   UNL     1      44.601   2.531   9.539  0.00  0.00    +0.000 A 
ATOM     16  C   UNL     1      45.160   1.388   8.969  0.00  0.00    +0.000 A 
ATOM     17  C   UNL     1      46.050   1.505   7.901  0.00  0.00    +0.000 A 
ATOM     18  C   UNL     1      46.394   2.766   7.396  0.00  0.00    +0.000 A 
ATOM     19  C   UNL     1      45.842   3.909   7.988  0.00  0.00    +0.000 A 
BRANCH  18  20
ATOM     20  C   UNL     1      47.322   2.811   6.231  0.00  0.00    +0.000 C 
ATOM     21  N   UNL     1      48.653   2.571   6.440  0.00  0.00    +0.000 N 
ATOM     22  O   UNL     1      46.921   3.069   5.102  0.00  0.00    +0.000 OA
ATOM     23  H   UNL     1      49.078   2.374   7.331  0.00  0.00    +0.000 HD
ATOM     24  H   UNL     1      49.257   2.641   5.631  0.00  0.00    +0.000 HD
ENDBRANCH  18  20
ENDBRANCH  13  14
ENDBRANCH   1  13
TORSDOF 7
ENDMDL
MODEL 5
REMARK VINA RESULT:    -6.356      3.109      7.424
REMARK INTER + INTRA:          -9.435
REMARK INTER:                  -8.905
REMARK INTRA:                  -0.531
REMARK UNBOUND:                -0.478
REMARK  Name = 
REMARK  8 active torsions:
REMARK  status: ('A' for Active; 'I' for Inactive)
REMARK    1  A    between atoms: C_1  and  N_2
REMARK    2  A    between atoms: N_2  and  C_3
REMARK    3  A    between atoms: C_3  and  C_4
REMARK    4  A    between atoms: C_4  and  C_5
REMARK    5  A    between atoms: C_8  and  C_9
REMARK    6  A    between atoms: C_9  and  O_10
REMARK    7  A    between atoms: O_10  and  C_11
REMARK    8  A    between atoms: C_15  and  C_16
REMARK                            x       y       z     vdW  Elec       q    Type
REMARK                         _______ _______ _______ _____ _____    ______ ____
ROOT
ATOM      1  C   UNL     1      45.933   5.653  13.346  0.00  0.00    +0.000 C 
ENDROOT
BRANCH   1   5
ATOM      2  C   UNL     1      45.124   4.087   9.398  0.00  0.00    +0.000 A 
ATOM      3  C   UNL     1      45.645   5.378   9.558  0.00  0.00    +0.000 A 
ATOM      4  C   UNL     1      45.884   5.896  10.832  0.00  0.00    +0.000 A 
ATOM      5  C   UNL     1      45.600   5.132  11.971  0.00  0.00    +0.000 A 
ATOM      6  C   UNL     1      45.015   3.870  11.813  0.00  0.00    +0.000 A 
ATOM      7  C   UNL     1      44.784   3.349  10.537  0.00  0.00    +0.000 A 
BRANCH   2   8
ATOM      8  C   UNL     1      44.949   3.497   8.016  0.00  0.00    +0.000 C 
BRANCH   8   9
ATOM      9  C   UNL     1      46.122   2.578   7.638  0.00  0.00    +0.000 C 
BRANCH   9  11
ATOM     10  C   UNL     1      47.867   2.408   5.994  0.00  0.00    +0.000 C 
ATOM     11  N   UNL     1      47.148   3.309   6.888  0.00  0.00    +0.000 NA
ATOM     12  H   UNL     1      46.705   4.044   6.336  0.00  0.00    +0.000 HD
ENDBRANCH   9  11
ENDBRANCH   8   9
ENDBRANCH   2   8
ENDBRANCH   1   5
BRANCH   1  13
ATOM     13  O   UNL     1      47.319   5.974  13.413  0.00  0.00    +0.000 OA
BRANCH  13  14
ATOM     14  C   UNL     1      47.899   5.892  14.652  0.00  0.00    +0.000 A 
ATOM     15  C   UNL     1      48.865   6.763  15.160  0.00  0.00    +0.000 A 
ATOM     16  C   UNL     1      49.373   6.575  16.445  0.00  0.00    +0.000 A 
ATOM     17  C   UNL     1      48.907   5.521  17.232  0.00  0.00    +0.000 A 
ATOM     18  C   UNL     1      47.934   4.642  16.739  0.00  0.00    +0.000 A 
ATOM     19  C   UNL     1      47.445   4.828  15.440  0.00  0.00    +0.000 A 
BRANCH  18  20
ATOM     20  C   UNL     1      47.458   3.561  17.649  0.00  0.00    +0.000 C 
ATOM     21  N   UNL     1      48.173   3.295  18.785  0.00  0.00    +0.000 N 
ATOM     22  O   UNL     1      46.455   2.905  17.394  0.00  0.00    +0.000 OA
ATOM     23  H   UNL     1      49.019   3.763  19.066  0.00  0.00    +0.000 HD
ATOM     24  H   UNL     1      47.838   2.535  19.362  0.00  0.00    +0.000 HD
ENDBRANCH  18  20
ENDBRANCH  13  14
ENDBRANCH   1  13
TORSDOF 7
ENDMDL
MODEL 6
REMARK VINA RESULT:    -6.312      3.849      8.187
REMARK INTER + INTRA:          -9.374
REMARK INTER:                  -8.875
REMARK INTRA:                  -0.499
REMARK UNBOUND:                -0.478
REMARK  Name = 
REMARK  8 active torsions:
REMARK  status: ('A' for Active; 'I' for Inactive)
REMARK    1  A    between atoms: C_1  and  N_2
REMARK    2  A    between atoms: N_2  and  C_3
REMARK    3  A    between atoms: C_3  and  C_4
REMARK    4  A    between atoms: C_4  and  C_5
REMARK    5  A    between atoms: C_8  and  C_9
REMARK    6  A    between atoms: C_9  and  O_10
REMARK    7  A    between atoms: O_10  and  C_11
REMARK    8  A    between atoms: C_15  and  C_16
REMARK                            x       y       z     vdW  Elec       q    Type
REMARK                         _______ _______ _______ _____ _____    ______ ____
ROOT
ATOM      1  C   UNL     1      46.755   4.883  14.264  0.00  0.00    +0.000 C 
ENDROOT
BRANCH   1   5
ATOM      2  C   UNL     1      45.020   4.306  10.346  0.00  0.00    +0.000 A 
ATOM      3  C   UNL     1      45.579   5.541  10.702  0.00  0.00    +0.000 A 
ATOM      4  C   UNL     1      46.118   5.737  11.975  0.00  0.00    +0.000 A 
ATOM      5  C   UNL     1      46.101   4.703  12.917  0.00  0.00    +0.000 A 
ATOM      6  C   UNL     1      45.482   3.492  12.586  0.00  0.00    +0.000 A 
ATOM      7  C   UNL     1      44.951   3.293  11.309  0.00  0.00    +0.000 A 
BRANCH   2   8
ATOM      8  C   UNL     1      44.518   4.068   8.940  0.00  0.00    +0.000 C 
BRANCH   8   9
ATOM      9  C   UNL     1      45.666   3.730   7.975  0.00  0.00    +0.000 C 
BRANCH   9  11
ATOM     10  C   UNL     1      47.194   2.033   7.226  0.00  0.00    +0.000 C 
ATOM     11  N   UNL     1      46.026   2.311   8.055  0.00  0.00    +0.000 NA
ATOM     12  H   UNL     1      46.237   2.069   9.022  0.00  0.00    +0.000 HD
ENDBRANCH   9  11
ENDBRANCH   8   9
ENDBRANCH   2   8
ENDBRANCH   1   5
BRANCH   1  13
ATOM     13  O   UNL     1      47.157   3.614  14.774  0.00  0.00    +0.000 OA
BRANCH  13  14
ATOM     14  C   UNL     1      47.683   3.611  16.040  0.00  0.00    +0.000 A 
ATOM     15  C   UNL     1      48.549   2.647  16.561  0.00  0.00    +0.000 A 
ATOM     16  C   UNL     1      49.021   2.763  17.868  0.00  0.00    +0.000 A 
ATOM     17  C   UNL     1      48.638   3.849  18.655  0.00  0.00    +0.000 A 
ATOM     18  C   UNL     1      47.774   4.827  18.145  0.00  0.00    +0.000 A 
ATOM     19  C   UNL     1      47.289   4.692  16.838  0.00  0.00    +0.000 A 
BRANCH  18  20
ATOM     20  C   UNL     1      47.437   5.978  19.031  0.00  0.00    +0.000 C 
ATOM     21  N   UNL     1      47.268   7.214  18.468  0.00  0.00    +0.000 N 
ATOM     22  O   UNL     1      47.321   5.841  20.243  0.00  0.00    +0.000 OA
ATOM     23  H   UNL     1      47.366   7.429  17.489  0.00  0.00    +0.000 HD
ATOM     24  H   UNL     1      47.071   7.976  19.103  0.00  0.00    +0.000 HD
ENDBRANCH  18  20
ENDBRANCH  13  14
ENDBRANCH   1  13
TORSDOF 7
ENDMDL
MODEL 7
REMARK VINA RESULT:    -6.302      2.246      3.166
REMARK INTER + INTRA:          -9.360
REMARK INTER:                  -8.779
REMARK INTRA:                  -0.581
REMARK UNBOUND:                -0.478
REMARK  Name = 
REMARK  8 active torsions:
REMARK  status: ('A' for Active; 'I' for Inactive)
REMARK    1  A    between atoms: C_1  and  N_2
REMARK    2  A    between atoms: N_2  and  C_3
REMARK    3  A    between atoms: C_3  and  C_4
REMARK    4  A    between atoms: C_4  and  C_5
REMARK    5  A    between atoms: C_8  and  C_9
REMARK    6  A    between atoms: C_9  and  O_10
REMARK    7  A    between atoms: O_10  and  C_11
REMARK    8  A    between atoms: C_15  and  C_16
REMARK                            x       y       z     vdW  Elec       q    Type
REMARK                         _______ _______ _______ _____ _____    ______ ____
ROOT
ATOM      1  C   UNL     1      44.898   5.476  11.011  0.00  0.00    +0.000 C 
ENDROOT
BRANCH   1   5
ATOM      2  C   UNL     1      47.070   9.022  12.191  0.00  0.00    +0.000 A 
ATOM      3  C   UNL     1      47.736   7.799  12.037  0.00  0.00    +0.000 A 
ATOM      4  C   UNL     1      47.033   6.647  11.681  0.00  0.00    +0.000 A 
ATOM      5  C   UNL     1      45.649   6.697  11.476  0.00  0.00    +0.000 A 
ATOM      6  C   UNL     1      44.974   7.903  11.697  0.00  0.00    +0.000 A 
ATOM      7  C   UNL     1      45.679   9.058  12.046  0.00  0.00    +0.000 A 
BRANCH   2   8
ATOM      8  C   UNL     1      47.846  10.285  12.491  0.00  0.00    +0.000 C 
BRANCH   8   9
ATOM      9  C   UNL     1      48.854  10.075  13.633  0.00  0.00    +0.000 C 
BRANCH   9  11
ATOM     10  C   UNL     1      48.875   9.024  15.793  0.00  0.00    +0.000 C 
ATOM     11  N   UNL     1      48.175   9.965  14.927  0.00  0.00    +0.000 NA
ATOM     12  H   UNL     1      48.151  10.880  15.377  0.00  0.00    +0.000 HD
ENDBRANCH   9  11
ENDBRANCH   8   9
ENDBRANCH   2   8
ENDBRANCH   1   5
BRANCH   1  13
ATOM     13  O   UNL     1      45.053   5.327   9.602  0.00  0.00    +0.000 OA
BRANCH  13  14
ATOM     14  C   UNL     1      45.251   4.049   9.148  0.00  0.00    +0.000 A 
ATOM     15  C   UNL     1      44.583   2.909   9.602  0.00  0.00    +0.000 A 
ATOM     16  C   UNL     1      44.872   1.661   9.051  0.00  0.00    +0.000 A 
ATOM     17  C   UNL     1      45.822   1.550   8.035  0.00  0.00    +0.000 A 
ATOM     18  C   UNL     1      46.496   2.684   7.564  0.00  0.00    +0.000 A 
ATOM     19  C   UNL     1      46.213   3.930   8.138  0.00  0.00    +0.000 A 
BRANCH  18  20
ATOM     20  C   UNL     1      47.470   2.495   6.452  0.00  0.00    +0.000 C 
ATOM     21  N   UNL     1      47.313   3.227   5.307  0.00  0.00    +0.000 N 
ATOM     22  O   UNL     1      48.394   1.694   6.540  0.00  0.00    +0.000 OA
ATOM     23  H   UNL     1      46.574   3.889   5.134  0.00  0.00    +0.000 HD
ATOM     24  H   UNL     1      47.974   3.049   4.563  0.00  0.00    +0.000 HD
ENDBRANCH  18  20
ENDBRANCH  13  14
ENDBRANCH   1  13
TORSDOF 7
ENDMDL
MODEL 8
REMARK VINA RESULT:    -6.260      3.910      7.708
REMARK INTER + INTRA:          -9.299
REMARK INTER:                  -8.806
REMARK INTRA:                  -0.493
REMARK UNBOUND:                -0.478
REMARK  Name = 
REMARK  8 active torsions:
REMARK  status: ('A' for Active; 'I' for Inactive)
REMARK    1  A    between atoms: C_1  and  N_2
REMARK    2  A    between atoms: N_2  and  C_3
REMARK    3  A    between atoms: C_3  and  C_4
REMARK    4  A    between atoms: C_4  and  C_5
REMARK    5  A    between atoms: C_8  and  C_9
REMARK    6  A    between atoms: C_9  and  O_10
REMARK    7  A    between atoms: O_10  and  C_11
REMARK    8  A    between atoms: C_15  and  C_16
REMARK                            x       y       z     vdW  Elec       q    Type
REMARK                         _______ _______ _______ _____ _____    ______ ____
ROOT
ATOM      1  C   UNL     1      46.812   5.148  14.467  0.00  0.00    +0.000 C 
ENDROOT
BRANCH   1   5
ATOM      2  C   UNL     1      44.952   4.408  10.635  0.00  0.00    +0.000 A 
ATOM      3  C   UNL     1      44.985   3.407  11.615  0.00  0.00    +0.000 A 
ATOM      4  C   UNL     1      45.607   3.635  12.844  0.00  0.00    +0.000 A 
ATOM      5  C   UNL     1      46.212   4.868  13.112  0.00  0.00    +0.000 A 
ATOM      6  C   UNL     1      46.240   5.843  12.109  0.00  0.00    +0.000 A 
ATOM      7  C   UNL     1      45.611   5.618  10.882  0.00  0.00    +0.000 A 
BRANCH   2   8
ATOM      8  C   UNL     1      44.203   4.189   9.340  0.00  0.00    +0.000 C 
BRANCH   8   9
ATOM      9  C   UNL     1      44.855   3.091   8.484  0.00  0.00    +0.000 C 
BRANCH   9  11
ATOM     10  C   UNL     1      46.877   3.432   7.232  0.00  0.00    +0.000 C 
ATOM     11  N   UNL     1      45.435   3.647   7.258  0.00  0.00    +0.000 NA
ATOM     12  H   UNL     1      45.015   3.194   6.447  0.00  0.00    +0.000 HD
ENDBRANCH   9  11
ENDBRANCH   8   9
ENDBRANCH   2   8
ENDBRANCH   1   5
BRANCH   1  13
ATOM     13  O   UNL     1      46.663   4.003  15.302  0.00  0.00    +0.000 OA
BRANCH  13  14
ATOM     14  C   UNL     1      47.435   3.978  16.435  0.00  0.00    +0.000 A 
ATOM     15  C   UNL     1      47.156   4.649  17.628  0.00  0.00    +0.000 A 
ATOM     16  C   UNL     1      48.022   4.535  18.715  0.00  0.00    +0.000 A 
ATOM     17  C   UNL     1      49.165   3.741  18.617  0.00  0.00    +0.000 A 
ATOM     18  C   UNL     1      49.455   3.057  17.429  0.00  0.00    +0.000 A 
ATOM     19  C   UNL     1      48.590   3.194  16.337  0.00  0.00    +0.000 A 
BRANCH  18  20
ATOM     20  C   UNL     1      50.674   2.199  17.410  0.00  0.00    +0.000 C 
ATOM     21  N   UNL     1      51.723   2.527  18.225  0.00  0.00    +0.000 N 
ATOM     22  O   UNL     1      50.757   1.221  16.676  0.00  0.00    +0.000 OA
ATOM     23  H   UNL     1      51.757   3.321  18.843  0.00  0.00    +0.000 HD
ATOM     24  H   UNL     1      52.544   1.940  18.162  0.00  0.00    +0.000 HD
ENDBRANCH  18  20
ENDBRANCH  13  14
ENDBRANCH   1  13
TORSDOF 7
ENDMDL
MODEL 9
REMARK VINA RESULT:    -6.141      4.737      6.521
REMARK INTER + INTRA:          -9.133
REMARK INTER:                  -8.605
REMARK INTRA:                  -0.528
REMARK UNBOUND:                -0.478
REMARK  Name = 
REMARK  8 active torsions:
REMARK  status: ('A' for Active; 'I' for Inactive)
REMARK    1  A    between atoms: C_1  and  N_2
REMARK    2  A    between atoms: N_2  and  C_3
REMARK    3  A    between atoms: C_3  and  C_4
REMARK    4  A    between atoms: C_4  and  C_5
REMARK    5  A    between atoms: C_8  and  C_9
REMARK    6  A    between atoms: C_9  and  O_10
REMARK    7  A    between atoms: O_10  and  C_11
REMARK    8  A    between atoms: C_15  and  C_16
REMARK                            x       y       z     vdW  Elec       q    Type
REMARK                         _______ _______ _______ _____ _____    ______ ____
ROOT
ATOM      1  C   UNL     1      47.201   4.339  15.980  0.00  0.00    +0.000 C 
ENDROOT
BRANCH   1   5
ATOM      2  C   UNL     1      50.947   2.917  17.603  0.00  0.00    +0.000 A 
ATOM      3  C   UNL     1      49.999   2.013  17.106  0.00  0.00    +0.000 A 
ATOM      4  C   UNL     1      48.778   2.468  16.604  0.00  0.00    +0.000 A 
ATOM      5  C   UNL     1      48.482   3.836  16.596  0.00  0.00    +0.000 A 
ATOM      6  C   UNL     1      49.399   4.732  17.156  0.00  0.00    +0.000 A 
ATOM      7  C   UNL     1      50.625   4.278  17.650  0.00  0.00    +0.000 A 
BRANCH   2   8
ATOM      8  C   UNL     1      52.303   2.430  18.064  0.00  0.00    +0.000 C 
BRANCH   8   9
ATOM      9  C   UNL     1      52.692   1.105  17.387  0.00  0.00    +0.000 C 
BRANCH   9  11
ATOM     10  C   UNL     1      54.115  -0.656  18.189  0.00  0.00    +0.000 C 
ATOM     11  N   UNL     1      52.842   0.030  18.371  0.00  0.00    +0.000 NA
ATOM     12  H   UNL     1      52.805   0.423  19.311  0.00  0.00    +0.000 HD
ENDBRANCH   9  11
ENDBRANCH   8   9
ENDBRANCH   2   8
ENDBRANCH   1   5
BRANCH   1  13
ATOM     13  O   UNL     1      46.946   3.638  14.766  0.00  0.00    +0.000 OA
BRANCH  13  14
ATOM     14  C   UNL     1      46.616   4.409  13.681  0.00  0.00    +0.000 A 
ATOM     15  C   UNL     1      47.279   5.567  13.272  0.00  0.00    +0.000 A 
ATOM     16  C   UNL     1      46.846   6.260  12.141  0.00  0.00    +0.000 A 
ATOM     17  C   UNL     1      45.755   5.791  11.410  0.00  0.00    +0.000 A 
ATOM     18  C   UNL     1      45.082   4.627  11.805  0.00  0.00    +0.000 A 
ATOM     19  C   UNL     1      45.512   3.949  12.953  0.00  0.00    +0.000 A 
BRANCH  18  20
ATOM     20  C   UNL     1      43.948   4.165  10.955  0.00  0.00    +0.000 C 
ATOM     21  N   UNL     1      43.009   3.336  11.505  0.00  0.00    +0.000 N 
ATOM     22  O   UNL     1      43.849   4.502   9.781  0.00  0.00    +0.000 OA
ATOM     23  H   UNL     1      43.018   2.988  12.450  0.00  0.00    +0.000 HD
ATOM     24  H   UNL     1      42.271   3.018  10.890  0.00  0.00    +0.000 HD
ENDBRANCH  18  20
ENDBRANCH  13  14
ENDBRANCH   1  13
TORSDOF 7
ENDMDL
