MODEL 1
REMARK VINA RESULT:    -8.847      0.000      0.000
REMARK INTER + INTRA:         -12.088
REMARK INTER:                 -11.433
REMARK INTRA:                  -0.655
REMARK UNBOUND:                -0.655
REMARK  Name = 
REMARK  5 active torsions:
REMARK  status: ('A' for Active; 'I' for Inactive)
REMARK    1  A    between atoms: C_2  and  C_4
REMARK    2  A    between atoms: C_7  and  O_8
REMARK    3  A    between atoms: O_8  and  C_9
REMARK    4  A    between atoms: C_9  and  C_10
REMARK    5  A    between atoms: C_14  and  C_15
REMARK                            x       y       z     vdW  Elec       q    Type
REMARK                         _______ _______ _______ _____ _____    ______ ____
ROOT
ATOM      1  C   UNL     1      43.512   4.244  11.131  0.00  0.00    +0.000 C 
ENDROOT
BRANCH   1   2
ATOM      2  C   UNL     1      44.647   4.761  11.973  0.00  0.00    +0.000 A 
ATOM      3  C   UNL     1      45.099   4.026  13.062  0.00  0.00    +0.000 A 
ATOM      4  N   UNL     1      46.132   4.397  13.845  0.00  0.00    +0.000 NA
ATOM      5  C   UNL     1      46.747   5.563  13.527  0.00  0.00    +0.000 A 
ATOM      6  C   UNL     1      46.410   6.387  12.450  0.00  0.00    +0.000 A 
ATOM      7  C   UNL     1      45.338   5.938  11.661  0.00  0.00    +0.000 A 
BRANCH   6   8
ATOM      8  C   UNL     1      47.119   7.652  12.162  0.00  0.00    +0.000 A 
ATOM      9  C   UNL     1      48.482   7.673  11.805  0.00  0.00    +0.000 A 
ATOM     10  C   UNL     1      49.154   8.874  11.549  0.00  0.00    +0.000 A 
ATOM     11  C   UNL     1      48.473  10.083  11.632  0.00  0.00    +0.000 A 
ATOM     12  C   UNL     1      47.129  10.080  11.972  0.00  0.00    +0.000 A 
ATOM     13  F   UNL     1      46.464  11.240  12.047  0.00  0.00    +0.000 F 
ATOM     14  C   UNL     1      46.457   8.890  12.238  0.00  0.00    +0.000 A 
ENDBRANCH   6   8
ENDBRANCH   1   2
BRANCH   1  15
ATOM     15  O   UNL     1      43.644   4.695   9.779  0.00  0.00    +0.000 OA
BRANCH  15  19
ATOM     16  C   UNL     1      46.401   2.446   7.708  0.00  0.00    +0.000 A 
ATOM     17  C   UNL     1      45.542   1.821   8.614  0.00  0.00    +0.000 A 
ATOM     18  C   UNL     1      44.612   2.593   9.313  0.00  0.00    +0.000 A 
ATOM     19  C   UNL     1      44.577   3.960   9.078  0.00  0.00    +0.000 A 
ATOM     20  N   UNL     1      45.402   4.590   8.214  0.00  0.00    +0.000 NA
ATOM     21  C   UNL     1      46.302   3.823   7.556  0.00  0.00    +0.000 A 
BRANCH  16  23
ATOM     22  N   UNL     1      48.486   2.458   6.460  0.00  0.00    +0.000 N 
ATOM     23  C   UNL     1      47.423   1.731   6.916  0.00  0.00    +0.000 C 
ATOM     24  O   UNL     1      47.345   0.527   6.714  0.00  0.00    +0.000 OA
ATOM     25  H   UNL     1      49.231   1.928   6.026  0.00  0.00    +0.000 HD
ATOM     26  H   UNL     1      48.715   3.374   6.818  0.00  0.00    +0.000 HD
ENDBRANCH  16  23
ENDBRANCH  15  19
ENDBRANCH   1  15
TORSDOF 5
ENDMDL
MODEL 2
REMARK VINA RESULT:    -8.844      1.022      1.414
REMARK INTER + INTRA:         -12.084
REMARK INTER:                 -11.419
REMARK INTRA:                  -0.665
REMARK UNBOUND:                -0.655
REMARK  Name = 
REMARK  5 active torsions:
REMARK  status: ('A' for Active; 'I' for Inactive)
REMARK    1  A    between atoms: C_2  and  C_4
REMARK    2  A    between atoms: C_7  and  O_8
REMARK    3  A    between atoms: O_8  and  C_9
REMARK    4  A    between atoms: C_9  and  C_10
REMARK    5  A    between atoms: C_14  and  C_15
REMARK                            x       y       z     vdW  Elec       q    Type
REMARK                         _______ _______ _______ _____ _____    ______ ____
ROOT
ATOM      1  C   UNL     1      43.481   4.326  11.108  0.00  0.00    +0.000 C 
ENDROOT
BRANCH   1   2
ATOM      2  C   UNL     1      44.628   4.796  11.962  0.00  0.00    +0.000 A 
ATOM      3  C   UNL     1      45.038   4.042  13.055  0.00  0.00    +0.000 A 
ATOM      4  N   UNL     1      46.077   4.370  13.849  0.00  0.00    +0.000 NA
ATOM      5  C   UNL     1      46.743   5.510  13.539  0.00  0.00    +0.000 A 
ATOM      6  C   UNL     1      46.451   6.348  12.459  0.00  0.00    +0.000 A 
ATOM      7  C   UNL     1      45.370   5.944  11.659  0.00  0.00    +0.000 A 
BRANCH   6   8
ATOM      8  C   UNL     1      47.214   7.583  12.180  0.00  0.00    +0.000 A 
ATOM      9  C   UNL     1      46.633   8.859  12.318  0.00  0.00    +0.000 A 
ATOM     10  C   UNL     1      47.353  10.027  12.037  0.00  0.00    +0.000 A 
ATOM     11  C   UNL     1      48.678   9.944  11.624  0.00  0.00    +0.000 A 
ATOM     12  C   UNL     1      49.269   8.696  11.493  0.00  0.00    +0.000 A 
ATOM     13  F   UNL     1      50.547   8.607  11.103  0.00  0.00    +0.000 F 
ATOM     14  C   UNL     1      48.555   7.530  11.760  0.00  0.00    +0.000 A 
ENDBRANCH   6   8
ENDBRANCH   1   2
BRANCH   1  15
ATOM     15  O   UNL     1      43.662   4.746   9.751  0.00  0.00    +0.000 OA
BRANCH  15  19
ATOM     16  C   UNL     1      46.333   2.320   7.769  0.00  0.00    +0.000 A 
ATOM     17  C   UNL     1      45.439   1.759   8.684  0.00  0.00    +0.000 A 
ATOM     18  C   UNL     1      44.539   2.591   9.353  0.00  0.00    +0.000 A 
ATOM     19  C   UNL     1      44.567   3.951   9.079  0.00  0.00    +0.000 A 
ATOM     20  N   UNL     1      45.426   4.520   8.206  0.00  0.00    +0.000 NA
ATOM     21  C   UNL     1      46.297   3.696   7.579  0.00  0.00    +0.000 A 
BRANCH  16  23
ATOM     22  N   UNL     1      48.447   2.195   6.579  0.00  0.00    +0.000 N 
ATOM     23  C   UNL     1      47.329   1.539   7.008  0.00  0.00    +0.000 C 
ATOM     24  O   UNL     1      47.180   0.342   6.806  0.00  0.00    +0.000 OA
ATOM     25  H   UNL     1      49.169   1.617   6.166  0.00  0.00    +0.000 HD
ATOM     26  H   UNL     1      48.725   3.096   6.941  0.00  0.00    +0.000 HD
ENDBRANCH  16  23
ENDBRANCH  15  19
ENDBRANCH   1  15
TORSDOF 5
ENDMDL
MODEL 3
REMARK VINA RESULT:    -8.604      2.766      3.865
REMARK INTER + INTRA:         -11.774
REMARK INTER:                 -11.105
REMARK INTRA:                  -0.669
REMARK UNBOUND:                -0.655
REMARK  Name = 
REMARK  5 active torsions:
REMARK  status: ('A' for Active; 'I' for Inactive)
REMARK    1  A    between atoms: C_2  and  C_4
REMARK    2  A    between atoms: C_7  and  O_8
REMARK    3  A    between atoms: O_8  and  C_9
REMARK    4  A    between atoms: C_9  and  C_10
REMARK    5  A    between atoms: C_14  and  C_15
REMARK                            x       y       z     vdW  Elec       q    Type
REMARK                         _______ _______ _______ _____ _____    ______ ____
ROOT
ATOM      1  C   UNL     1      43.854   4.319  11.374  0.00  0.00    +0.000 C 
ENDROOT
BRANCH   1   2
ATOM      2  C   UNL     1      44.930   5.182  11.978  0.00  0.00    +0.000 A 
ATOM      3  C   UNL     1      45.215   6.426  11.429  0.00  0.00    +0.000 A 
ATOM      4  N   UNL     1      46.135   7.276  11.928  0.00  0.00    +0.000 NA
ATOM      5  C   UNL     1      46.805   6.866  13.033  0.00  0.00    +0.000 A 
ATOM      6  C   UNL     1      46.602   5.653  13.697  0.00  0.00    +0.000 A 
ATOM      7  C   UNL     1      45.620   4.819  13.140  0.00  0.00    +0.000 A 
BRANCH   6   8
ATOM      8  C   UNL     1      47.374   5.263  14.896  0.00  0.00    +0.000 A 
ATOM      9  C   UNL     1      48.371   6.098  15.439  0.00  0.00    +0.000 A 
ATOM     10  C   UNL     1      49.112   5.718  16.565  0.00  0.00    +0.000 A 
ATOM     11  C   UNL     1      48.862   4.497  17.182  0.00  0.00    +0.000 A 
ATOM     12  C   UNL     1      47.877   3.668  16.668  0.00  0.00    +0.000 A 
ATOM     13  F   UNL     1      47.625   2.494  17.260  0.00  0.00    +0.000 F 
ATOM     14  C   UNL     1      47.144   4.035  15.541  0.00  0.00    +0.000 A 
ENDBRANCH   6   8
ENDBRANCH   1   2
BRANCH   1  15
ATOM     15  O   UNL     1      43.712   4.598   9.976  0.00  0.00    +0.000 OA
BRANCH  15  19
ATOM     16  C   UNL     1      46.376   2.417   7.719  0.00  0.00    +0.000 A 
ATOM     17  C   UNL     1      45.597   1.772   8.683  0.00  0.00    +0.000 A 
ATOM     18  C   UNL     1      44.699   2.521   9.444  0.00  0.00    +0.000 A 
ATOM     19  C   UNL     1      44.613   3.886   9.212  0.00  0.00    +0.000 A 
ATOM     20  N   UNL     1      45.359   4.536   8.293  0.00  0.00    +0.000 NA
ATOM     21  C   UNL     1      46.231   3.791   7.575  0.00  0.00    +0.000 A 
BRANCH  16  23
ATOM     22  N   UNL     1      48.455   2.439   6.463  0.00  0.00    +0.000 N 
ATOM     23  C   UNL     1      47.358   1.727   6.858  0.00  0.00    +0.000 C 
ATOM     24  O   UNL     1      47.218   0.553   6.547  0.00  0.00    +0.000 OA
ATOM     25  H   UNL     1      49.171   1.913   5.977  0.00  0.00    +0.000 HD
ATOM     26  H   UNL     1      48.732   3.304   6.903  0.00  0.00    +0.000 HD
ENDBRANCH  16  23
ENDBRANCH  15  19
ENDBRANCH   1  15
TORSDOF 5
ENDMDL
MODEL 4
REMARK VINA RESULT:    -8.379      3.846      6.968
REMARK INTER + INTRA:         -11.483
REMARK INTER:                 -10.627
REMARK INTRA:                  -0.856
REMARK UNBOUND:                -0.655
REMARK  Name = 
REMARK  5 active torsions:
REMARK  status: ('A' for Active; 'I' for Inactive)
REMARK    1  A    between atoms: C_2  and  C_4
REMARK    2  A    between atoms: C_7  and  O_8
REMARK    3  A    between atoms: O_8  and  C_9
REMARK    4  A    between atoms: C_9  and  C_10
REMARK    5  A    between atoms: C_14  and  C_15
REMARK                            x       y       z     vdW  Elec       q    Type
REMARK                         _______ _______ _______ _____ _____    ______ ____
ROOT
ATOM      1  C   UNL     1      44.083   6.578  11.554  0.00  0.00    +0.000 C 
ENDROOT
BRANCH   1   2
ATOM      2  C   UNL     1      44.082   5.137  11.120  0.00  0.00    +0.000 A 
ATOM      3  C   UNL     1      43.245   4.221  11.745  0.00  0.00    +0.000 A 
ATOM      4  N   UNL     1      43.154   2.922  11.395  0.00  0.00    +0.000 NA
ATOM      5  C   UNL     1      43.938   2.514  10.368  0.00  0.00    +0.000 A 
ATOM      6  C   UNL     1      44.807   3.332   9.639  0.00  0.00    +0.000 A 
ATOM      7  C   UNL     1      44.844   4.677  10.039  0.00  0.00    +0.000 A 
BRANCH   6   8
ATOM      8  C   UNL     1      45.641   2.820   8.532  0.00  0.00    +0.000 A 
ATOM      9  C   UNL     1      46.144   3.672   7.528  0.00  0.00    +0.000 A 
ATOM     10  C   UNL     1      46.920   3.181   6.471  0.00  0.00    +0.000 A 
ATOM     11  C   UNL     1      47.224   1.826   6.402  0.00  0.00    +0.000 A 
ATOM     12  C   UNL     1      46.746   0.975   7.387  0.00  0.00    +0.000 A 
ATOM     13  F   UNL     1      47.040  -0.330   7.331  0.00  0.00    +0.000 F 
ATOM     14  C   UNL     1      45.964   1.455   8.435  0.00  0.00    +0.000 A 
ENDBRANCH   6   8
ENDBRANCH   1   2
BRANCH   1  15
ATOM     15  O   UNL     1      44.703   6.715  12.838  0.00  0.00    +0.000 OA
BRANCH  15  19
ATOM     16  C   UNL     1      48.710   7.604  12.515  0.00  0.00    +0.000 A 
ATOM     17  C   UNL     1      47.759   8.535  12.088  0.00  0.00    +0.000 A 
ATOM     18  C   UNL     1      46.403   8.223  12.200  0.00  0.00    +0.000 A 
ATOM     19  C   UNL     1      46.050   6.992  12.734  0.00  0.00    +0.000 A 
ATOM     20  N   UNL     1      46.948   6.071  13.146  0.00  0.00    +0.000 NA
ATOM     21  C   UNL     1      48.257   6.392  13.018  0.00  0.00    +0.000 A 
BRANCH  16  23
ATOM     22  N   UNL     1      50.813   7.399  11.317  0.00  0.00    +0.000 N 
ATOM     23  C   UNL     1      50.168   7.826  12.443  0.00  0.00    +0.000 C 
ATOM     24  O   UNL     1      50.769   8.409  13.335  0.00  0.00    +0.000 OA
ATOM     25  H   UNL     1      51.786   7.668  11.236  0.00  0.00    +0.000 HD
ATOM     26  H   UNL     1      50.325   7.157  10.467  0.00  0.00    +0.000 HD
ENDBRANCH  16  23
ENDBRANCH  15  19
ENDBRANCH   1  15
TORSDOF 5
ENDMDL
MODEL 5
REMARK VINA RESULT:    -8.135      3.918      7.481
REMARK INTER + INTRA:         -11.169
REMARK INTER:                 -10.733
REMARK INTRA:                  -0.436
REMARK UNBOUND:                -0.655
REMARK  Name = 
REMARK  5 active torsions:
REMARK  status: ('A' for Active; 'I' for Inactive)
REMARK    1  A    between atoms: C_2  and  C_4
REMARK    2  A    between atoms: C_7  and  O_8
REMARK    3  A    between atoms: O_8  and  C_9
REMARK    4  A    between atoms: C_9  and  C_10
REMARK    5  A    between atoms: C_14  and  C_15
REMARK                            x       y       z     vdW  Elec       q    Type
REMARK                         _______ _______ _______ _____ _____    ______ ____
ROOT
ATOM      1  C   UNL     1      45.990   7.022  11.818  0.00  0.00    +0.000 C 
ENDROOT
BRANCH   1   2
ATOM      2  C   UNL     1      45.255   5.961  11.043  0.00  0.00    +0.000 A 
ATOM      3  C   UNL     1      43.890   5.785  11.224  0.00  0.00    +0.000 A 
ATOM      4  N   UNL     1      43.150   4.885  10.546  0.00  0.00    +0.000 NA
ATOM      5  C   UNL     1      43.805   4.120   9.639  0.00  0.00    +0.000 A 
ATOM      6  C   UNL     1      45.168   4.207   9.342  0.00  0.00    +0.000 A 
ATOM      7  C   UNL     1      45.881   5.175  10.068  0.00  0.00    +0.000 A 
BRANCH   6   8
ATOM      8  C   UNL     1      45.824   3.336   8.344  0.00  0.00    +0.000 A 
ATOM      9  C   UNL     1      46.345   3.850   7.140  0.00  0.00    +0.000 A 
ATOM     10  C   UNL     1      46.950   3.020   6.189  0.00  0.00    +0.000 A 
ATOM     11  C   UNL     1      47.060   1.655   6.428  0.00  0.00    +0.000 A 
ATOM     12  C   UNL     1      46.562   1.133   7.612  0.00  0.00    +0.000 A 
ATOM     13  F   UNL     1      46.669  -0.180   7.853  0.00  0.00    +0.000 F 
ATOM     14  C   UNL     1      45.949   1.952   8.557  0.00  0.00    +0.000 A 
ENDBRANCH   6   8
ENDBRANCH   1   2
BRANCH   1  15
ATOM     15  O   UNL     1      47.317   6.586  12.134  0.00  0.00    +0.000 OA
BRANCH  15  19
ATOM     16  C   UNL     1      47.520   4.748  15.812  0.00  0.00    +0.000 A 
ATOM     17  C   UNL     1      48.246   5.920  15.585  0.00  0.00    +0.000 A 
ATOM     18  C   UNL     1      48.172   6.534  14.333  0.00  0.00    +0.000 A 
ATOM     19  C   UNL     1      47.374   5.953  13.358  0.00  0.00    +0.000 A 
ATOM     20  N   UNL     1      46.669   4.816  13.548  0.00  0.00    +0.000 NA
ATOM     21  C   UNL     1      46.765   4.233  14.766  0.00  0.00    +0.000 A 
BRANCH  16  23
ATOM     22  N   UNL     1      48.490   4.342  18.002  0.00  0.00    +0.000 N 
ATOM     23  C   UNL     1      47.524   4.014  17.094  0.00  0.00    +0.000 C 
ATOM     24  O   UNL     1      46.670   3.176  17.351  0.00  0.00    +0.000 OA
ATOM     25  H   UNL     1      48.402   3.914  18.916  0.00  0.00    +0.000 HD
ATOM     26  H   UNL     1      49.037   5.187  17.935  0.00  0.00    +0.000 HD
ENDBRANCH  16  23
ENDBRANCH  15  19
ENDBRANCH   1  15
TORSDOF 5
ENDMDL
MODEL 6
REMARK VINA RESULT:    -7.963      1.922      2.520
REMARK INTER + INTRA:         -10.946
REMARK INTER:                 -10.189
REMARK INTRA:                  -0.757
REMARK UNBOUND:                -0.655
REMARK  Name = 
REMARK  5 active torsions:
REMARK  status: ('A' for Active; 'I' for Inactive)
REMARK    1  A    between atoms: C_2  and  C_4
REMARK    2  A    between atoms: C_7  and  O_8
REMARK    3  A    between atoms: O_8  and  C_9
REMARK    4  A    between atoms: C_9  and  C_10
REMARK    5  A    between atoms: C_14  and  C_15
REMARK                            x       y       z     vdW  Elec       q    Type
REMARK                         _______ _______ _______ _____ _____    ______ ____
ROOT
ATOM      1  C   UNL     1      44.255   4.373  11.578  0.00  0.00    +0.000 C 
ENDROOT
BRANCH   1   2
ATOM      2  C   UNL     1      44.847   5.754  11.666  0.00  0.00    +0.000 A 
ATOM      3  C   UNL     1      44.053   6.869  11.432  0.00  0.00    +0.000 A 
ATOM      4  N   UNL     1      44.494   8.140  11.526  0.00  0.00    +0.000 NA
ATOM      5  C   UNL     1      45.794   8.309  11.871  0.00  0.00    +0.000 A 
ATOM      6  C   UNL     1      46.695   7.279  12.155  0.00  0.00    +0.000 A 
ATOM      7  C   UNL     1      46.173   5.979  12.057  0.00  0.00    +0.000 A 
BRANCH   6   8
ATOM      8  C   UNL     1      48.105   7.531  12.519  0.00  0.00    +0.000 A 
ATOM      9  C   UNL     1      48.570   7.366  13.839  0.00  0.00    +0.000 A 
ATOM     10  C   UNL     1      49.902   7.623  14.184  0.00  0.00    +0.000 A 
ATOM     11  C   UNL     1      50.805   8.038  13.212  0.00  0.00    +0.000 A 
ATOM     12  C   UNL     1      50.367   8.196  11.906  0.00  0.00    +0.000 A 
ATOM     13  F   UNL     1      51.231   8.590  10.962  0.00  0.00    +0.000 F 
ATOM     14  C   UNL     1      49.040   7.954  11.558  0.00  0.00    +0.000 A 
ENDBRANCH   6   8
ENDBRANCH   1   2
BRANCH   1  15
ATOM     15  O   UNL     1      43.698   4.147  10.278  0.00  0.00    +0.000 OA
BRANCH  15  19
ATOM     16  C   UNL     1      46.433   2.466   7.701  0.00  0.00    +0.000 A 
ATOM     17  C   UNL     1      46.193   3.842   7.651  0.00  0.00    +0.000 A 
ATOM     18  C   UNL     1      45.262   4.401   8.528  0.00  0.00    +0.000 A 
ATOM     19  C   UNL     1      44.607   3.564   9.420  0.00  0.00    +0.000 A 
ATOM     20  N   UNL     1      44.815   2.231   9.483  0.00  0.00    +0.000 NA
ATOM     21  C   UNL     1      45.713   1.709   8.616  0.00  0.00    +0.000 A 
BRANCH  16  23
ATOM     22  N   UNL     1      48.480   2.474   6.393  0.00  0.00    +0.000 N 
ATOM     23  C   UNL     1      47.393   1.767   6.822  0.00  0.00    +0.000 C 
ATOM     24  O   UNL     1      47.245   0.590   6.526  0.00  0.00    +0.000 OA
ATOM     25  H   UNL     1      49.184   1.943   5.894  0.00  0.00    +0.000 HD
ATOM     26  H   UNL     1      48.768   3.344   6.816  0.00  0.00    +0.000 HD
ENDBRANCH  16  23
ENDBRANCH  15  19
ENDBRANCH   1  15
TORSDOF 5
ENDMDL
MODEL 7
REMARK VINA RESULT:    -6.993      4.433      8.230
REMARK INTER + INTRA:          -9.692
REMARK INTER:                  -8.993
REMARK INTRA:                  -0.699
REMARK UNBOUND:                -0.655
REMARK  Name = 
REMARK  5 active torsions:
REMARK  status: ('A' for Active; 'I' for Inactive)
REMARK    1  A    between atoms: C_2  and  C_4
REMARK    2  A    between atoms: C_7  and  O_8
REMARK    3  A    between atoms: O_8  and  C_9
REMARK    4  A    between atoms: C_9  and  C_10
REMARK    5  A    between atoms: C_14  and  C_15
REMARK                            x       y       z     vdW  Elec       q    Type
REMARK                         _______ _______ _______ _____ _____    ______ ____
ROOT
ATOM      1  C   UNL     1      48.264   7.568  13.823  0.00  0.00    +0.000 C 
ENDROOT
BRANCH   1   2
ATOM      2  C   UNL     1      47.025   7.481  12.972  0.00  0.00    +0.000 A 
ATOM      3  C   UNL     1      46.158   8.563  12.890  0.00  0.00    +0.000 A 
ATOM      4  N   UNL     1      45.048   8.582  12.125  0.00  0.00    +0.000 NA
ATOM      5  C   UNL     1      44.788   7.464  11.404  0.00  0.00    +0.000 A 
ATOM      6  C   UNL     1      45.584   6.316  11.377  0.00  0.00    +0.000 A 
ATOM      7  C   UNL     1      46.735   6.363  12.180  0.00  0.00    +0.000 A 
BRANCH   6   8
ATOM      8  C   UNL     1      45.239   5.125  10.572  0.00  0.00    +0.000 A 
ATOM      9  C   UNL     1      44.503   4.052  11.115  0.00  0.00    +0.000 A 
ATOM     10  C   UNL     1      44.192   2.918  10.354  0.00  0.00    +0.000 A 
ATOM     11  C   UNL     1      44.599   2.838   9.027  0.00  0.00    +0.000 A 
ATOM     12  C   UNL     1      45.314   3.889   8.474  0.00  0.00    +0.000 A 
ATOM     13  F   UNL     1      45.704   3.823   7.195  0.00  0.00    +0.000 F 
ATOM     14  C   UNL     1      45.637   5.015   9.228  0.00  0.00    +0.000 A 
ENDBRANCH   6   8
ENDBRANCH   1   2
BRANCH   1  15
ATOM     15  O   UNL     1      48.735   6.258  14.161  0.00  0.00    +0.000 OA
BRANCH  15  19
ATOM     16  C   UNL     1      48.290   5.506  18.184  0.00  0.00    +0.000 A 
ATOM     17  C   UNL     1      48.810   6.733  17.764  0.00  0.00    +0.000 A 
ATOM     18  C   UNL     1      48.959   6.977  16.398  0.00  0.00    +0.000 A 
ATOM     19  C   UNL     1      48.582   5.985  15.504  0.00  0.00    +0.000 A 
ATOM     20  N   UNL     1      48.085   4.788  15.883  0.00  0.00    +0.000 NA
ATOM     21  C   UNL     1      47.960   4.569  17.212  0.00  0.00    +0.000 A 
BRANCH  16  23
ATOM     22  N   UNL     1      48.504   3.896  19.990  0.00  0.00    +0.000 N 
ATOM     23  C   UNL     1      48.091   5.138  19.600  0.00  0.00    +0.000 C 
ATOM     24  O   UNL     1      47.616   5.930  20.403  0.00  0.00    +0.000 OA
ATOM     25  H   UNL     1      48.469   3.710  20.985  0.00  0.00    +0.000 HD
ATOM     26  H   UNL     1      49.123   3.326  19.433  0.00  0.00    +0.000 HD
ENDBRANCH  16  23
ENDBRANCH  15  19
ENDBRANCH   1  15
TORSDOF 5
ENDMDL
MODEL 8
REMARK VINA RESULT:    -6.588      5.833      8.421
REMARK INTER + INTRA:          -9.169
REMARK INTER:                  -8.545
REMARK INTRA:                  -0.624
REMARK UNBOUND:                -0.655
REMARK  Name = 
REMARK  5 active torsions:
REMARK  status: ('A' for Active; 'I' for Inactive)
REMARK    1  A    between atoms: C_2  and  C_4
REMARK    2  A    between atoms: C_7  and  O_8
REMARK    3  A    between atoms: O_8  and  C_9
REMARK    4  A    between atoms: C_9  and  C_10
REMARK    5  A    between atoms: C_14  and  C_15
REMARK                            x       y       z     vdW  Elec       q    Type
REMARK                         _______ _______ _______ _____ _____    ______ ____
ROOT
ATOM      1  C   UNL     1      47.840   4.434  16.654  0.00  0.00    +0.000 C 
ENDROOT
BRANCH   1   2
ATOM      2  C   UNL     1      47.594   5.117  15.335  0.00  0.00    +0.000 A 
ATOM      3  C   UNL     1      48.286   6.277  15.010  0.00  0.00    +0.000 A 
ATOM      4  N   UNL     1      48.153   6.931  13.838  0.00  0.00    +0.000 NA
ATOM      5  C   UNL     1      47.286   6.400  12.942  0.00  0.00    +0.000 A 
ATOM      6  C   UNL     1      46.543   5.231  13.130  0.00  0.00    +0.000 A 
ATOM      7  C   UNL     1      46.738   4.587  14.362  0.00  0.00    +0.000 A 
BRANCH   6   8
ATOM      8  C   UNL     1      45.607   4.710  12.112  0.00  0.00    +0.000 A 
ATOM      9  C   UNL     1      45.535   5.264  10.818  0.00  0.00    +0.000 A 
ATOM     10  C   UNL     1      44.635   4.778   9.862  0.00  0.00    +0.000 A 
ATOM     11  C   UNL     1      43.793   3.717  10.175  0.00  0.00    +0.000 A 
ATOM     12  C   UNL     1      43.858   3.153  11.440  0.00  0.00    +0.000 A 
ATOM     13  F   UNL     1      43.055   2.126  11.747  0.00  0.00    +0.000 F 
ATOM     14  C   UNL     1      44.743   3.638  12.400  0.00  0.00    +0.000 A 
ENDBRANCH   6   8
ENDBRANCH   1   2
BRANCH   1  15
ATOM     15  O   UNL     1      49.003   4.976  17.290  0.00  0.00    +0.000 OA
BRANCH  15  19
ATOM     16  C   UNL     1      51.998   2.196  17.788  0.00  0.00    +0.000 A 
ATOM     17  C   UNL     1      52.197   3.510  18.219  0.00  0.00    +0.000 A 
ATOM     18  C   UNL     1      51.176   4.445  18.043  0.00  0.00    +0.000 A 
ATOM     19  C   UNL     1      49.995   4.031  17.444  0.00  0.00    +0.000 A 
ATOM     20  N   UNL     1      49.780   2.770  17.011  0.00  0.00    +0.000 NA
ATOM     21  C   UNL     1      50.788   1.883  17.182  0.00  0.00    +0.000 A 
BRANCH  16  23
ATOM     22  N   UNL     1      53.099   0.220  16.901  0.00  0.00    +0.000 N 
ATOM     23  C   UNL     1      53.006   1.125  17.921  0.00  0.00    +0.000 C 
ATOM     24  O   UNL     1      53.759   1.074  18.884  0.00  0.00    +0.000 OA
ATOM     25  H   UNL     1      53.874  -0.430  16.956  0.00  0.00    +0.000 HD
ATOM     26  H   UNL     1      52.687   0.377  15.993  0.00  0.00    +0.000 HD
ENDBRANCH  16  23
ENDBRANCH  15  19
ENDBRANCH   1  15
TORSDOF 5
ENDMDL
MODEL 9
REMARK VINA RESULT:    -6.481      5.938      7.792
REMARK INTER + INTRA:          -9.031
REMARK INTER:                  -8.483
REMARK INTRA:                  -0.548
REMARK UNBOUND:                -0.655
REMARK  Name = 
REMARK  5 active torsions:
REMARK  status: ('A' for Active; 'I' for Inactive)
REMARK    1  A    between atoms: C_2  and  C_4
REMARK    2  A    between atoms: C_7  and  O_8
REMARK    3  A    between atoms: O_8  and  C_9
REMARK    4  A    between atoms: C_9  and  C_10
REMARK    5  A    between atoms: C_14  and  C_15
REMARK                            x       y       z     vdW  Elec       q    Type
REMARK                         _______ _______ _______ _____ _____    ______ ____
ROOT
ATOM      1  C   UNL     1      47.095   3.980  15.980  0.00  0.00    +0.000 C 
ENDROOT
BRANCH   1   2
ATOM      2  C   UNL     1      48.158   4.227  17.017  0.00  0.00    +0.000 A 
ATOM      3  C   UNL     1      47.884   5.029  18.118  0.00  0.00    +0.000 A 
ATOM      4  N   UNL     1      48.765   5.273  19.110  0.00  0.00    +0.000 NA
ATOM      5  C   UNL     1      49.982   4.686  18.999  0.00  0.00    +0.000 A 
ATOM      6  C   UNL     1      50.381   3.842  17.959  0.00  0.00    +0.000 A 
ATOM      7  C   UNL     1      49.416   3.613  16.966  0.00  0.00    +0.000 A 
BRANCH   6   8
ATOM      8  C   UNL     1      51.730   3.240  17.894  0.00  0.00    +0.000 A 
ATOM      9  C   UNL     1      52.895   4.010  18.084  0.00  0.00    +0.000 A 
ATOM     10  C   UNL     1      54.171   3.439  18.006  0.00  0.00    +0.000 A 
ATOM     11  C   UNL     1      54.310   2.080  17.748  0.00  0.00    +0.000 A 
ATOM     12  C   UNL     1      53.174   1.306  17.569  0.00  0.00    +0.000 A 
ATOM     13  F   UNL     1      53.300  -0.005  17.327  0.00  0.00    +0.000 F 
ATOM     14  C   UNL     1      51.902   1.869  17.634  0.00  0.00    +0.000 A 
ENDBRANCH   6   8
ENDBRANCH   1   2
BRANCH   1  15
ATOM     15  O   UNL     1      47.659   4.019  14.664  0.00  0.00    +0.000 OA
BRANCH  15  19
ATOM     16  C   UNL     1      44.833   4.844  11.787  0.00  0.00    +0.000 A 
ATOM     17  C   UNL     1      45.545   5.892  12.375  0.00  0.00    +0.000 A 
ATOM     18  C   UNL     1      46.500   5.601  13.352  0.00  0.00    +0.000 A 
ATOM     19  C   UNL     1      46.705   4.275  13.701  0.00  0.00    +0.000 A 
ATOM     20  N   UNL     1      46.025   3.244  13.154  0.00  0.00    +0.000 NA
ATOM     21  C   UNL     1      45.097   3.551  12.218  0.00  0.00    +0.000 A 
BRANCH  16  23
ATOM     22  N   UNL     1      44.117   4.655   9.473  0.00  0.00    +0.000 N 
ATOM     23  C   UNL     1      43.801   5.034  10.747  0.00  0.00    +0.000 C 
ATOM     24  O   UNL     1      42.692   5.471  11.022  0.00  0.00    +0.000 OA
ATOM     25  H   UNL     1      43.358   4.680   8.803  0.00  0.00    +0.000 HD
ATOM     26  H   UNL     1      44.906   4.063   9.259  0.00  0.00    +0.000 HD
ENDBRANCH  16  23
ENDBRANCH  15  19
ENDBRANCH   1  15
TORSDOF 5
ENDMDL
