MODEL 1
REMARK VINA RESULT:    -8.777      0.000      0.000
REMARK INTER + INTRA:         -12.176
REMARK INTER:                 -11.343
REMARK INTRA:                  -0.833
REMARK UNBOUND:                -0.833
REMARK  Name = 
REMARK  5 active torsions:
REMARK  status: ('A' for Active; 'I' for Inactive)
REMARK    1  A    between atoms: C_2  and  C_4
REMARK    2  A    between atoms: C_7  and  O_8
REMARK    3  A    between atoms: O_8  and  C_9
REMARK    4  A    between atoms: C_9  and  C_10
REMARK    5  A    between atoms: C_15  and  C_16
REMARK                            x       y       z     vdW  Elec       q    Type
REMARK                         _______ _______ _______ _____ _____    ______ ____
ROOT
ATOM      1  C   UNL     1      44.918   4.801  12.078  0.00  0.00    +0.000 A 
ATOM      2  C   UNL     1      45.492   3.993  13.068  0.00  0.00    +0.000 A 
ATOM      3  C   UNL     1      46.591   4.445  13.789  0.00  0.00    +0.000 A 
ATOM      4  C   UNL     1      47.126   5.705  13.524  0.00  0.00    +0.000 A 
ATOM      5  F   UNL     1      48.167   6.100  14.273  0.00  0.00    +0.000 F 
ATOM      6  C   UNL     1      46.607   6.544  12.522  0.00  0.00    +0.000 A 
ATOM      7  C   UNL     1      45.499   6.051  11.799  0.00  0.00    +0.000 A 
ENDROOT
BRANCH   6   8
ATOM      8  C   UNL     1      47.179   7.878  12.230  0.00  0.00    +0.000 A 
ATOM      9  C   UNL     1      46.453   9.065  12.400  0.00  0.00    +0.000 A 
ATOM     10  N   UNL     1      46.923  10.318  12.150  0.00  0.00    +0.000 NA
ATOM     11  C   UNL     1      48.193  10.405  11.704  0.00  0.00    +0.000 A 
ATOM     12  C   UNL     1      49.002   9.305  11.505  0.00  0.00    +0.000 A 
ATOM     13  F   UNL     1      50.259   9.449  11.071  0.00  0.00    +0.000 F 
ATOM     14  C   UNL     1      48.495   8.037  11.765  0.00  0.00    +0.000 A 
ENDBRANCH   6   8
BRANCH   1  15
ATOM     15  C   UNL     1      43.744   4.277  11.279  0.00  0.00    +0.000 C 
BRANCH  15  16
ATOM     16  O   UNL     1      43.802   4.734   9.922  0.00  0.00    +0.000 OA
BRANCH  16  20
ATOM     17  C   UNL     1      46.423   2.456   7.706  0.00  0.00    +0.000 A 
ATOM     18  C   UNL     1      45.579   1.835   8.628  0.00  0.00    +0.000 A 
ATOM     19  C   UNL     1      44.696   2.617   9.376  0.00  0.00    +0.000 A 
ATOM     20  C   UNL     1      44.688   3.989   9.169  0.00  0.00    +0.000 A 
ATOM     21  N   UNL     1      45.496   4.614   8.288  0.00  0.00    +0.000 NA
ATOM     22  C   UNL     1      46.355   3.838   7.583  0.00  0.00    +0.000 A 
BRANCH  17  24
ATOM     23  N   UNL     1      48.492   2.424   6.431  0.00  0.00    +0.000 N 
ATOM     24  C   UNL     1      47.400   1.729   6.870  0.00  0.00    +0.000 C 
ATOM     25  O   UNL     1      47.261   0.542   6.613  0.00  0.00    +0.000 OA
ATOM     26  H   UNL     1      49.205   1.881   5.960  0.00  0.00    +0.000 HD
ATOM     27  H   UNL     1      48.770   3.312   6.826  0.00  0.00    +0.000 HD
ENDBRANCH  17  24
ENDBRANCH  16  20
ENDBRANCH  15  16
ENDBRANCH   1  15
TORSDOF 5
ENDMDL
MODEL 2
REMARK VINA RESULT:    -8.335      1.860      2.406
REMARK INTER + INTRA:         -11.604
REMARK INTER:                 -10.759
REMARK INTRA:                  -0.845
REMARK UNBOUND:                -0.833
REMARK  Name = 
REMARK  5 active torsions:
REMARK  status: ('A' for Active; 'I' for Inactive)
REMARK    1  A    between atoms: C_2  and  C_4
REMARK    2  A    between atoms: C_7  and  O_8
REMARK    3  A    between atoms: O_8  and  C_9
REMARK    4  A    between atoms: C_9  and  C_10
REMARK    5  A    between atoms: C_15  and  C_16
REMARK                            x       y       z     vdW  Elec       q    Type
REMARK                         _______ _______ _______ _____ _____    ______ ____
ROOT
ATOM      1  C   UNL     1      44.678   5.082  11.693  0.00  0.00    +0.000 A 
ATOM      2  C   UNL     1      43.748   6.105  11.462  0.00  0.00    +0.000 A 
ATOM      3  C   UNL     1      44.132   7.436  11.575  0.00  0.00    +0.000 A 
ATOM      4  C   UNL     1      45.444   7.755  11.924  0.00  0.00    +0.000 A 
ATOM      5  F   UNL     1      45.763   9.056  11.986  0.00  0.00    +0.000 F 
ATOM      6  C   UNL     1      46.408   6.768  12.193  0.00  0.00    +0.000 A 
ATOM      7  C   UNL     1      45.985   5.426  12.082  0.00  0.00    +0.000 A 
ENDROOT
BRANCH   6   8
ATOM      8  C   UNL     1      47.800   7.101  12.574  0.00  0.00    +0.000 A 
ATOM      9  C   UNL     1      48.321   6.828  13.846  0.00  0.00    +0.000 A 
ATOM     10  N   UNL     1      49.589   7.109  14.254  0.00  0.00    +0.000 NA
ATOM     11  C   UNL     1      50.396   7.696  13.346  0.00  0.00    +0.000 A 
ATOM     12  C   UNL     1      49.992   8.005  12.063  0.00  0.00    +0.000 A 
ATOM     13  F   UNL     1      50.837   8.578  11.199  0.00  0.00    +0.000 F 
ATOM     14  C   UNL     1      48.690   7.711  11.674  0.00  0.00    +0.000 A 
ENDBRANCH   6   8
BRANCH   1  15
ATOM     15  C   UNL     1      44.232   3.639  11.600  0.00  0.00    +0.000 C 
BRANCH  15  16
ATOM     16  O   UNL     1      43.642   3.365  10.323  0.00  0.00    +0.000 OA
BRANCH  16  20
ATOM     17  C   UNL     1      46.495   2.662   7.436  0.00  0.00    +0.000 A 
ATOM     18  C   UNL     1      45.925   3.931   7.547  0.00  0.00    +0.000 A 
ATOM     19  C   UNL     1      44.956   4.158   8.528  0.00  0.00    +0.000 A 
ATOM     20  C   UNL     1      44.600   3.108   9.362  0.00  0.00    +0.000 A 
ATOM     21  N   UNL     1      45.133   1.872   9.272  0.00  0.00    +0.000 NA
ATOM     22  C   UNL     1      46.059   1.670   8.305  0.00  0.00    +0.000 A 
BRANCH  17  24
ATOM     23  N   UNL     1      47.549   3.041   5.279  0.00  0.00    +0.000 N 
ATOM     24  C   UNL     1      47.518   2.308   6.431  0.00  0.00    +0.000 C 
ATOM     25  O   UNL     1      48.334   1.420   6.638  0.00  0.00    +0.000 OA
ATOM     26  H   UNL     1      48.328   2.860   4.657  0.00  0.00    +0.000 HD
ATOM     27  H   UNL     1      47.075   3.928   5.183  0.00  0.00    +0.000 HD
ENDBRANCH  17  24
ENDBRANCH  16  20
ENDBRANCH  15  16
ENDBRANCH   1  15
TORSDOF 5
ENDMDL
MODEL 3
REMARK VINA RESULT:    -7.850      2.487      4.235
REMARK INTER + INTRA:         -10.978
REMARK INTER:                 -10.460
REMARK INTRA:                  -0.517
REMARK UNBOUND:                -0.833
REMARK  Name = 
REMARK  5 active torsions:
REMARK  status: ('A' for Active; 'I' for Inactive)
REMARK    1  A    between atoms: C_2  and  C_4
REMARK    2  A    between atoms: C_7  and  O_8
REMARK    3  A    between atoms: O_8  and  C_9
REMARK    4  A    between atoms: C_9  and  C_10
REMARK    5  A    between atoms: C_15  and  C_16
REMARK                            x       y       z     vdW  Elec       q    Type
REMARK                         _______ _______ _______ _____ _____    ______ ____
ROOT
ATOM      1  C   UNL     1      44.849   5.326  11.696  0.00  0.00    +0.000 A 
ATOM      2  C   UNL     1      45.336   6.602  11.387  0.00  0.00    +0.000 A 
ATOM      3  C   UNL     1      46.356   7.163  12.146  0.00  0.00    +0.000 A 
ATOM      4  C   UNL     1      46.894   6.456  13.220  0.00  0.00    +0.000 A 
ATOM      5  F   UNL     1      47.898   7.034  13.896  0.00  0.00    +0.000 F 
ATOM      6  C   UNL     1      46.423   5.184  13.590  0.00  0.00    +0.000 A 
ATOM      7  C   UNL     1      45.378   4.646  12.808  0.00  0.00    +0.000 A 
ENDROOT
BRANCH   6   8
ATOM      8  C   UNL     1      46.984   4.432  14.737  0.00  0.00    +0.000 A 
ATOM      9  C   UNL     1      47.555   3.160  14.599  0.00  0.00    +0.000 A 
ATOM     10  N   UNL     1      48.087   2.422  15.612  0.00  0.00    +0.000 NA
ATOM     11  C   UNL     1      48.054   2.978  16.841  0.00  0.00    +0.000 A 
ATOM     12  C   UNL     1      47.522   4.226  17.092  0.00  0.00    +0.000 A 
ATOM     13  F   UNL     1      47.525   4.733  18.330  0.00  0.00    +0.000 F 
ATOM     14  C   UNL     1      46.982   4.956  16.040  0.00  0.00    +0.000 A 
ENDBRANCH   6   8
BRANCH   1  15
ATOM     15  C   UNL     1      43.713   4.747  10.881  0.00  0.00    +0.000 C 
BRANCH  15  16
ATOM     16  O   UNL     1      43.900   3.342  10.665  0.00  0.00    +0.000 OA
BRANCH  16  20
ATOM     17  C   UNL     1      46.421   2.677   7.475  0.00  0.00    +0.000 A 
ATOM     18  C   UNL     1      45.927   3.962   7.707  0.00  0.00    +0.000 A 
ATOM     19  C   UNL     1      45.071   4.176   8.790  0.00  0.00    +0.000 A 
ATOM     20  C   UNL     1      44.746   3.098   9.601  0.00  0.00    +0.000 A 
ATOM     21  N   UNL     1      45.207   1.846   9.395  0.00  0.00    +0.000 NA
ATOM     22  C   UNL     1      46.024   1.658   8.331  0.00  0.00    +0.000 A 
BRANCH  17  24
ATOM     23  N   UNL     1      47.264   3.119   5.239  0.00  0.00    +0.000 N 
ATOM     24  C   UNL     1      47.323   2.335   6.356  0.00  0.00    +0.000 C 
ATOM     25  O   UNL     1      48.122   1.413   6.441  0.00  0.00    +0.000 OA
ATOM     26  H   UNL     1      47.969   2.940   4.533  0.00  0.00    +0.000 HD
ATOM     27  H   UNL     1      46.816   4.024   5.229  0.00  0.00    +0.000 HD
ENDBRANCH  17  24
ENDBRANCH  16  20
ENDBRANCH  15  16
ENDBRANCH   1  15
TORSDOF 5
ENDMDL
MODEL 4
REMARK VINA RESULT:    -7.803      1.755      2.730
REMARK INTER + INTRA:         -10.917
REMARK INTER:                 -10.149
REMARK INTRA:                  -0.768
REMARK UNBOUND:                -0.833
REMARK  Name = 
REMARK  5 active torsions:
REMARK  status: ('A' for Active; 'I' for Inactive)
REMARK    1  A    between atoms: C_2  and  C_4
REMARK    2  A    between atoms: C_7  and  O_8
REMARK    3  A    between atoms: O_8  and  C_9
REMARK    4  A    between atoms: C_9  and  C_10
REMARK    5  A    between atoms: C_15  and  C_16
REMARK                            x       y       z     vdW  Elec       q    Type
REMARK                         _______ _______ _______ _____ _____    ______ ____
ROOT
ATOM      1  C   UNL     1      44.785   5.932  11.522  0.00  0.00    +0.000 A 
ATOM      2  C   UNL     1      44.102   7.100  11.159  0.00  0.00    +0.000 A 
ATOM      3  C   UNL     1      44.645   8.346  11.449  0.00  0.00    +0.000 A 
ATOM      4  C   UNL     1      45.871   8.434  12.107  0.00  0.00    +0.000 A 
ATOM      5  F   UNL     1      46.361   9.663  12.331  0.00  0.00    +0.000 F 
ATOM      6  C   UNL     1      46.585   7.294  12.517  0.00  0.00    +0.000 A 
ATOM      7  C   UNL     1      46.001   6.044  12.219  0.00  0.00    +0.000 A 
ENDROOT
BRANCH   6   8
ATOM      8  C   UNL     1      47.883   7.383  13.225  0.00  0.00    +0.000 A 
ATOM      9  C   UNL     1      48.995   8.040  12.683  0.00  0.00    +0.000 A 
ATOM     10  N   UNL     1      50.211   8.156  13.284  0.00  0.00    +0.000 NA
ATOM     11  C   UNL     1      50.336   7.587  14.501  0.00  0.00    +0.000 A 
ATOM     12  C   UNL     1      49.306   6.920  15.133  0.00  0.00    +0.000 A 
ATOM     13  F   UNL     1      49.482   6.383  16.346  0.00  0.00    +0.000 F 
ATOM     14  C   UNL     1      48.076   6.813  14.495  0.00  0.00    +0.000 A 
ENDBRANCH   6   8
BRANCH   1  15
ATOM     15  C   UNL     1      44.160   4.585  11.229  0.00  0.00    +0.000 C 
BRANCH  15  16
ATOM     16  O   UNL     1      43.770   4.488   9.854  0.00  0.00    +0.000 OA
BRANCH  16  20
ATOM     17  C   UNL     1      46.600   2.494   7.621  0.00  0.00    +0.000 A 
ATOM     18  C   UNL     1      45.799   1.781   8.514  0.00  0.00    +0.000 A 
ATOM     19  C   UNL     1      44.843   2.468   9.269  0.00  0.00    +0.000 A 
ATOM     20  C   UNL     1      44.724   3.839   9.096  0.00  0.00    +0.000 A 
ATOM     21  N   UNL     1      45.489   4.552   8.243  0.00  0.00    +0.000 NA
ATOM     22  C   UNL     1      46.419   3.868   7.533  0.00  0.00    +0.000 A 
BRANCH  17  24
ATOM     23  N   UNL     1      48.597   2.698   6.251  0.00  0.00    +0.000 N 
ATOM     24  C   UNL     1      47.645   1.874   6.782  0.00  0.00    +0.000 C 
ATOM     25  O   UNL     1      47.684   0.665   6.602  0.00  0.00    +0.000 OA
ATOM     26  H   UNL     1      49.367   2.241   5.778  0.00  0.00    +0.000 HD
ATOM     27  H   UNL     1      48.748   3.641   6.580  0.00  0.00    +0.000 HD
ENDBRANCH  17  24
ENDBRANCH  16  20
ENDBRANCH  15  16
ENDBRANCH   1  15
TORSDOF 5
ENDMDL
MODEL 5
REMARK VINA RESULT:    -7.744      1.859      2.131
REMARK INTER + INTRA:         -10.840
REMARK INTER:                 -10.100
REMARK INTRA:                  -0.740
REMARK UNBOUND:                -0.833
REMARK  Name = 
REMARK  5 active torsions:
REMARK  status: ('A' for Active; 'I' for Inactive)
REMARK    1  A    between atoms: C_2  and  C_4
REMARK    2  A    between atoms: C_7  and  O_8
REMARK    3  A    between atoms: O_8  and  C_9
REMARK    4  A    between atoms: C_9  and  C_10
REMARK    5  A    between atoms: C_15  and  C_16
REMARK                            x       y       z     vdW  Elec       q    Type
REMARK                         _______ _______ _______ _____ _____    ______ ____
ROOT
ATOM      1  C   UNL     1      45.605   5.757  11.857  0.00  0.00    +0.000 A 
ATOM      2  C   UNL     1      45.390   4.619  12.645  0.00  0.00    +0.000 A 
ATOM      3  C   UNL     1      46.151   4.409  13.790  0.00  0.00    +0.000 A 
ATOM      4  C   UNL     1      47.132   5.331  14.152  0.00  0.00    +0.000 A 
ATOM      5  F   UNL     1      47.812   5.091  15.284  0.00  0.00    +0.000 F 
ATOM      6  C   UNL     1      47.406   6.474  13.382  0.00  0.00    +0.000 A 
ATOM      7  C   UNL     1      46.626   6.653  12.219  0.00  0.00    +0.000 A 
ENDROOT
BRANCH   6   8
ATOM      8  C   UNL     1      48.454   7.451  13.757  0.00  0.00    +0.000 A 
ATOM      9  C   UNL     1      49.687   7.528  13.095  0.00  0.00    +0.000 A 
ATOM     10  N   UNL     1      50.687   8.403  13.391  0.00  0.00    +0.000 NA
ATOM     11  C   UNL     1      50.453   9.260  14.407  0.00  0.00    +0.000 A 
ATOM     12  C   UNL     1      49.275   9.279  15.124  0.00  0.00    +0.000 A 
ATOM     13  F   UNL     1      49.092  10.158  16.116  0.00  0.00    +0.000 F 
ATOM     14  C   UNL     1      48.272   8.371  14.803  0.00  0.00    +0.000 A 
ENDBRANCH   6   8
BRANCH   1  15
ATOM     15  C   UNL     1      44.791   5.950  10.595  0.00  0.00    +0.000 C 
BRANCH  15  16
ATOM     16  O   UNL     1      44.158   4.726  10.201  0.00  0.00    +0.000 OA
BRANCH  16  20
ATOM     17  C   UNL     1      46.521   2.472   7.689  0.00  0.00    +0.000 A 
ATOM     18  C   UNL     1      45.757   1.838   8.670  0.00  0.00    +0.000 A 
ATOM     19  C   UNL     1      44.961   2.612   9.519  0.00  0.00    +0.000 A 
ATOM     20  C   UNL     1      44.957   3.989   9.349  0.00  0.00    +0.000 A 
ATOM     21  N   UNL     1      45.689   4.626   8.411  0.00  0.00    +0.000 NA
ATOM     22  C   UNL     1      46.465   3.857   7.609  0.00  0.00    +0.000 A 
BRANCH  17  24
ATOM     23  N   UNL     1      48.559   2.378   6.368  0.00  0.00    +0.000 N 
ATOM     24  C   UNL     1      47.403   1.754   6.746  0.00  0.00    +0.000 C 
ATOM     25  O   UNL     1      47.133   0.630   6.350  0.00  0.00    +0.000 OA
ATOM     26  H   UNL     1      49.202   1.824   5.816  0.00  0.00    +0.000 HD
ATOM     27  H   UNL     1      48.937   3.174   6.862  0.00  0.00    +0.000 HD
ENDBRANCH  17  24
ENDBRANCH  16  20
ENDBRANCH  15  16
ENDBRANCH   1  15
TORSDOF 5
ENDMDL
MODEL 6
REMARK VINA RESULT:    -7.224      5.587      8.095
REMARK INTER + INTRA:         -10.168
REMARK INTER:                  -9.325
REMARK INTRA:                  -0.843
REMARK UNBOUND:                -0.833
REMARK  Name = 
REMARK  5 active torsions:
REMARK  status: ('A' for Active; 'I' for Inactive)
REMARK    1  A    between atoms: C_2  and  C_4
REMARK    2  A    between atoms: C_7  and  O_8
REMARK    3  A    between atoms: O_8  and  C_9
REMARK    4  A    between atoms: C_9  and  C_10
REMARK    5  A    between atoms: C_15  and  C_16
REMARK                            x       y       z     vdW  Elec       q    Type
REMARK                         _______ _______ _______ _____ _____    ______ ____
ROOT
ATOM      1  C   UNL     1      48.575   6.659  14.716  0.00  0.00    +0.000 A 
ATOM      2  C   UNL     1      49.200   7.375  13.687  0.00  0.00    +0.000 A 
ATOM      3  C   UNL     1      48.659   7.371  12.406  0.00  0.00    +0.000 A 
ATOM      4  C   UNL     1      47.495   6.651  12.144  0.00  0.00    +0.000 A 
ATOM      5  F   UNL     1      47.003   6.711  10.897  0.00  0.00    +0.000 F 
ATOM      6  C   UNL     1      46.844   5.893  13.134  0.00  0.00    +0.000 A 
ATOM      7  C   UNL     1      47.424   5.907  14.421  0.00  0.00    +0.000 A 
ENDROOT
BRANCH   6   8
ATOM      8  C   UNL     1      45.613   5.118  12.858  0.00  0.00    +0.000 A 
ATOM      9  C   UNL     1      45.600   3.718  12.796  0.00  0.00    +0.000 A 
ATOM     10  N   UNL     1      44.504   2.950  12.549  0.00  0.00    +0.000 NA
ATOM     11  C   UNL     1      43.343   3.609  12.351  0.00  0.00    +0.000 A 
ATOM     12  C   UNL     1      43.236   4.984  12.395  0.00  0.00    +0.000 A 
ATOM     13  F   UNL     1      42.057   5.585  12.202  0.00  0.00    +0.000 F 
ATOM     14  C   UNL     1      44.373   5.743  12.645  0.00  0.00    +0.000 A 
ENDBRANCH   6   8
BRANCH   1  15
ATOM     15  C   UNL     1      49.198   6.646  16.096  0.00  0.00    +0.000 C 
BRANCH  15  16
ATOM     16  O   UNL     1      48.624   5.614  16.908  0.00  0.00    +0.000 OA
BRANCH  16  20
ATOM     17  C   UNL     1      51.310   2.554  17.535  0.00  0.00    +0.000 A 
ATOM     18  C   UNL     1      51.723   3.878  17.695  0.00  0.00    +0.000 A 
ATOM     19  C   UNL     1      50.804   4.908  17.477  0.00  0.00    +0.000 A 
ATOM     20  C   UNL     1      49.508   4.574  17.113  0.00  0.00    +0.000 A 
ATOM     21  N   UNL     1      49.086   3.303  16.947  0.00  0.00    +0.000 NA
ATOM     22  C   UNL     1      49.997   2.320  17.149  0.00  0.00    +0.000 A 
BRANCH  17  24
ATOM     23  N   UNL     1      51.616   0.213  18.110  0.00  0.00    +0.000 N 
ATOM     24  C   UNL     1      52.197   1.390  17.729  0.00  0.00    +0.000 C 
ATOM     25  O   UNL     1      53.400   1.462  17.518  0.00  0.00    +0.000 OA
ATOM     26  H   UNL     1      52.223  -0.598  18.125  0.00  0.00    +0.000 HD
ATOM     27  H   UNL     1      50.622   0.048  18.044  0.00  0.00    +0.000 HD
ENDBRANCH  17  24
ENDBRANCH  16  20
ENDBRANCH  15  16
ENDBRANCH   1  15
TORSDOF 5
ENDMDL
MODEL 7
REMARK VINA RESULT:    -7.115      3.493      7.244
REMARK INTER + INTRA:         -10.028
REMARK INTER:                  -9.559
REMARK INTRA:                  -0.469
REMARK UNBOUND:                -0.833
REMARK  Name = 
REMARK  5 active torsions:
REMARK  status: ('A' for Active; 'I' for Inactive)
REMARK    1  A    between atoms: C_2  and  C_4
REMARK    2  A    between atoms: C_7  and  O_8
REMARK    3  A    between atoms: O_8  and  C_9
REMARK    4  A    between atoms: C_9  and  C_10
REMARK    5  A    between atoms: C_15  and  C_16
REMARK                            x       y       z     vdW  Elec       q    Type
REMARK                         _______ _______ _______ _____ _____    ______ ____
ROOT
ATOM      1  C   UNL     1      44.566   5.392  10.988  0.00  0.00    +0.000 A 
ATOM      2  C   UNL     1      43.617   4.639  11.691  0.00  0.00    +0.000 A 
ATOM      3  C   UNL     1      43.370   3.319  11.335  0.00  0.00    +0.000 A 
ATOM      4  C   UNL     1      44.065   2.742  10.273  0.00  0.00    +0.000 A 
ATOM      5  F   UNL     1      43.807   1.455   9.996  0.00  0.00    +0.000 F 
ATOM      6  C   UNL     1      45.007   3.461   9.516  0.00  0.00    +0.000 A 
ATOM      7  C   UNL     1      45.227   4.804   9.894  0.00  0.00    +0.000 A 
ENDROOT
BRANCH   6   8
ATOM      8  C   UNL     1      45.740   2.857   8.380  0.00  0.00    +0.000 A 
ATOM      9  C   UNL     1      46.194   1.531   8.393  0.00  0.00    +0.000 A 
ATOM     10  N   UNL     1      46.870   0.920   7.382  0.00  0.00    +0.000 NA
ATOM     11  C   UNL     1      47.113   1.667   6.285  0.00  0.00    +0.000 A 
ATOM     12  C   UNL     1      46.708   2.980   6.160  0.00  0.00    +0.000 A 
ATOM     13  F   UNL     1      46.967   3.672   5.044  0.00  0.00    +0.000 F 
ATOM     14  C   UNL     1      46.023   3.581   7.210  0.00  0.00    +0.000 A 
ENDBRANCH   6   8
BRANCH   1  15
ATOM     15  C   UNL     1      44.796   6.839  11.367  0.00  0.00    +0.000 C 
BRANCH  15  16
ATOM     16  O   UNL     1      45.277   6.946  12.713  0.00  0.00    +0.000 OA
BRANCH  16  20
ATOM     17  C   UNL     1      49.140   8.376  12.795  0.00  0.00    +0.000 A 
ATOM     18  C   UNL     1      48.796   7.371  11.890  0.00  0.00    +0.000 A 
ATOM     19  C   UNL     1      47.483   6.891  11.872  0.00  0.00    +0.000 A 
ATOM     20  C   UNL     1      46.566   7.440  12.757  0.00  0.00    +0.000 A 
ATOM     21  N   UNL     1      46.874   8.409  13.644  0.00  0.00    +0.000 NA
ATOM     22  C   UNL     1      48.156   8.848  13.654  0.00  0.00    +0.000 A 
BRANCH  17  24
ATOM     23  N   UNL     1      51.554   8.097  12.762  0.00  0.00    +0.000 N 
ATOM     24  C   UNL     1      50.496   8.950  12.907  0.00  0.00    +0.000 C 
ATOM     25  O   UNL     1      50.670  10.148  13.081  0.00  0.00    +0.000 OA
ATOM     26  H   UNL     1      52.470   8.527  12.726  0.00  0.00    +0.000 HD
ATOM     27  H   UNL     1      51.459   7.171  12.368  0.00  0.00    +0.000 HD
ENDBRANCH  17  24
ENDBRANCH  16  20
ENDBRANCH  15  16
ENDBRANCH   1  15
TORSDOF 5
ENDMDL
MODEL 8
REMARK VINA RESULT:    -6.977      4.721      8.128
REMARK INTER + INTRA:          -9.849
REMARK INTER:                  -8.971
REMARK INTRA:                  -0.877
REMARK UNBOUND:                -0.833
REMARK  Name = 
REMARK  5 active torsions:
REMARK  status: ('A' for Active; 'I' for Inactive)
REMARK    1  A    between atoms: C_2  and  C_4
REMARK    2  A    between atoms: C_7  and  O_8
REMARK    3  A    between atoms: O_8  and  C_9
REMARK    4  A    between atoms: C_9  and  C_10
REMARK    5  A    between atoms: C_15  and  C_16
REMARK                            x       y       z     vdW  Elec       q    Type
REMARK                         _______ _______ _______ _____ _____    ______ ____
ROOT
ATOM      1  C   UNL     1      47.224   7.591  13.120  0.00  0.00    +0.000 A 
ATOM      2  C   UNL     1      46.389   8.715  13.145  0.00  0.00    +0.000 A 
ATOM      3  C   UNL     1      45.193   8.712  12.436  0.00  0.00    +0.000 A 
ATOM      4  C   UNL     1      44.825   7.590  11.695  0.00  0.00    +0.000 A 
ATOM      5  F   UNL     1      43.645   7.634  11.058  0.00  0.00    +0.000 F 
ATOM      6  C   UNL     1      45.639   6.447  11.614  0.00  0.00    +0.000 A 
ATOM      7  C   UNL     1      46.853   6.484  12.335  0.00  0.00    +0.000 A 
ENDROOT
BRANCH   6   8
ATOM      8  C   UNL     1      45.258   5.255  10.821  0.00  0.00    +0.000 A 
ATOM      9  C   UNL     1      44.536   4.185  11.365  0.00  0.00    +0.000 A 
ATOM     10  N   UNL     1      44.157   3.066  10.688  0.00  0.00    +0.000 NA
ATOM     11  C   UNL     1      44.511   3.002   9.388  0.00  0.00    +0.000 A 
ATOM     12  C   UNL     1      45.216   4.000   8.746  0.00  0.00    +0.000 A 
ATOM     13  F   UNL     1      45.533   3.889   7.451  0.00  0.00    +0.000 F 
ATOM     14  C   UNL     1      45.596   5.129   9.463  0.00  0.00    +0.000 A 
ENDBRANCH   6   8
BRANCH   1  15
ATOM     15  C   UNL     1      48.539   7.626  13.869  0.00  0.00    +0.000 C 
BRANCH  15  16
ATOM     16  O   UNL     1      48.958   6.304  14.231  0.00  0.00    +0.000 OA
BRANCH  16  20
ATOM     17  C   UNL     1      48.253   5.574  18.224  0.00  0.00    +0.000 A 
ATOM     18  C   UNL     1      48.759   6.814  17.829  0.00  0.00    +0.000 A 
ATOM     19  C   UNL     1      48.996   7.050  16.472  0.00  0.00    +0.000 A 
ATOM     20  C   UNL     1      48.715   6.039  15.564  0.00  0.00    +0.000 A 
ATOM     21  N   UNL     1      48.230   4.831  15.922  0.00  0.00    +0.000 NA
ATOM     22  C   UNL     1      48.021   4.619  17.243  0.00  0.00    +0.000 A 
BRANCH  17  24
ATOM     23  N   UNL     1      48.435   4.006  20.072  0.00  0.00    +0.000 N 
ATOM     24  C   UNL     1      47.973   5.213  19.629  0.00  0.00    +0.000 C 
ATOM     25  O   UNL     1      47.388   5.981  20.380  0.00  0.00    +0.000 OA
ATOM     26  H   UNL     1      48.335   3.829  21.064  0.00  0.00    +0.000 HD
ATOM     27  H   UNL     1      49.131   3.470  19.572  0.00  0.00    +0.000 HD
ENDBRANCH  17  24
ENDBRANCH  16  20
ENDBRANCH  15  16
ENDBRANCH   1  15
TORSDOF 5
ENDMDL
MODEL 9
REMARK VINA RESULT:    -6.438      5.514      7.824
REMARK INTER + INTRA:          -9.152
REMARK INTER:                  -8.370
REMARK INTRA:                  -0.782
REMARK UNBOUND:                -0.833
REMARK  Name = 
REMARK  5 active torsions:
REMARK  status: ('A' for Active; 'I' for Inactive)
REMARK    1  A    between atoms: C_2  and  C_4
REMARK    2  A    between atoms: C_7  and  O_8
REMARK    3  A    between atoms: O_8  and  C_9
REMARK    4  A    between atoms: C_9  and  C_10
REMARK    5  A    between atoms: C_15  and  C_16
REMARK                            x       y       z     vdW  Elec       q    Type
REMARK                         _______ _______ _______ _____ _____    ______ ____
ROOT
ATOM      1  C   UNL     1      49.103   6.573  16.545  0.00  0.00    +0.000 A 
ATOM      2  C   UNL     1      48.341   6.892  17.676  0.00  0.00    +0.000 A 
ATOM      3  C   UNL     1      48.422   6.103  18.817  0.00  0.00    +0.000 A 
ATOM      4  C   UNL     1      49.261   4.990  18.836  0.00  0.00    +0.000 A 
ATOM      5  F   UNL     1      49.323   4.286  19.977  0.00  0.00    +0.000 F 
ATOM      6  C   UNL     1      50.027   4.610  17.720  0.00  0.00    +0.000 A 
ATOM      7  C   UNL     1      49.913   5.424  16.571  0.00  0.00    +0.000 A 
ENDROOT
BRANCH   6   8
ATOM      8  C   UNL     1      50.912   3.423  17.731  0.00  0.00    +0.000 A 
ATOM      9  C   UNL     1      50.468   2.146  17.362  0.00  0.00    +0.000 A 
ATOM     10  N   UNL     1      51.232   1.020  17.351  0.00  0.00    +0.000 NA
ATOM     11  C   UNL     1      52.520   1.164  17.725  0.00  0.00    +0.000 A 
ATOM     12  C   UNL     1      53.067   2.373  18.102  0.00  0.00    +0.000 A 
ATOM     13  F   UNL     1      54.354   2.462  18.455  0.00  0.00    +0.000 F 
ATOM     14  C   UNL     1      52.262   3.507  18.109  0.00  0.00    +0.000 A 
ENDBRANCH   6   8
BRANCH   1  15
ATOM     15  C   UNL     1      48.974   7.423  15.299  0.00  0.00    +0.000 C 
BRANCH  15  16
ATOM     16  O   UNL     1      48.968   6.608  14.120  0.00  0.00    +0.000 OA
BRANCH  16  20
ATOM     17  C   UNL     1      45.194   5.181  13.288  0.00  0.00    +0.000 A 
ATOM     18  C   UNL     1      45.522   6.498  12.959  0.00  0.00    +0.000 A 
ATOM     19  C   UNL     1      46.804   6.972  13.248  0.00  0.00    +0.000 A 
ATOM     20  C   UNL     1      47.709   6.110  13.850  0.00  0.00    +0.000 A 
ATOM     21  N   UNL     1      47.416   4.835  14.182  0.00  0.00    +0.000 NA
ATOM     22  C   UNL     1      46.162   4.401  13.906  0.00  0.00    +0.000 A 
BRANCH  17  24
ATOM     23  N   UNL     1      42.794   5.421  12.991  0.00  0.00    +0.000 N 
ATOM     24  C   UNL     1      43.869   4.579  13.037  0.00  0.00    +0.000 C 
ATOM     25  O   UNL     1      43.742   3.379  12.837  0.00  0.00    +0.000 OA
ATOM     26  H   UNL     1      41.916   5.006  12.704  0.00  0.00    +0.000 HD
ATOM     27  H   UNL     1      42.888   6.423  12.894  0.00  0.00    +0.000 HD
ENDBRANCH  17  24
ENDBRANCH  16  20
ENDBRANCH  15  16
ENDBRANCH   1  15
TORSDOF 5
ENDMDL
