MODEL 1
REMARK VINA RESULT:    -7.910      0.000      0.000
REMARK INTER + INTRA:         -12.209
REMARK INTER:                 -11.147
REMARK INTRA:                  -1.062
REMARK UNBOUND:                -1.062
REMARK  Name = 
REMARK  7 active torsions:
REMARK  status: ('A' for Active; 'I' for Inactive)
REMARK    1  A    between atoms: C_2  and  C_3
REMARK    2  A    between atoms: C_6  and  N_7
REMARK    3  A    between atoms: N_7  and  C_8
REMARK    4  A    between atoms: C_8  and  C_9
REMARK    5  A    between atoms: C_13  and  C_14
REMARK    6  A    between atoms: C_18  and  O_19
REMARK    7  A    between atoms: O_19  and  C_20
REMARK                            x       y       z     vdW  Elec       q    Type
REMARK                         _______ _______ _______ _____ _____    ______ ____
ROOT
ATOM      1  C   UNL     1      45.228   5.192  11.937  0.00  0.00    +0.000 A 
ATOM      2  C   UNL     1      45.690   4.326  12.938  0.00  0.00    +0.000 A 
ATOM      3  C   UNL     1      46.882   4.582  13.616  0.00  0.00    +0.000 A 
ATOM      4  C   UNL     1      47.626   5.726  13.322  0.00  0.00    +0.000 A 
ATOM      5  C   UNL     1      47.208   6.622  12.328  0.00  0.00    +0.000 A 
ATOM      6  C   UNL     1      46.035   6.302  11.624  0.00  0.00    +0.000 A 
ENDROOT
BRANCH   5   7
ATOM      7  C   UNL     1      47.893   7.904  12.079  0.00  0.00    +0.000 A 
ATOM      8  C   UNL     1      47.216   9.125  12.117  0.00  0.00    +0.000 A 
ATOM      9  N   UNL     1      47.767  10.330  11.829  0.00  0.00    +0.000 NA
ATOM     10  C   UNL     1      49.069  10.331  11.462  0.00  0.00    +0.000 A 
ATOM     11  C   UNL     1      49.837   9.182  11.352  0.00  0.00    +0.000 A 
ATOM     12  C   UNL     1      49.241   7.969  11.698  0.00  0.00    +0.000 A 
BRANCH  11  13
ATOM     13  O   UNL     1      51.135   9.100  10.945  0.00  0.00    +0.000 OA
BRANCH  13  14
ATOM     14  C   UNL     1      51.651   7.785  10.814  0.00  0.00    +0.000 C 
ATOM     15  F   UNL     1      52.000   7.585   9.521  0.00  0.00    +0.000 F 
ATOM     16  F   UNL     1      52.792   7.727  11.545  0.00  0.00    +0.000 F 
ENDBRANCH  13  14
ENDBRANCH  11  13
ENDBRANCH   5   7
BRANCH   1  17
ATOM     17  C   UNL     1      43.864   5.028  11.280  0.00  0.00    +0.000 C 
ATOM     18  C   UNL     1      42.631   5.090  12.179  0.00  0.00    +0.000 C 
ATOM     19  C   UNL     1      42.961   6.250  11.304  0.00  0.00    +0.000 C 
BRANCH  17  20
ATOM     20  N   UNL     1      43.788   3.961  10.271  0.00  0.00    +0.000 N 
ATOM     21  H   UNL     1      43.134   3.213  10.488  0.00  0.00    +0.000 HD
BRANCH  20  25
ATOM     22  C   UNL     1      46.588   2.588   7.564  0.00  0.00    +0.000 A 
ATOM     23  N   UNL     1      46.333   3.912   7.535  0.00  0.00    +0.000 NA
ATOM     24  C   UNL     1      45.425   4.356   8.438  0.00  0.00    +0.000 A 
ATOM     25  C   UNL     1      44.790   3.568   9.378  0.00  0.00    +0.000 A 
ATOM     26  C   UNL     1      45.136   2.224   9.277  0.00  0.00    +0.000 A 
ATOM     27  N   UNL     1      46.024   1.705   8.404  0.00  0.00    +0.000 NA
BRANCH  22  29
ATOM     28  N   UNL     1      48.292   1.658   5.830  0.00  0.00    +0.000 NA
ATOM     29  C   UNL     1      47.533   2.068   6.606  0.00  0.00    +0.000 C 
ENDBRANCH  22  29
ENDBRANCH  20  25
ENDBRANCH  17  20
ENDBRANCH   1  17
TORSDOF 7
ENDMDL
MODEL 2
REMARK VINA RESULT:    -7.786      3.582      4.923
REMARK INTER + INTRA:         -12.034
REMARK INTER:                 -11.245
REMARK INTRA:                  -0.789
REMARK UNBOUND:                -1.062
REMARK  Name = 
REMARK  7 active torsions:
REMARK  status: ('A' for Active; 'I' for Inactive)
REMARK    1  A    between atoms: C_2  and  C_3
REMARK    2  A    between atoms: C_6  and  N_7
REMARK    3  A    between atoms: N_7  and  C_8
REMARK    4  A    between atoms: C_8  and  C_9
REMARK    5  A    between atoms: C_13  and  C_14
REMARK    6  A    between atoms: C_18  and  O_19
REMARK    7  A    between atoms: O_19  and  C_20
REMARK                            x       y       z     vdW  Elec       q    Type
REMARK                         _______ _______ _______ _____ _____    ______ ____
ROOT
ATOM      1  C   UNL     1      45.219   5.478  12.086  0.00  0.00    +0.000 A 
ATOM      2  C   UNL     1      46.176   6.342  11.536  0.00  0.00    +0.000 A 
ATOM      3  C   UNL     1      47.400   6.557  12.171  0.00  0.00    +0.000 A 
ATOM      4  C   UNL     1      47.700   5.891  13.361  0.00  0.00    +0.000 A 
ATOM      5  C   UNL     1      46.775   5.019  13.953  0.00  0.00    +0.000 A 
ATOM      6  C   UNL     1      45.529   4.872  13.317  0.00  0.00    +0.000 A 
ENDROOT
BRANCH   5   7
ATOM      7  C   UNL     1      47.103   4.199  15.134  0.00  0.00    +0.000 A 
ATOM      8  C   UNL     1      46.447   4.367  16.356  0.00  0.00    +0.000 A 
ATOM      9  N   UNL     1      46.747   3.699  17.497  0.00  0.00    +0.000 NA
ATOM     10  C   UNL     1      47.772   2.819  17.436  0.00  0.00    +0.000 A 
ATOM     11  C   UNL     1      48.523   2.592  16.292  0.00  0.00    +0.000 A 
ATOM     12  C   UNL     1      48.153   3.271  15.131  0.00  0.00    +0.000 A 
BRANCH  11  13
ATOM     13  O   UNL     1      49.596   1.761  16.167  0.00  0.00    +0.000 OA
BRANCH  13  14
ATOM     14  C   UNL     1      50.572   1.867  17.189  0.00  0.00    +0.000 C 
ATOM     15  F   UNL     1      51.560   0.976  16.938  0.00  0.00    +0.000 F 
ATOM     16  F   UNL     1      51.120   3.103  17.094  0.00  0.00    +0.000 F 
ENDBRANCH  13  14
ENDBRANCH  11  13
ENDBRANCH   5   7
BRANCH   1  17
ATOM     17  C   UNL     1      43.938   5.104  11.351  0.00  0.00    +0.000 C 
ATOM     18  C   UNL     1      42.617   5.268  12.100  0.00  0.00    +0.000 C 
ATOM     19  C   UNL     1      42.988   6.250  11.043  0.00  0.00    +0.000 C 
BRANCH  17  20
ATOM     20  N   UNL     1      44.010   3.857  10.577  0.00  0.00    +0.000 N 
ATOM     21  H   UNL     1      43.638   3.037  11.051  0.00  0.00    +0.000 HD
BRANCH  20  25
ATOM     22  C   UNL     1      46.559   2.701   7.541  0.00  0.00    +0.000 A 
ATOM     23  N   UNL     1      46.297   4.021   7.626  0.00  0.00    +0.000 NA
ATOM     24  C   UNL     1      45.472   4.393   8.635  0.00  0.00    +0.000 A 
ATOM     25  C   UNL     1      44.929   3.537   9.573  0.00  0.00    +0.000 A 
ATOM     26  C   UNL     1      45.271   2.206   9.349  0.00  0.00    +0.000 A 
ATOM     27  N   UNL     1      46.078   1.757   8.366  0.00  0.00    +0.000 NA
BRANCH  22  29
ATOM     28  N   UNL     1      48.099   1.896   5.603  0.00  0.00    +0.000 NA
ATOM     29  C   UNL     1      47.417   2.258   6.469  0.00  0.00    +0.000 C 
ENDBRANCH  22  29
ENDBRANCH  20  25
ENDBRANCH  17  20
ENDBRANCH   1  17
TORSDOF 7
ENDMDL
MODEL 3
REMARK VINA RESULT:    -7.397      3.826      5.053
REMARK INTER + INTRA:         -11.486
REMARK INTER:                 -10.835
REMARK INTRA:                  -0.651
REMARK UNBOUND:                -1.062
REMARK  Name = 
REMARK  7 active torsions:
REMARK  status: ('A' for Active; 'I' for Inactive)
REMARK    1  A    between atoms: C_2  and  C_3
REMARK    2  A    between atoms: C_6  and  N_7
REMARK    3  A    between atoms: N_7  and  C_8
REMARK    4  A    between atoms: C_8  and  C_9
REMARK    5  A    between atoms: C_13  and  C_14
REMARK    6  A    between atoms: C_18  and  O_19
REMARK    7  A    between atoms: O_19  and  C_20
REMARK                            x       y       z     vdW  Elec       q    Type
REMARK                         _______ _______ _______ _____ _____    ______ ____
ROOT
ATOM      1  C   UNL     1      45.210   5.691  11.956  0.00  0.00    +0.000 A 
ATOM      2  C   UNL     1      46.028   6.589  11.258  0.00  0.00    +0.000 A 
ATOM      3  C   UNL     1      47.283   6.951  11.750  0.00  0.00    +0.000 A 
ATOM      4  C   UNL     1      47.755   6.401  12.944  0.00  0.00    +0.000 A 
ATOM      5  C   UNL     1      46.973   5.500  13.681  0.00  0.00    +0.000 A 
ATOM      6  C   UNL     1      45.691   5.204  13.186  0.00  0.00    +0.000 A 
ENDROOT
BRANCH   5   7
ATOM      7  C   UNL     1      47.486   4.798  14.872  0.00  0.00    +0.000 A 
ATOM      8  C   UNL     1      47.481   3.405  14.970  0.00  0.00    +0.000 A 
ATOM      9  N   UNL     1      47.870   2.700  16.062  0.00  0.00    +0.000 NA
ATOM     10  C   UNL     1      48.275   3.416  17.136  0.00  0.00    +0.000 A 
ATOM     11  C   UNL     1      48.289   4.802  17.173  0.00  0.00    +0.000 A 
ATOM     12  C   UNL     1      47.920   5.485  16.015  0.00  0.00    +0.000 A 
BRANCH  11  13
ATOM     13  O   UNL     1      48.637   5.590  18.230  0.00  0.00    +0.000 OA
BRANCH  13  14
ATOM     14  C   UNL     1      47.762   5.537  19.344  0.00  0.00    +0.000 C 
ATOM     15  F   UNL     1      47.981   6.625  20.119  0.00  0.00    +0.000 F 
ATOM     16  F   UNL     1      46.497   5.640  18.866  0.00  0.00    +0.000 F 
ENDBRANCH  13  14
ENDBRANCH  11  13
ENDBRANCH   5   7
BRANCH   1  17
ATOM     17  C   UNL     1      43.904   5.159  11.381  0.00  0.00    +0.000 C 
ATOM     18  C   UNL     1      42.654   5.250  12.255  0.00  0.00    +0.000 C 
ATOM     19  C   UNL     1      42.824   6.194  11.114  0.00  0.00    +0.000 C 
BRANCH  17  20
ATOM     20  N   UNL     1      44.017   3.876  10.672  0.00  0.00    +0.000 N 
ATOM     21  H   UNL     1      43.696   3.067  11.198  0.00  0.00    +0.000 HD
BRANCH  20  25
ATOM     22  C   UNL     1      46.536   2.689   7.623  0.00  0.00    +0.000 A 
ATOM     23  N   UNL     1      46.264   4.008   7.689  0.00  0.00    +0.000 NA
ATOM     24  C   UNL     1      45.449   4.391   8.702  0.00  0.00    +0.000 A 
ATOM     25  C   UNL     1      44.925   3.546   9.661  0.00  0.00    +0.000 A 
ATOM     26  C   UNL     1      45.275   2.214   9.456  0.00  0.00    +0.000 A 
ATOM     27  N   UNL     1      46.073   1.755   8.470  0.00  0.00    +0.000 NA
BRANCH  22  29
ATOM     28  N   UNL     1      48.071   1.876   5.684  0.00  0.00    +0.000 NA
ATOM     29  C   UNL     1      47.383   2.234   6.547  0.00  0.00    +0.000 C 
ENDBRANCH  22  29
ENDBRANCH  20  25
ENDBRANCH  17  20
ENDBRANCH   1  17
TORSDOF 7
ENDMDL
MODEL 4
REMARK VINA RESULT:    -7.338      3.946      7.295
REMARK INTER + INTRA:         -11.403
REMARK INTER:                 -10.659
REMARK INTRA:                  -0.743
REMARK UNBOUND:                -1.062
REMARK  Name = 
REMARK  7 active torsions:
REMARK  status: ('A' for Active; 'I' for Inactive)
REMARK    1  A    between atoms: C_2  and  C_3
REMARK    2  A    between atoms: C_6  and  N_7
REMARK    3  A    between atoms: N_7  and  C_8
REMARK    4  A    between atoms: C_8  and  C_9
REMARK    5  A    between atoms: C_13  and  C_14
REMARK    6  A    between atoms: C_18  and  O_19
REMARK    7  A    between atoms: O_19  and  C_20
REMARK                            x       y       z     vdW  Elec       q    Type
REMARK                         _______ _______ _______ _____ _____    ______ ____
ROOT
ATOM      1  C   UNL     1      45.118   6.502  11.606  0.00  0.00    +0.000 A 
ATOM      2  C   UNL     1      43.755   6.530  11.932  0.00  0.00    +0.000 A 
ATOM      3  C   UNL     1      42.861   5.625  11.359  0.00  0.00    +0.000 A 
ATOM      4  C   UNL     1      43.317   4.657  10.463  0.00  0.00    +0.000 A 
ATOM      5  C   UNL     1      44.671   4.589  10.103  0.00  0.00    +0.000 A 
ATOM      6  C   UNL     1      45.533   5.553  10.653  0.00  0.00    +0.000 A 
ENDROOT
BRANCH   5   7
ATOM      7  C   UNL     1      45.214   3.503   9.265  0.00  0.00    +0.000 A 
ATOM      8  C   UNL     1      44.861   2.167   9.466  0.00  0.00    +0.000 A 
ATOM      9  N   UNL     1      45.376   1.116   8.781  0.00  0.00    +0.000 NA
ATOM     10  C   UNL     1      46.313   1.397   7.848  0.00  0.00    +0.000 A 
ATOM     11  C   UNL     1      46.773   2.678   7.584  0.00  0.00    +0.000 A 
ATOM     12  C   UNL     1      46.187   3.734   8.282  0.00  0.00    +0.000 A 
BRANCH  11  13
ATOM     13  O   UNL     1      47.745   3.033   6.697  0.00  0.00    +0.000 OA
BRANCH  13  14
ATOM     14  C   UNL     1      47.347   3.066   5.336  0.00  0.00    +0.000 C 
ATOM     15  F   UNL     1      48.160   2.247   4.628  0.00  0.00    +0.000 F 
ATOM     16  F   UNL     1      46.099   2.537   5.271  0.00  0.00    +0.000 F 
ENDBRANCH  13  14
ENDBRANCH  11  13
ENDBRANCH   5   7
BRANCH   1  17
ATOM     17  C   UNL     1      46.146   7.371  12.318  0.00  0.00    +0.000 C 
ATOM     18  C   UNL     1      46.467   8.735  11.709  0.00  0.00    +0.000 C 
ATOM     19  C   UNL     1      45.620   8.658  12.932  0.00  0.00    +0.000 C 
BRANCH  17  20
ATOM     20  N   UNL     1      47.341   6.656  12.789  0.00  0.00    +0.000 N 
ATOM     21  H   UNL     1      47.947   6.304  12.052  0.00  0.00    +0.000 HD
BRANCH  20  25
ATOM     22  C   UNL     1      47.804   4.392  16.211  0.00  0.00    +0.000 A 
ATOM     23  N   UNL     1      48.557   5.507  16.130  0.00  0.00    +0.000 NA
ATOM     24  C   UNL     1      48.387   6.253  15.011  0.00  0.00    +0.000 A 
ATOM     25  C   UNL     1      47.494   5.968  13.997  0.00  0.00    +0.000 A 
ATOM     26  C   UNL     1      46.800   4.780  14.207  0.00  0.00    +0.000 A 
ATOM     27  N   UNL     1      46.919   3.982  15.288  0.00  0.00    +0.000 NA
BRANCH  22  29
ATOM     28  N   UNL     1      48.099   2.878  18.308  0.00  0.00    +0.000 NA
ATOM     29  C   UNL     1      47.968   3.558  17.376  0.00  0.00    +0.000 C 
ENDBRANCH  22  29
ENDBRANCH  20  25
ENDBRANCH  17  20
ENDBRANCH   1  17
TORSDOF 7
ENDMDL
MODEL 5
REMARK VINA RESULT:    -7.241      3.596      4.637
REMARK INTER + INTRA:         -11.265
REMARK INTER:                 -11.168
REMARK INTRA:                  -0.098
REMARK UNBOUND:                -1.062
REMARK  Name = 
REMARK  7 active torsions:
REMARK  status: ('A' for Active; 'I' for Inactive)
REMARK    1  A    between atoms: C_2  and  C_3
REMARK    2  A    between atoms: C_6  and  N_7
REMARK    3  A    between atoms: N_7  and  C_8
REMARK    4  A    between atoms: C_8  and  C_9
REMARK    5  A    between atoms: C_13  and  C_14
REMARK    6  A    between atoms: C_18  and  O_19
REMARK    7  A    between atoms: O_19  and  C_20
REMARK                            x       y       z     vdW  Elec       q    Type
REMARK                         _______ _______ _______ _____ _____    ______ ____
ROOT
ATOM      1  C   UNL     1      45.367   5.603  12.035  0.00  0.00    +0.000 A 
ATOM      2  C   UNL     1      45.691   6.586  11.090  0.00  0.00    +0.000 A 
ATOM      3  C   UNL     1      46.732   7.486  11.319  0.00  0.00    +0.000 A 
ATOM      4  C   UNL     1      47.487   7.406  12.492  0.00  0.00    +0.000 A 
ATOM      5  C   UNL     1      47.200   6.441  13.468  0.00  0.00    +0.000 A 
ATOM      6  C   UNL     1      46.107   5.589  13.232  0.00  0.00    +0.000 A 
ENDROOT
BRANCH   5   7
ATOM      7  C   UNL     1      48.052   6.238  14.655  0.00  0.00    +0.000 A 
ATOM      8  C   UNL     1      49.260   6.918  14.823  0.00  0.00    +0.000 A 
ATOM      9  N   UNL     1      50.123   6.726  15.851  0.00  0.00    +0.000 NA
ATOM     10  C   UNL     1      49.782   5.791  16.767  0.00  0.00    +0.000 A 
ATOM     11  C   UNL     1      48.628   5.027  16.689  0.00  0.00    +0.000 A 
ATOM     12  C   UNL     1      47.749   5.285  15.638  0.00  0.00    +0.000 A 
BRANCH  11  13
ATOM     13  O   UNL     1      48.241   4.037  17.544  0.00  0.00    +0.000 OA
BRANCH  13  14
ATOM     14  C   UNL     1      47.644   2.904  16.935  0.00  0.00    +0.000 C 
ATOM     15  F   UNL     1      48.615   2.006  16.646  0.00  0.00    +0.000 F 
ATOM     16  F   UNL     1      46.836   2.330  17.861  0.00  0.00    +0.000 F 
ENDBRANCH  13  14
ENDBRANCH  11  13
ENDBRANCH   5   7
BRANCH   1  17
ATOM     17  C   UNL     1      44.340   4.512  11.758  0.00  0.00    +0.000 C 
ATOM     18  C   UNL     1      44.460   3.208  12.544  0.00  0.00    +0.000 C 
ATOM     19  C   UNL     1      43.393   4.184  12.901  0.00  0.00    +0.000 C 
BRANCH  17  20
ATOM     20  N   UNL     1      44.029   4.301  10.338  0.00  0.00    +0.000 N 
ATOM     21  H   UNL     1      43.036   4.256  10.119  0.00  0.00    +0.000 HD
BRANCH  20  25
ATOM     22  C   UNL     1      46.581   2.615   7.564  0.00  0.00    +0.000 A 
ATOM     23  N   UNL     1      45.972   1.758   8.409  0.00  0.00    +0.000 NA
ATOM     24  C   UNL     1      45.124   2.319   9.305  0.00  0.00    +0.000 A 
ATOM     25  C   UNL     1      44.828   3.666   9.382  0.00  0.00    +0.000 A 
ATOM     26  C   UNL     1      45.543   4.428   8.463  0.00  0.00    +0.000 A 
ATOM     27  N   UNL     1      46.407   3.946   7.546  0.00  0.00    +0.000 NA
BRANCH  22  29
ATOM     28  N   UNL     1      48.248   1.623   5.828  0.00  0.00    +0.000 NA
ATOM     29  C   UNL     1      47.508   2.063   6.606  0.00  0.00    +0.000 C 
ENDBRANCH  22  29
ENDBRANCH  20  25
ENDBRANCH  17  20
ENDBRANCH   1  17
TORSDOF 7
ENDMDL
MODEL 6
REMARK VINA RESULT:    -7.028      6.006      8.427
REMARK INTER + INTRA:         -10.966
REMARK INTER:                 -10.265
REMARK INTRA:                  -0.700
REMARK UNBOUND:                -1.062
REMARK  Name = 
REMARK  7 active torsions:
REMARK  status: ('A' for Active; 'I' for Inactive)
REMARK    1  A    between atoms: C_2  and  C_3
REMARK    2  A    between atoms: C_6  and  N_7
REMARK    3  A    between atoms: N_7  and  C_8
REMARK    4  A    between atoms: C_8  and  C_9
REMARK    5  A    between atoms: C_13  and  C_14
REMARK    6  A    between atoms: C_18  and  O_19
REMARK    7  A    between atoms: O_19  and  C_20
REMARK                            x       y       z     vdW  Elec       q    Type
REMARK                         _______ _______ _______ _____ _____    ______ ____
ROOT
ATOM      1  C   UNL     1      47.941   5.140  15.562  0.00  0.00    +0.000 A 
ATOM      2  C   UNL     1      48.645   6.278  15.145  0.00  0.00    +0.000 A 
ATOM      3  C   UNL     1      48.321   6.928  13.955  0.00  0.00    +0.000 A 
ATOM      4  C   UNL     1      47.266   6.465  13.165  0.00  0.00    +0.000 A 
ATOM      5  C   UNL     1      46.533   5.329  13.537  0.00  0.00    +0.000 A 
ATOM      6  C   UNL     1      46.926   4.664  14.712  0.00  0.00    +0.000 A 
ENDROOT
BRANCH   5   7
ATOM      7  C   UNL     1      45.333   4.886  12.803  0.00  0.00    +0.000 A 
ATOM      8  C   UNL     1      44.058   5.368  13.110  0.00  0.00    +0.000 A 
ATOM      9  N   UNL     1      42.908   4.951  12.524  0.00  0.00    +0.000 NA
ATOM     10  C   UNL     1      43.018   3.983  11.586  0.00  0.00    +0.000 A 
ATOM     11  C   UNL     1      44.223   3.401  11.221  0.00  0.00    +0.000 A 
ATOM     12  C   UNL     1      45.385   3.889  11.819  0.00  0.00    +0.000 A 
BRANCH  11  13
ATOM     13  O   UNL     1      44.407   2.393  10.323  0.00  0.00    +0.000 OA
BRANCH  13  14
ATOM     14  C   UNL     1      45.263   2.695   9.234  0.00  0.00    +0.000 C 
ATOM     15  F   UNL     1      45.824   1.545   8.792  0.00  0.00    +0.000 F 
ATOM     16  F   UNL     1      44.483   3.166   8.229  0.00  0.00    +0.000 F 
ENDBRANCH  13  14
ENDBRANCH  11  13
ENDBRANCH   5   7
BRANCH   1  17
ATOM     17  C   UNL     1      48.166   4.492  16.921  0.00  0.00    +0.000 C 
ATOM     18  C   UNL     1      47.145   4.777  18.021  0.00  0.00    +0.000 C 
ATOM     19  C   UNL     1      47.140   3.451  17.341  0.00  0.00    +0.000 C 
BRANCH  17  20
ATOM     20  N   UNL     1      49.555   4.528  17.402  0.00  0.00    +0.000 N 
ATOM     21  H   UNL     1      50.002   5.440  17.350  0.00  0.00    +0.000 HD
BRANCH  20  25
ATOM     22  C   UNL     1      52.318   1.476  17.722  0.00  0.00    +0.000 A 
ATOM     23  N   UNL     1      51.140   1.153  17.151  0.00  0.00    +0.000 NA
ATOM     24  C   UNL     1      50.245   2.165  17.035  0.00  0.00    +0.000 A 
ATOM     25  C   UNL     1      50.470   3.471  17.422  0.00  0.00    +0.000 A 
ATOM     26  C   UNL     1      51.719   3.651  18.011  0.00  0.00    +0.000 A 
ATOM     27  N   UNL     1      52.659   2.696  18.167  0.00  0.00    +0.000 NA
BRANCH  22  29
ATOM     28  N   UNL     1      54.084  -0.414  18.013  0.00  0.00    +0.000 NA
ATOM     29  C   UNL     1      53.292   0.425  17.883  0.00  0.00    +0.000 C 
ENDBRANCH  22  29
ENDBRANCH  20  25
ENDBRANCH  17  20
ENDBRANCH   1  17
TORSDOF 7
ENDMDL
MODEL 7
REMARK VINA RESULT:    -6.887      4.392      8.331
REMARK INTER + INTRA:         -10.767
REMARK INTER:                  -9.677
REMARK INTRA:                  -1.090
REMARK UNBOUND:                -1.062
REMARK  Name = 
REMARK  7 active torsions:
REMARK  status: ('A' for Active; 'I' for Inactive)
REMARK    1  A    between atoms: C_2  and  C_3
REMARK    2  A    between atoms: C_6  and  N_7
REMARK    3  A    between atoms: N_7  and  C_8
REMARK    4  A    between atoms: C_8  and  C_9
REMARK    5  A    between atoms: C_13  and  C_14
REMARK    6  A    between atoms: C_18  and  O_19
REMARK    7  A    between atoms: O_19  and  C_20
REMARK                            x       y       z     vdW  Elec       q    Type
REMARK                         _______ _______ _______ _____ _____    ______ ____
ROOT
ATOM      1  C   UNL     1      47.689   7.884  12.157  0.00  0.00    +0.000 A 
ATOM      2  C   UNL     1      46.976   9.090  12.129  0.00  0.00    +0.000 A 
ATOM      3  C   UNL     1      45.594   9.104  11.942  0.00  0.00    +0.000 A 
ATOM      4  C   UNL     1      44.891   7.906  11.801  0.00  0.00    +0.000 A 
ATOM      5  C   UNL     1      45.559   6.672  11.819  0.00  0.00    +0.000 A 
ATOM      6  C   UNL     1      46.959   6.699  11.950  0.00  0.00    +0.000 A 
ENDROOT
BRANCH   5   7
ATOM      7  C   UNL     1      44.842   5.384  11.805  0.00  0.00    +0.000 A 
ATOM      8  C   UNL     1      44.373   4.786  12.977  0.00  0.00    +0.000 A 
ATOM      9  N   UNL     1      43.772   3.572  13.044  0.00  0.00    +0.000 NA
ATOM     10  C   UNL     1      43.638   2.894  11.881  0.00  0.00    +0.000 A 
ATOM     11  C   UNL     1      44.096   3.366  10.660  0.00  0.00    +0.000 A 
ATOM     12  C   UNL     1      44.672   4.636  10.632  0.00  0.00    +0.000 A 
BRANCH  11  13
ATOM     13  O   UNL     1      44.041   2.723   9.460  0.00  0.00    +0.000 OA
BRANCH  13  14
ATOM     14  C   UNL     1      45.294   2.386   8.890  0.00  0.00    +0.000 C 
ATOM     15  F   UNL     1      45.356   1.042   8.741  0.00  0.00    +0.000 F 
ATOM     16  F   UNL     1      45.326   2.924   7.645  0.00  0.00    +0.000 F 
ENDBRANCH  13  14
ENDBRANCH  11  13
ENDBRANCH   5   7
BRANCH   1  17
ATOM     17  C   UNL     1      49.170   7.818  12.506  0.00  0.00    +0.000 C 
ATOM     18  C   UNL     1      50.161   7.625  11.360  0.00  0.00    +0.000 C 
ATOM     19  C   UNL     1      50.026   8.966  11.995  0.00  0.00    +0.000 C 
BRANCH  17  20
ATOM     20  N   UNL     1      49.492   7.006  13.688  0.00  0.00    +0.000 N 
ATOM     21  H   UNL     1      49.640   6.017  13.500  0.00  0.00    +0.000 HD
BRANCH  20  25
ATOM     22  C   UNL     1      48.604   7.569  17.681  0.00  0.00    +0.000 A 
ATOM     23  N   UNL     1      48.785   8.687  16.949  0.00  0.00    +0.000 NA
ATOM     24  C   UNL     1      49.060   8.493  15.636  0.00  0.00    +0.000 A 
ATOM     25  C   UNL     1      49.130   7.262  15.014  0.00  0.00    +0.000 A 
ATOM     26  C   UNL     1      48.942   6.201  15.895  0.00  0.00    +0.000 A 
ATOM     27  N   UNL     1      48.671   6.313  17.212  0.00  0.00    +0.000 NA
BRANCH  22  29
ATOM     28  N   UNL     1      48.118   7.857  20.222  0.00  0.00    +0.000 NA
ATOM     29  C   UNL     1      48.329   7.728  19.088  0.00  0.00    +0.000 C 
ENDBRANCH  22  29
ENDBRANCH  20  25
ENDBRANCH  17  20
ENDBRANCH   1  17
TORSDOF 7
ENDMDL
MODEL 8
REMARK VINA RESULT:    -6.224      6.264      8.304
REMARK INTER + INTRA:          -9.834
REMARK INTER:                  -8.878
REMARK INTRA:                  -0.956
REMARK UNBOUND:                -1.062
REMARK  Name = 
REMARK  7 active torsions:
REMARK  status: ('A' for Active; 'I' for Inactive)
REMARK    1  A    between atoms: C_2  and  C_3
REMARK    2  A    between atoms: C_6  and  N_7
REMARK    3  A    between atoms: N_7  and  C_8
REMARK    4  A    between atoms: C_8  and  C_9
REMARK    5  A    between atoms: C_13  and  C_14
REMARK    6  A    between atoms: C_18  and  O_19
REMARK    7  A    between atoms: O_19  and  C_20
REMARK                            x       y       z     vdW  Elec       q    Type
REMARK                         _______ _______ _______ _____ _____    ______ ____
ROOT
ATOM      1  C   UNL     1      48.621   5.596  16.056  0.00  0.00    +0.000 A 
ATOM      2  C   UNL     1      49.640   6.554  15.962  0.00  0.00    +0.000 A 
ATOM      3  C   UNL     1      49.738   7.392  14.851  0.00  0.00    +0.000 A 
ATOM      4  C   UNL     1      48.802   7.303  13.819  0.00  0.00    +0.000 A 
ATOM      5  C   UNL     1      47.766   6.359  13.864  0.00  0.00    +0.000 A 
ATOM      6  C   UNL     1      47.733   5.491  14.970  0.00  0.00    +0.000 A 
ENDROOT
BRANCH   5   7
ATOM      7  C   UNL     1      46.685   6.321  12.862  0.00  0.00    +0.000 A 
ATOM      8  C   UNL     1      46.106   7.486  12.353  0.00  0.00    +0.000 A 
ATOM      9  N   UNL     1      45.064   7.522  11.487  0.00  0.00    +0.000 NA
ATOM     10  C   UNL     1      44.546   6.332  11.107  0.00  0.00    +0.000 A 
ATOM     11  C   UNL     1      45.010   5.110  11.571  0.00  0.00    +0.000 A 
ATOM     12  C   UNL     1      46.109   5.119  12.429  0.00  0.00    +0.000 A 
BRANCH  11  13
ATOM     13  O   UNL     1      44.510   3.877  11.273  0.00  0.00    +0.000 OA
BRANCH  13  14
ATOM     14  C   UNL     1      43.936   3.173  12.361  0.00  0.00    +0.000 C 
ATOM     15  F   UNL     1      43.105   4.008  13.028  0.00  0.00    +0.000 F 
ATOM     16  F   UNL     1      43.168   2.185  11.839  0.00  0.00    +0.000 F 
ENDBRANCH  13  14
ENDBRANCH  11  13
ENDBRANCH   5   7
BRANCH   1  17
ATOM     17  C   UNL     1      48.392   4.767  17.313  0.00  0.00    +0.000 C 
ATOM     18  C   UNL     1      47.205   5.136  18.201  0.00  0.00    +0.000 C 
ATOM     19  C   UNL     1      47.126   3.926  17.335  0.00  0.00    +0.000 C 
BRANCH  17  20
ATOM     20  N   UNL     1      49.608   4.455  18.078  0.00  0.00    +0.000 N 
ATOM     21  H   UNL     1      50.008   5.242  18.585  0.00  0.00    +0.000 HD
BRANCH  20  25
ATOM     22  C   UNL     1      52.453   1.509  17.552  0.00  0.00    +0.000 A 
ATOM     23  N   UNL     1      51.209   1.218  17.119  0.00  0.00    +0.000 NA
ATOM     24  C   UNL     1      50.286   2.197  17.282  0.00  0.00    +0.000 A 
ATOM     25  C   UNL     1      50.539   3.446  17.813  0.00  0.00    +0.000 A 
ATOM     26  C   UNL     1      51.858   3.596  18.233  0.00  0.00    +0.000 A 
ATOM     27  N   UNL     1      52.830   2.669  18.112  0.00  0.00    +0.000 NA
BRANCH  22  29
ATOM     28  N   UNL     1      54.273  -0.338  17.318  0.00  0.00    +0.000 NA
ATOM     29  C   UNL     1      53.463   0.488  17.417  0.00  0.00    +0.000 C 
ENDBRANCH  22  29
ENDBRANCH  20  25
ENDBRANCH  17  20
ENDBRANCH   1  17
TORSDOF 7
ENDMDL
MODEL 9
REMARK VINA RESULT:    -5.326      4.519      8.697
REMARK INTER + INTRA:          -8.567
REMARK INTER:                  -7.183
REMARK INTRA:                  -1.384
REMARK UNBOUND:                -1.062
REMARK  Name = 
REMARK  7 active torsions:
REMARK  status: ('A' for Active; 'I' for Inactive)
REMARK    1  A    between atoms: C_2  and  C_3
REMARK    2  A    between atoms: C_6  and  N_7
REMARK    3  A    between atoms: N_7  and  C_8
REMARK    4  A    between atoms: C_8  and  C_9
REMARK    5  A    between atoms: C_13  and  C_14
REMARK    6  A    between atoms: C_18  and  O_19
REMARK    7  A    between atoms: O_19  and  C_20
REMARK                            x       y       z     vdW  Elec       q    Type
REMARK                         _______ _______ _______ _____ _____    ______ ____
ROOT
ATOM      1  C   UNL     1      50.254   8.732  12.949  0.00  0.00    +0.000 A 
ATOM      2  C   UNL     1      49.813   9.988  12.513  0.00  0.00    +0.000 A 
ATOM      3  C   UNL     1      48.555  10.145  11.929  0.00  0.00    +0.000 A 
ATOM      4  C   UNL     1      47.703   9.048  11.791  0.00  0.00    +0.000 A 
ATOM      5  C   UNL     1      48.099   7.770  12.209  0.00  0.00    +0.000 A 
ATOM      6  C   UNL     1      49.395   7.638  12.738  0.00  0.00    +0.000 A 
ENDROOT
BRANCH   5   7
ATOM      7  C   UNL     1      47.182   6.615  12.202  0.00  0.00    +0.000 A 
ATOM      8  C   UNL     1      46.300   6.377  11.146  0.00  0.00    +0.000 A 
ATOM      9  N   UNL     1      45.383   5.378  11.108  0.00  0.00    +0.000 NA
ATOM     10  C   UNL     1      45.320   4.568  12.189  0.00  0.00    +0.000 A 
ATOM     11  C   UNL     1      46.117   4.725  13.313  0.00  0.00    +0.000 A 
ATOM     12  C   UNL     1      47.073   5.740  13.292  0.00  0.00    +0.000 A 
BRANCH  11  13
ATOM     13  O   UNL     1      46.078   3.982  14.455  0.00  0.00    +0.000 OA
BRANCH  13  14
ATOM     14  C   UNL     1      47.220   4.086  15.289  0.00  0.00    +0.000 C 
ATOM     15  F   UNL     1      46.813   4.385  16.545  0.00  0.00    +0.000 F 
ATOM     16  F   UNL     1      47.792   2.857  15.341  0.00  0.00    +0.000 F 
ENDBRANCH  13  14
ENDBRANCH  11  13
ENDBRANCH   5   7
BRANCH   1  17
ATOM     17  C   UNL     1      51.553   8.545  13.723  0.00  0.00    +0.000 C 
ATOM     18  C   UNL     1      52.857   8.535  12.928  0.00  0.00    +0.000 C 
ATOM     19  C   UNL     1      52.499   9.736  13.733  0.00  0.00    +0.000 C 
BRANCH  17  20
ATOM     20  N   UNL     1      51.508   7.513  14.768  0.00  0.00    +0.000 N 
ATOM     21  H   UNL     1      51.757   6.578  14.457  0.00  0.00    +0.000 HD
BRANCH  20  25
ATOM     22  C   UNL     1      49.105   7.771  18.117  0.00  0.00    +0.000 A 
ATOM     23  N   UNL     1      48.993   6.640  17.391  0.00  0.00    +0.000 NA
ATOM     24  C   UNL     1      49.797   6.557  16.302  0.00  0.00    +0.000 A 
ATOM     25  C   UNL     1      50.719   7.513  15.923  0.00  0.00    +0.000 A 
ATOM     26  C   UNL     1      50.709   8.631  16.753  0.00  0.00    +0.000 A 
ATOM     27  N   UNL     1      49.936   8.790  17.847  0.00  0.00    +0.000 NA
BRANCH  22  29
ATOM     28  N   UNL     1      47.570   8.012  20.205  0.00  0.00    +0.000 NA
ATOM     29  C   UNL     1      48.253   7.910  19.272  0.00  0.00    +0.000 C 
ENDBRANCH  22  29
ENDBRANCH  20  25
ENDBRANCH  17  20
ENDBRANCH   1  17
TORSDOF 7
ENDMDL
