MODEL 1
REMARK VINA RESULT:    -7.566      0.000      0.000
REMARK INTER + INTRA:         -11.337
REMARK INTER:                 -10.219
REMARK INTRA:                  -1.118
REMARK UNBOUND:                -1.118
REMARK  Name = 
REMARK  7 active torsions:
REMARK  status: ('A' for Active; 'I' for Inactive)
REMARK    1  A    between atoms: C_1  and  N_2
REMARK    2  A    between atoms: N_2  and  C_3
REMARK    3  A    between atoms: C_3  and  C_4
REMARK    4  A    between atoms: C_7  and  C_8
REMARK    5  A    between atoms: C_8  and  O_9
REMARK    6  A    between atoms: O_9  and  C_10
REMARK    7  A    between atoms: C_18  and  C_20
REMARK                            x       y       z     vdW  Elec       q    Type
REMARK                         _______ _______ _______ _____ _____    ______ ____
ROOT
ATOM      1  C   UNL     1      46.092   8.588  12.103  0.00  0.00    +0.000 C 
ATOM      2  N   UNL     1      45.906   7.141  12.037  0.00  0.00    +0.000 N 
ATOM      3  C   UNL     1      44.662   6.704  11.552  0.00  0.00    +0.000 C 
ATOM      4  O   UNL     1      43.789   7.502  11.222  0.00  0.00    +0.000 OA
ENDROOT
BRANCH   3   5
ATOM      5  C   UNL     1      44.386   5.263  11.478  0.00  0.00    +0.000 A 
ATOM      6  C   UNL     1      43.650   4.556  12.416  0.00  0.00    +0.000 A 
ATOM      7  S   UNL     1      43.430   2.912  12.011  0.00  0.00    +0.000 S 
ATOM      8  C   UNL     1      44.189   3.129  10.504  0.00  0.00    +0.000 A 
ATOM      9  N   UNL     1      44.244   2.118   9.599  0.00  0.00    +0.000 NA
ATOM     10  C   UNL     1      44.790   2.448   8.475  0.00  0.00    +0.000 A 
ATOM     11  N   UNL     1      45.319   3.682   8.192  0.00  0.00    +0.000 N 
ATOM     12  C   UNL     1      45.408   4.690   9.127  0.00  0.00    +0.000 A 
ATOM     13  O   UNL     1      46.100   5.682   8.922  0.00  0.00    +0.000 OA
ATOM     14  C   UNL     1      44.695   4.406  10.360  0.00  0.00    +0.000 A 
ATOM     15  H   UNL     1      45.792   3.850   7.317  0.00  0.00    +0.000 HD
ENDBRANCH   3   5
BRANCH   2  16
ATOM     16  C   UNL     1      47.053   6.247  12.233  0.00  0.00    +0.000 C 
BRANCH  16  17
ATOM     17  C   UNL     1      47.401   5.881  13.652  0.00  0.00    +0.000 A 
ATOM     18  C   UNL     1      48.299   6.669  14.391  0.00  0.00    +0.000 A 
ATOM     19  C   UNL     1      48.660   6.300  15.686  0.00  0.00    +0.000 A 
ATOM     20  C   UNL     1      48.134   5.136  16.256  0.00  0.00    +0.000 A 
ATOM     21  C   UNL     1      47.206   4.375  15.535  0.00  0.00    +0.000 A 
ATOM     22  C   UNL     1      46.849   4.739  14.238  0.00  0.00    +0.000 A 
BRANCH  20  23
ATOM     23  C   UNL     1      48.583   4.681  17.619  0.00  0.00    +0.000 C 
BRANCH  23  24
ATOM     24  O   UNL     1      49.963   4.986  17.799  0.00  0.00    +0.000 OA
BRANCH  24  25
ATOM     25  C   UNL     1      50.737   3.846  17.752  0.00  0.00    +0.000 A 
ATOM     26  C   UNL     1      51.998   3.882  18.326  0.00  0.00    +0.000 A 
ATOM     27  N   UNL     1      52.824   2.806  18.342  0.00  0.00    +0.000 NA
ATOM     28  C   UNL     1      52.326   1.692  17.757  0.00  0.00    +0.000 A 
ATOM     29  C   UNL     1      51.065   1.654  17.183  0.00  0.00    +0.000 A 
ATOM     30  N   UNL     1      50.250   2.728  17.164  0.00  0.00    +0.000 NA
ENDBRANCH  24  25
ENDBRANCH  23  24
ENDBRANCH  20  23
ENDBRANCH  16  17
ENDBRANCH   2  16
TORSDOF 6
ENDMDL
MODEL 2
REMARK VINA RESULT:    -7.315      3.269      8.404
REMARK INTER + INTRA:         -10.999
REMARK INTER:                  -9.835
REMARK INTRA:                  -1.164
REMARK UNBOUND:                -1.118
REMARK  Name = 
REMARK  7 active torsions:
REMARK  status: ('A' for Active; 'I' for Inactive)
REMARK    1  A    between atoms: C_1  and  N_2
REMARK    2  A    between atoms: N_2  and  C_3
REMARK    3  A    between atoms: C_3  and  C_4
REMARK    4  A    between atoms: C_7  and  C_8
REMARK    5  A    between atoms: C_8  and  O_9
REMARK    6  A    between atoms: O_9  and  C_10
REMARK    7  A    between atoms: C_18  and  C_20
REMARK                            x       y       z     vdW  Elec       q    Type
REMARK                         _______ _______ _______ _____ _____    ______ ____
ROOT
ATOM      1  C   UNL     1      49.556   7.253  12.298  0.00  0.00    +0.000 C 
ATOM      2  N   UNL     1      48.938   7.657  13.557  0.00  0.00    +0.000 N 
ATOM      3  C   UNL     1      49.822   8.031  14.583  0.00  0.00    +0.000 C 
ATOM      4  O   UNL     1      51.040   7.999  14.420  0.00  0.00    +0.000 OA
ENDROOT
BRANCH   3   5
ATOM      5  C   UNL     1      49.281   8.427  15.890  0.00  0.00    +0.000 A 
ATOM      6  C   UNL     1      49.095   9.738  16.298  0.00  0.00    +0.000 A 
ATOM      7  S   UNL     1      48.371   9.877  17.837  0.00  0.00    +0.000 S 
ATOM      8  C   UNL     1      48.154   8.193  17.944  0.00  0.00    +0.000 A 
ATOM      9  N   UNL     1      47.485   7.640  18.988  0.00  0.00    +0.000 NA
ATOM     10  C   UNL     1      47.341   6.358  18.901  0.00  0.00    +0.000 A 
ATOM     11  N   UNL     1      47.838   5.580  17.887  0.00  0.00    +0.000 N 
ATOM     12  C   UNL     1      48.640   6.081  16.883  0.00  0.00    +0.000 A 
ATOM     13  O   UNL     1      49.266   5.331  16.142  0.00  0.00    +0.000 OA
ATOM     14  C   UNL     1      48.722   7.530  16.872  0.00  0.00    +0.000 A 
ATOM     15  H   UNL     1      47.748   4.576  17.917  0.00  0.00    +0.000 HD
ENDBRANCH   3   5
BRANCH   2  16
ATOM     16  C   UNL     1      47.490   7.886  13.621  0.00  0.00    +0.000 C 
BRANCH  16  17
ATOM     17  C   UNL     1      46.605   6.853  12.973  0.00  0.00    +0.000 A 
ATOM     18  C   UNL     1      46.614   5.523  13.425  0.00  0.00    +0.000 A 
ATOM     19  C   UNL     1      45.833   4.558  12.791  0.00  0.00    +0.000 A 
ATOM     20  C   UNL     1      45.040   4.908  11.693  0.00  0.00    +0.000 A 
ATOM     21  C   UNL     1      44.999   6.243  11.271  0.00  0.00    +0.000 A 
ATOM     22  C   UNL     1      45.783   7.207  11.900  0.00  0.00    +0.000 A 
BRANCH  20  23
ATOM     23  C   UNL     1      44.260   3.858  10.946  0.00  0.00    +0.000 C 
BRANCH  23  24
ATOM     24  O   UNL     1      44.176   4.210   9.568  0.00  0.00    +0.000 OA
BRANCH  24  25
ATOM     25  C   UNL     1      45.106   3.520   8.819  0.00  0.00    +0.000 A 
ATOM     26  C   UNL     1      45.251   2.159   9.041  0.00  0.00    +0.000 A 
ATOM     27  N   UNL     1      46.129   1.395   8.343  0.00  0.00    +0.000 NA
ATOM     28  C   UNL     1      46.852   2.059   7.413  0.00  0.00    +0.000 A 
ATOM     29  C   UNL     1      46.709   3.419   7.190  0.00  0.00    +0.000 A 
ATOM     30  N   UNL     1      45.839   4.176   7.890  0.00  0.00    +0.000 NA
ENDBRANCH  24  25
ENDBRANCH  23  24
ENDBRANCH  20  23
ENDBRANCH  16  17
ENDBRANCH   2  16
TORSDOF 6
ENDMDL
MODEL 3
REMARK VINA RESULT:    -7.158      3.235      8.568
REMARK INTER + INTRA:         -10.787
REMARK INTER:                  -9.553
REMARK INTRA:                  -1.234
REMARK UNBOUND:                -1.118
REMARK  Name = 
REMARK  7 active torsions:
REMARK  status: ('A' for Active; 'I' for Inactive)
REMARK    1  A    between atoms: C_1  and  N_2
REMARK    2  A    between atoms: N_2  and  C_3
REMARK    3  A    between atoms: C_3  and  C_4
REMARK    4  A    between atoms: C_7  and  C_8
REMARK    5  A    between atoms: C_8  and  O_9
REMARK    6  A    between atoms: O_9  and  C_10
REMARK    7  A    between atoms: C_18  and  C_20
REMARK                            x       y       z     vdW  Elec       q    Type
REMARK                         _______ _______ _______ _____ _____    ______ ____
ROOT
ATOM      1  C   UNL     1      49.375   7.503  12.521  0.00  0.00    +0.000 C 
ATOM      2  N   UNL     1      48.655   7.210  13.757  0.00  0.00    +0.000 N 
ATOM      3  C   UNL     1      49.451   7.011  14.898  0.00  0.00    +0.000 C 
ATOM      4  O   UNL     1      50.677   7.069  14.840  0.00  0.00    +0.000 OA
ENDROOT
BRANCH   3   5
ATOM      5  C   UNL     1      48.806   6.687  16.176  0.00  0.00    +0.000 A 
ATOM      6  C   UNL     1      48.532   5.400  16.614  0.00  0.00    +0.000 A 
ATOM      7  S   UNL     1      47.852   5.342  18.178  0.00  0.00    +0.000 S 
ATOM      8  C   UNL     1      48.034   7.022  18.376  0.00  0.00    +0.000 A 
ATOM      9  N   UNL     1      47.737   7.622  19.557  0.00  0.00    +0.000 NA
ATOM     10  C   UNL     1      47.988   8.890  19.581  0.00  0.00    +0.000 A 
ATOM     11  N   UNL     1      48.470   9.614  18.521  0.00  0.00    +0.000 N 
ATOM     12  C   UNL     1      48.654   9.072  17.266  0.00  0.00    +0.000 A 
ATOM     13  O   UNL     1      48.846   9.791  16.290  0.00  0.00    +0.000 OA
ATOM     14  C   UNL     1      48.506   7.629  17.227  0.00  0.00    +0.000 A 
ATOM     15  H   UNL     1      48.579  10.615  18.587  0.00  0.00    +0.000 HD
ENDBRANCH   3   5
BRANCH   2  16
ATOM     16  C   UNL     1      47.198   7.372  13.811  0.00  0.00    +0.000 C 
BRANCH  16  17
ATOM     17  C   UNL     1      46.370   6.379  13.038  0.00  0.00    +0.000 A 
ATOM     18  C   UNL     1      46.337   5.027  13.421  0.00  0.00    +0.000 A 
ATOM     19  C   UNL     1      45.612   4.101  12.674  0.00  0.00    +0.000 A 
ATOM     20  C   UNL     1      44.918   4.510  11.531  0.00  0.00    +0.000 A 
ATOM     21  C   UNL     1      44.916   5.865  11.175  0.00  0.00    +0.000 A 
ATOM     22  C   UNL     1      45.646   6.792  11.917  0.00  0.00    +0.000 A 
BRANCH  20  23
ATOM     23  C   UNL     1      44.203   3.505  10.667  0.00  0.00    +0.000 C 
BRANCH  23  24
ATOM     24  O   UNL     1      44.240   3.926   9.306  0.00  0.00    +0.000 OA
BRANCH  24  25
ATOM     25  C   UNL     1      45.200   3.236   8.596  0.00  0.00    +0.000 A 
ATOM     26  C   UNL     1      45.364   1.883   8.855  0.00  0.00    +0.000 A 
ATOM     27  N   UNL     1      46.271   1.120   8.196  0.00  0.00    +0.000 NA
ATOM     28  C   UNL     1      47.004   1.774   7.266  0.00  0.00    +0.000 A 
ATOM     29  C   UNL     1      46.842   3.126   7.008  0.00  0.00    +0.000 A 
ATOM     30  N   UNL     1      45.942   3.883   7.669  0.00  0.00    +0.000 NA
ENDBRANCH  24  25
ENDBRANCH  23  24
ENDBRANCH  20  23
ENDBRANCH  16  17
ENDBRANCH   2  16
TORSDOF 6
ENDMDL
MODEL 4
REMARK VINA RESULT:    -6.776      2.836      8.487
REMARK INTER + INTRA:         -10.270
REMARK INTER:                  -9.374
REMARK INTRA:                  -0.897
REMARK UNBOUND:                -1.118
REMARK  Name = 
REMARK  7 active torsions:
REMARK  status: ('A' for Active; 'I' for Inactive)
REMARK    1  A    between atoms: C_1  and  N_2
REMARK    2  A    between atoms: N_2  and  C_3
REMARK    3  A    between atoms: C_3  and  C_4
REMARK    4  A    between atoms: C_7  and  C_8
REMARK    5  A    between atoms: C_8  and  O_9
REMARK    6  A    between atoms: O_9  and  C_10
REMARK    7  A    between atoms: C_18  and  C_20
REMARK                            x       y       z     vdW  Elec       q    Type
REMARK                         _______ _______ _______ _____ _____    ______ ____
ROOT
ATOM      1  C   UNL     1      47.696   9.129  14.336  0.00  0.00    +0.000 C 
ATOM      2  N   UNL     1      48.779   8.175  14.555  0.00  0.00    +0.000 N 
ATOM      3  C   UNL     1      49.402   8.231  15.813  0.00  0.00    +0.000 C 
ATOM      4  O   UNL     1      49.056   9.050  16.661  0.00  0.00    +0.000 OA
ENDROOT
BRANCH   3   5
ATOM      5  C   UNL     1      50.517   7.321  16.104  0.00  0.00    +0.000 A 
ATOM      6  C   UNL     1      51.854   7.628  15.903  0.00  0.00    +0.000 A 
ATOM      7  S   UNL     1      52.921   6.397  16.415  0.00  0.00    +0.000 S 
ATOM      8  C   UNL     1      51.637   5.478  17.049  0.00  0.00    +0.000 A 
ATOM      9  N   UNL     1      51.873   4.330  17.735  0.00  0.00    +0.000 NA
ATOM     10  C   UNL     1      50.809   3.775  18.214  0.00  0.00    +0.000 A 
ATOM     11  N   UNL     1      49.532   4.243  18.036  0.00  0.00    +0.000 N 
ATOM     12  C   UNL     1      49.236   5.324  17.232  0.00  0.00    +0.000 A 
ATOM     13  O   UNL     1      48.081   5.565  16.897  0.00  0.00    +0.000 OA
ATOM     14  C   UNL     1      50.409   6.051  16.779  0.00  0.00    +0.000 A 
ATOM     15  H   UNL     1      48.740   3.722  18.380  0.00  0.00    +0.000 HD
ENDBRANCH   3   5
BRANCH   2  16
ATOM     16  C   UNL     1      48.997   7.085  13.597  0.00  0.00    +0.000 C 
BRANCH  16  17
ATOM     17  C   UNL     1      47.773   6.423  13.022  0.00  0.00    +0.000 A 
ATOM     18  C   UNL     1      47.156   5.357  13.699  0.00  0.00    +0.000 A 
ATOM     19  C   UNL     1      46.054   4.712  13.140  0.00  0.00    +0.000 A 
ATOM     20  C   UNL     1      45.560   5.117  11.896  0.00  0.00    +0.000 A 
ATOM     21  C   UNL     1      46.149   6.207  11.243  0.00  0.00    +0.000 A 
ATOM     22  C   UNL     1      47.255   6.850  11.797  0.00  0.00    +0.000 A 
BRANCH  20  23
ATOM     23  C   UNL     1      44.426   4.372  11.242  0.00  0.00    +0.000 C 
BRANCH  23  24
ATOM     24  O   UNL     1      44.348   4.725   9.864  0.00  0.00    +0.000 OA
BRANCH  24  25
ATOM     25  C   UNL     1      45.093   3.864   9.086  0.00  0.00    +0.000 A 
ATOM     26  C   UNL     1      45.071   2.512   9.395  0.00  0.00    +0.000 A 
ATOM     27  N   UNL     1      45.760   1.589   8.677  0.00  0.00    +0.000 NA
ATOM     28  C   UNL     1      46.468   2.083   7.637  0.00  0.00    +0.000 A 
ATOM     29  C   UNL     1      46.492   3.434   7.327  0.00  0.00    +0.000 A 
ATOM     30  N   UNL     1      45.811   4.349   8.046  0.00  0.00    +0.000 NA
ENDBRANCH  24  25
ENDBRANCH  23  24
ENDBRANCH  20  23
ENDBRANCH  16  17
ENDBRANCH   2  16
TORSDOF 6
ENDMDL
MODEL 5
REMARK VINA RESULT:    -6.629      2.493      8.362
REMARK INTER + INTRA:         -10.072
REMARK INTER:                  -9.236
REMARK INTRA:                  -0.837
REMARK UNBOUND:                -1.118
REMARK  Name = 
REMARK  7 active torsions:
REMARK  status: ('A' for Active; 'I' for Inactive)
REMARK    1  A    between atoms: C_1  and  N_2
REMARK    2  A    between atoms: N_2  and  C_3
REMARK    3  A    between atoms: C_3  and  C_4
REMARK    4  A    between atoms: C_7  and  C_8
REMARK    5  A    between atoms: C_8  and  O_9
REMARK    6  A    between atoms: O_9  and  C_10
REMARK    7  A    between atoms: C_18  and  C_20
REMARK                            x       y       z     vdW  Elec       q    Type
REMARK                         _______ _______ _______ _____ _____    ______ ____
ROOT
ATOM      1  C   UNL     1      48.477   9.154  13.898  0.00  0.00    +0.000 C 
ATOM      2  N   UNL     1      48.805   7.856  14.479  0.00  0.00    +0.000 N 
ATOM      3  C   UNL     1      48.726   7.773  15.879  0.00  0.00    +0.000 C 
ATOM      4  O   UNL     1      48.414   8.747  16.560  0.00  0.00    +0.000 OA
ENDROOT
BRANCH   3   5
ATOM      5  C   UNL     1      49.066   6.509  16.545  0.00  0.00    +0.000 A 
ATOM      6  C   UNL     1      48.158   5.497  16.819  0.00  0.00    +0.000 A 
ATOM      7  S   UNL     1      48.870   4.116  17.526  0.00  0.00    +0.000 S 
ATOM      8  C   UNL     1      50.431   4.771  17.357  0.00  0.00    +0.000 A 
ATOM      9  N   UNL     1      51.532   4.044  17.680  0.00  0.00    +0.000 NA
ATOM     10  C   UNL     1      52.649   4.646  17.437  0.00  0.00    +0.000 A 
ATOM     11  N   UNL     1      52.763   5.919  16.941  0.00  0.00    +0.000 N 
ATOM     12  C   UNL     1      51.676   6.741  16.732  0.00  0.00    +0.000 A 
ATOM     13  O   UNL     1      51.822   7.941  16.527  0.00  0.00    +0.000 OA
ATOM     14  C   UNL     1      50.399   6.064  16.870  0.00  0.00    +0.000 A 
ATOM     15  H   UNL     1      53.668   6.354  16.840  0.00  0.00    +0.000 HD
ENDBRANCH   3   5
BRANCH   2  16
ATOM     16  C   UNL     1      48.954   6.682  13.611  0.00  0.00    +0.000 C 
BRANCH  16  17
ATOM     17  C   UNL     1      47.698   6.119  13.001  0.00  0.00    +0.000 A 
ATOM     18  C   UNL     1      47.127   4.939  13.509  0.00  0.00    +0.000 A 
ATOM     19  C   UNL     1      45.994   4.391  12.910  0.00  0.00    +0.000 A 
ATOM     20  C   UNL     1      45.422   5.009  11.792  0.00  0.00    +0.000 A 
ATOM     21  C   UNL     1      45.966   6.207  11.314  0.00  0.00    +0.000 A 
ATOM     22  C   UNL     1      47.103   6.754  11.908  0.00  0.00    +0.000 A 
BRANCH  20  23
ATOM     23  C   UNL     1      44.251   4.379  11.085  0.00  0.00    +0.000 C 
BRANCH  23  24
ATOM     24  O   UNL     1      44.288   4.714   9.700  0.00  0.00    +0.000 OA
BRANCH  24  25
ATOM     25  C   UNL     1      45.076   3.831   8.993  0.00  0.00    +0.000 A 
ATOM     26  C   UNL     1      45.003   2.483   9.313  0.00  0.00    +0.000 A 
ATOM     27  N   UNL     1      45.728   1.538   8.663  0.00  0.00    +0.000 NA
ATOM     28  C   UNL     1      46.528   2.007   7.678  0.00  0.00    +0.000 A 
ATOM     29  C   UNL     1      46.603   3.354   7.358  0.00  0.00    +0.000 A 
ATOM     30  N   UNL     1      45.885   4.290   8.011  0.00  0.00    +0.000 NA
ENDBRANCH  24  25
ENDBRANCH  23  24
ENDBRANCH  20  23
ENDBRANCH  16  17
ENDBRANCH   2  16
TORSDOF 6
ENDMDL
MODEL 6
REMARK VINA RESULT:    -6.499      2.918      8.008
REMARK INTER + INTRA:          -9.896
REMARK INTER:                  -8.516
REMARK INTRA:                  -1.380
REMARK UNBOUND:                -1.118
REMARK  Name = 
REMARK  7 active torsions:
REMARK  status: ('A' for Active; 'I' for Inactive)
REMARK    1  A    between atoms: C_1  and  N_2
REMARK    2  A    between atoms: N_2  and  C_3
REMARK    3  A    between atoms: C_3  and  C_4
REMARK    4  A    between atoms: C_7  and  C_8
REMARK    5  A    between atoms: C_8  and  O_9
REMARK    6  A    between atoms: O_9  and  C_10
REMARK    7  A    between atoms: C_18  and  C_20
REMARK                            x       y       z     vdW  Elec       q    Type
REMARK                         _______ _______ _______ _____ _____    ______ ____
ROOT
ATOM      1  C   UNL     1      47.856   9.191  18.086  0.00  0.00    +0.000 C 
ATOM      2  N   UNL     1      48.818   8.188  17.640  0.00  0.00    +0.000 N 
ATOM      3  C   UNL     1      48.883   7.015  18.411  0.00  0.00    +0.000 C 
ATOM      4  O   UNL     1      48.177   6.864  19.405  0.00  0.00    +0.000 OA
ENDROOT
BRANCH   3   5
ATOM      5  C   UNL     1      49.843   5.966  18.044  0.00  0.00    +0.000 A 
ATOM      6  C   UNL     1      51.210   6.038  18.268  0.00  0.00    +0.000 A 
ATOM      7  S   UNL     1      52.052   4.627  17.807  0.00  0.00    +0.000 S 
ATOM      8  C   UNL     1      50.602   3.823  17.426  0.00  0.00    +0.000 A 
ATOM      9  N   UNL     1      50.603   2.516  17.061  0.00  0.00    +0.000 NA
ATOM     10  C   UNL     1      49.424   2.022  16.867  0.00  0.00    +0.000 A 
ATOM     11  N   UNL     1      48.253   2.727  16.968  0.00  0.00    +0.000 N 
ATOM     12  C   UNL     1      48.214   4.086  17.199  0.00  0.00    +0.000 A 
ATOM     13  O   UNL     1      47.179   4.725  17.038  0.00  0.00    +0.000 OA
ATOM     14  C   UNL     1      49.504   4.654  17.547  0.00  0.00    +0.000 A 
ATOM     15  H   UNL     1      47.370   2.296  16.735  0.00  0.00    +0.000 HD
ENDBRANCH   3   5
BRANCH   2  16
ATOM     16  C   UNL     1      49.467   8.327  16.331  0.00  0.00    +0.000 C 
BRANCH  16  17
ATOM     17  C   UNL     1      48.646   7.976  15.119  0.00  0.00    +0.000 A 
ATOM     18  C   UNL     1      47.848   8.949  14.494  0.00  0.00    +0.000 A 
ATOM     19  C   UNL     1      47.049   8.609  13.403  0.00  0.00    +0.000 A 
ATOM     20  C   UNL     1      47.031   7.293  12.929  0.00  0.00    +0.000 A 
ATOM     21  C   UNL     1      47.860   6.335  13.526  0.00  0.00    +0.000 A 
ATOM     22  C   UNL     1      48.655   6.671  14.620  0.00  0.00    +0.000 A 
BRANCH  20  23
ATOM     23  C   UNL     1      46.107   6.895  11.808  0.00  0.00    +0.000 C 
BRANCH  23  24
ATOM     24  O   UNL     1      44.794   6.679  12.320  0.00  0.00    +0.000 OA
BRANCH  24  25
ATOM     25  C   UNL     1      44.360   5.398  12.053  0.00  0.00    +0.000 A 
ATOM     26  C   UNL     1      44.143   4.540  13.121  0.00  0.00    +0.000 A 
ATOM     27  N   UNL     1      43.701   3.268  12.957  0.00  0.00    +0.000 NA
ATOM     28  C   UNL     1      43.485   2.896  11.674  0.00  0.00    +0.000 A 
ATOM     29  C   UNL     1      43.703   3.752  10.606  0.00  0.00    +0.000 A 
ATOM     30  N   UNL     1      44.147   5.015  10.773  0.00  0.00    +0.000 NA
ENDBRANCH  24  25
ENDBRANCH  23  24
ENDBRANCH  20  23
ENDBRANCH  16  17
ENDBRANCH   2  16
TORSDOF 6
ENDMDL
MODEL 7
REMARK VINA RESULT:    -6.300      2.726      8.492
REMARK INTER + INTRA:          -9.629
REMARK INTER:                  -8.584
REMARK INTRA:                  -1.045
REMARK UNBOUND:                -1.118
REMARK  Name = 
REMARK  7 active torsions:
REMARK  status: ('A' for Active; 'I' for Inactive)
REMARK    1  A    between atoms: C_1  and  N_2
REMARK    2  A    between atoms: N_2  and  C_3
REMARK    3  A    between atoms: C_3  and  C_4
REMARK    4  A    between atoms: C_7  and  C_8
REMARK    5  A    between atoms: C_8  and  O_9
REMARK    6  A    between atoms: O_9  and  C_10
REMARK    7  A    between atoms: C_18  and  C_20
REMARK                            x       y       z     vdW  Elec       q    Type
REMARK                         _______ _______ _______ _____ _____    ______ ____
ROOT
ATOM      1  C   UNL     1      48.323   8.682  16.631  0.00  0.00    +0.000 C 
ATOM      2  N   UNL     1      49.362   7.665  16.493  0.00  0.00    +0.000 N 
ATOM      3  C   UNL     1      49.686   6.957  17.663  0.00  0.00    +0.000 C 
ATOM      4  O   UNL     1      49.132   7.201  18.732  0.00  0.00    +0.000 OA
ENDROOT
BRANCH   3   5
ATOM      5  C   UNL     1      50.739   5.934  17.616  0.00  0.00    +0.000 A 
ATOM      6  C   UNL     1      52.080   6.175  17.869  0.00  0.00    +0.000 A 
ATOM      7  S   UNL     1      53.047   4.769  17.818  0.00  0.00    +0.000 S 
ATOM      8  C   UNL     1      51.683   3.777  17.598  0.00  0.00    +0.000 A 
ATOM      9  N   UNL     1      51.799   2.424  17.579  0.00  0.00    +0.000 NA
ATOM     10  C   UNL     1      50.672   1.801  17.471  0.00  0.00    +0.000 A 
ATOM     11  N   UNL     1      49.449   2.407  17.340  0.00  0.00    +0.000 N 
ATOM     12  C   UNL     1      49.300   3.772  17.215  0.00  0.00    +0.000 A 
ATOM     13  O   UNL     1      48.235   4.261  16.855  0.00  0.00    +0.000 OA
ATOM     14  C   UNL     1      50.524   4.516  17.458  0.00  0.00    +0.000 A 
ATOM     15  H   UNL     1      48.615   1.859  17.191  0.00  0.00    +0.000 HD
ENDBRANCH   3   5
BRANCH   2  16
ATOM     16  C   UNL     1      49.826   7.269  15.159  0.00  0.00    +0.000 C 
BRANCH  16  17
ATOM     17  C   UNL     1      48.772   7.041  14.107  0.00  0.00    +0.000 A 
ATOM     18  C   UNL     1      48.689   7.887  12.988  0.00  0.00    +0.000 A 
ATOM     19  C   UNL     1      47.680   7.706  12.043  0.00  0.00    +0.000 A 
ATOM     20  C   UNL     1      46.739   6.684  12.207  0.00  0.00    +0.000 A 
ATOM     21  C   UNL     1      46.849   5.816  13.300  0.00  0.00    +0.000 A 
ATOM     22  C   UNL     1      47.853   5.998  14.250  0.00  0.00    +0.000 A 
BRANCH  20  23
ATOM     23  C   UNL     1      45.595   6.534  11.239  0.00  0.00    +0.000 C 
BRANCH  23  24
ATOM     24  O   UNL     1      44.955   5.277  11.442  0.00  0.00    +0.000 OA
BRANCH  24  25
ATOM     25  C   UNL     1      45.032   4.490  10.312  0.00  0.00    +0.000 A 
ATOM     26  C   UNL     1      45.586   5.038   9.165  0.00  0.00    +0.000 A 
ATOM     27  N   UNL     1      45.718   4.337   8.011  0.00  0.00    +0.000 NA
ATOM     28  C   UNL     1      45.270   3.061   8.061  0.00  0.00    +0.000 A 
ATOM     29  C   UNL     1      44.716   2.512   9.207  0.00  0.00    +0.000 A 
ATOM     30  N   UNL     1      44.582   3.215  10.350  0.00  0.00    +0.000 NA
ENDBRANCH  24  25
ENDBRANCH  23  24
ENDBRANCH  20  23
ENDBRANCH  16  17
ENDBRANCH   2  16
TORSDOF 6
ENDMDL
MODEL 8
REMARK VINA RESULT:    -6.135      2.949      8.596
REMARK INTER + INTRA:          -9.405
REMARK INTER:                  -8.478
REMARK INTRA:                  -0.927
REMARK UNBOUND:                -1.118
REMARK  Name = 
REMARK  7 active torsions:
REMARK  status: ('A' for Active; 'I' for Inactive)
REMARK    1  A    between atoms: C_1  and  N_2
REMARK    2  A    between atoms: N_2  and  C_3
REMARK    3  A    between atoms: C_3  and  C_4
REMARK    4  A    between atoms: C_7  and  C_8
REMARK    5  A    between atoms: C_8  and  O_9
REMARK    6  A    between atoms: O_9  and  C_10
REMARK    7  A    between atoms: C_18  and  C_20
REMARK                            x       y       z     vdW  Elec       q    Type
REMARK                         _______ _______ _______ _____ _____    ______ ____
ROOT
ATOM      1  C   UNL     1      46.894   3.973  17.106  0.00  0.00    +0.000 C 
ATOM      2  N   UNL     1      47.743   4.795  16.250  0.00  0.00    +0.000 N 
ATOM      3  C   UNL     1      48.323   5.920  16.860  0.00  0.00    +0.000 C 
ATOM      4  O   UNL     1      48.107   6.190  18.039  0.00  0.00    +0.000 OA
ENDROOT
BRANCH   3   5
ATOM      5  C   UNL     1      49.171   6.814  16.060  0.00  0.00    +0.000 A 
ATOM      6  C   UNL     1      48.708   7.915  15.357  0.00  0.00    +0.000 A 
ATOM      7  S   UNL     1      49.947   8.806  14.592  0.00  0.00    +0.000 S 
ATOM      8  C   UNL     1      51.152   7.830  15.293  0.00  0.00    +0.000 A 
ATOM      9  N   UNL     1      52.468   8.119  15.127  0.00  0.00    +0.000 NA
ATOM     10  C   UNL     1      53.265   7.331  15.771  0.00  0.00    +0.000 A 
ATOM     11  N   UNL     1      52.866   6.262  16.531  0.00  0.00    +0.000 N 
ATOM     12  C   UNL     1      51.552   5.851  16.613  0.00  0.00    +0.000 A 
ATOM     13  O   UNL     1      51.261   4.759  17.092  0.00  0.00    +0.000 OA
ATOM     14  C   UNL     1      50.613   6.779  16.010  0.00  0.00    +0.000 A 
ATOM     15  H   UNL     1      53.546   5.646  16.951  0.00  0.00    +0.000 HD
ENDBRANCH   3   5
BRANCH   2  16
ATOM     16  C   UNL     1      48.138   4.305  14.924  0.00  0.00    +0.000 C 
BRANCH  16  17
ATOM     17  C   UNL     1      47.106   4.381  13.831  0.00  0.00    +0.000 A 
ATOM     18  C   UNL     1      46.810   5.609  13.215  0.00  0.00    +0.000 A 
ATOM     19  C   UNL     1      45.817   5.686  12.239  0.00  0.00    +0.000 A 
ATOM     20  C   UNL     1      45.103   4.541  11.872  0.00  0.00    +0.000 A 
ATOM     21  C   UNL     1      45.429   3.311  12.455  0.00  0.00    +0.000 A 
ATOM     22  C   UNL     1      46.416   3.232  13.436  0.00  0.00    +0.000 A 
BRANCH  20  23
ATOM     23  C   UNL     1      43.971   4.629  10.883  0.00  0.00    +0.000 C 
BRANCH  23  24
ATOM     24  O   UNL     1      43.781   3.364  10.254  0.00  0.00    +0.000 OA
BRANCH  24  25
ATOM     25  C   UNL     1      44.709   3.160   9.255  0.00  0.00    +0.000 A 
ATOM     26  C   UNL     1      45.068   4.238   8.460  0.00  0.00    +0.000 A 
ATOM     27  N   UNL     1      45.984   4.136   7.463  0.00  0.00    +0.000 NA
ATOM     28  C   UNL     1      46.523   2.906   7.304  0.00  0.00    +0.000 A 
ATOM     29  C   UNL     1      46.165   1.828   8.098  0.00  0.00    +0.000 A 
ATOM     30  N   UNL     1      45.250   1.932   9.083  0.00  0.00    +0.000 NA
ENDBRANCH  24  25
ENDBRANCH  23  24
ENDBRANCH  20  23
ENDBRANCH  16  17
ENDBRANCH   2  16
TORSDOF 6
ENDMDL
MODEL 9
REMARK VINA RESULT:    -6.119      2.752      8.920
REMARK INTER + INTRA:          -9.383
REMARK INTER:                  -8.543
REMARK INTRA:                  -0.840
REMARK UNBOUND:                -1.118
REMARK  Name = 
REMARK  7 active torsions:
REMARK  status: ('A' for Active; 'I' for Inactive)
REMARK    1  A    between atoms: C_1  and  N_2
REMARK    2  A    between atoms: N_2  and  C_3
REMARK    3  A    between atoms: C_3  and  C_4
REMARK    4  A    between atoms: C_7  and  C_8
REMARK    5  A    between atoms: C_8  and  O_9
REMARK    6  A    between atoms: O_9  and  C_10
REMARK    7  A    between atoms: C_18  and  C_20
REMARK                            x       y       z     vdW  Elec       q    Type
REMARK                         _______ _______ _______ _____ _____    ______ ____
ROOT
ATOM      1  C   UNL     1      47.248   5.868  18.171  0.00  0.00    +0.000 C 
ATOM      2  N   UNL     1      48.649   5.542  17.925  0.00  0.00    +0.000 N 
ATOM      3  C   UNL     1      49.264   4.716  18.881  0.00  0.00    +0.000 C 
ATOM      4  O   UNL     1      48.650   4.314  19.867  0.00  0.00    +0.000 OA
ENDROOT
BRANCH   3   5
ATOM      5  C   UNL     1      50.680   4.361  18.721  0.00  0.00    +0.000 A 
ATOM      6  C   UNL     1      51.734   5.056  19.295  0.00  0.00    +0.000 A 
ATOM      7  S   UNL     1      53.259   4.352  18.993  0.00  0.00    +0.000 S 
ATOM      8  C   UNL     1      52.547   3.021  18.207  0.00  0.00    +0.000 A 
ATOM      9  N   UNL     1      53.301   1.974  17.786  0.00  0.00    +0.000 NA
ATOM     10  C   UNL     1      52.617   1.008  17.267  0.00  0.00    +0.000 A 
ATOM     11  N   UNL     1      51.256   1.013  17.098  0.00  0.00    +0.000 N 
ATOM     12  C   UNL     1      50.470   2.110  17.383  0.00  0.00    +0.000 A 
ATOM     13  O   UNL     1      49.309   2.173  16.994  0.00  0.00    +0.000 OA
ATOM     14  C   UNL     1      51.178   3.167  18.084  0.00  0.00    +0.000 A 
ATOM     15  H   UNL     1      50.793   0.253  16.622  0.00  0.00    +0.000 HD
ENDBRANCH   3   5
BRANCH   2  16
ATOM     16  C   UNL     1      49.259   5.865  16.630  0.00  0.00    +0.000 C 
BRANCH  16  17
ATOM     17  C   UNL     1      48.350   5.879  15.430  0.00  0.00    +0.000 A 
ATOM     18  C   UNL     1      48.291   7.007  14.594  0.00  0.00    +0.000 A 
ATOM     19  C   UNL     1      47.411   7.038  13.514  0.00  0.00    +0.000 A 
ATOM     20  C   UNL     1      46.574   5.946  13.259  0.00  0.00    +0.000 A 
ATOM     21  C   UNL     1      46.665   4.806  14.066  0.00  0.00    +0.000 A 
ATOM     22  C   UNL     1      47.539   4.775  15.151  0.00  0.00    +0.000 A 
BRANCH  20  23
ATOM     23  C   UNL     1      45.559   6.002  12.148  0.00  0.00    +0.000 C 
BRANCH  23  24
ATOM     24  O   UNL     1      44.814   4.787  12.113  0.00  0.00    +0.000 OA
BRANCH  24  25
ATOM     25  C   UNL     1      44.835   4.225  10.855  0.00  0.00    +0.000 A 
ATOM     26  C   UNL     1      44.348   2.936  10.702  0.00  0.00    +0.000 A 
ATOM     27  N   UNL     1      44.313   2.306   9.500  0.00  0.00    +0.000 NA
ATOM     28  C   UNL     1      44.788   3.030   8.460  0.00  0.00    +0.000 A 
ATOM     29  C   UNL     1      45.275   4.318   8.612  0.00  0.00    +0.000 A 
ATOM     30  N   UNL     1      45.313   4.938   9.809  0.00  0.00    +0.000 NA
ENDBRANCH  24  25
ENDBRANCH  23  24
ENDBRANCH  20  23
ENDBRANCH  16  17
ENDBRANCH   2  16
TORSDOF 6
ENDMDL
