MODEL 1
REMARK VINA RESULT:    -7.705      0.000      0.000
REMARK INTER + INTRA:         -12.331
REMARK INTER:                 -11.083
REMARK INTRA:                  -1.248
REMARK UNBOUND:                -1.248
REMARK  Name = 
REMARK  8 active torsions:
REMARK  status: ('A' for Active; 'I' for Inactive)
REMARK    1  A    between atoms: C_2  and  C_20
REMARK    2  A    between atoms: N_3  and  C_4
REMARK    3  A    between atoms: C_4  and  C_5
REMARK    4  A    between atoms: C_8  and  C_9
REMARK    5  A    between atoms: C_9  and  O_10
REMARK    6  A    between atoms: C_9  and  C_11
REMARK    7  A    between atoms: C_11  and  N_12
REMARK    8  A    between atoms: N_12  and  C_13
REMARK                            x       y       z     vdW  Elec       q    Type
REMARK                         _______ _______ _______ _____ _____    ______ ____
ROOT
ATOM      1  C   UNL     1      46.347   5.831  12.420  0.00  0.00    +0.000 A 
ATOM      2  C   UNL     1      46.053   4.633  13.073  0.00  0.00    +0.000 A 
ATOM      3  C   UNL     1      45.258   3.672  12.444  0.00  0.00    +0.000 A 
ATOM      4  C   UNL     1      44.782   3.930  11.162  0.00  0.00    +0.000 A 
ATOM      5  N   UNL     1      45.125   5.054  10.477  0.00  0.00    +0.000 NA
ATOM      6  C   UNL     1      45.894   5.968  11.115  0.00  0.00    +0.000 A 
ENDROOT
BRANCH   1   7
ATOM      7  C   UNL     1      47.113   6.930  13.097  0.00  0.00    +0.000 C 
BRANCH   7  10
ATOM      8  O   UNL     1      49.700   6.972  14.195  0.00  0.00    +0.000 OA
ATOM      9  C   UNL     1      48.754   6.675  14.918  0.00  0.00    +0.000 C 
ATOM     10  N   UNL     1      47.469   6.586  14.446  0.00  0.00    +0.000 N 
ATOM     11  H   UNL     1      46.705   6.475  15.103  0.00  0.00    +0.000 HD
BRANCH   9  12
ATOM     12  C   UNL     1      48.942   6.353  16.337  0.00  0.00    +0.000 A 
ATOM     13  C   UNL     1      49.426   7.321  17.206  0.00  0.00    +0.000 A 
ATOM     14  S   UNL     1      49.555   6.786  18.820  0.00  0.00    +0.000 S 
ATOM     15  C   UNL     1      48.932   5.254  18.419  0.00  0.00    +0.000 A 
ATOM     16  N   UNL     1      48.730   4.309  19.375  0.00  0.00    +0.000 NA
ATOM     17  C   UNL     1      48.213   3.209  18.939  0.00  0.00    +0.000 A 
ATOM     18  N   UNL     1      47.902   2.958  17.629  0.00  0.00    +0.000 N 
ATOM     19  C   UNL     1      48.168   3.849  16.617  0.00  0.00    +0.000 A 
ATOM     20  O   UNL     1      48.027   3.536  15.438  0.00  0.00    +0.000 OA
ATOM     21  C   UNL     1      48.677   5.133  17.064  0.00  0.00    +0.000 A 
ATOM     22  H   UNL     1      47.540   2.062  17.349  0.00  0.00    +0.000 HD
ENDBRANCH   9  12
ENDBRANCH   7  10
ENDBRANCH   1   7
BRANCH   4  23
ATOM     23  C   UNL     1      43.799   2.984  10.479  0.00  0.00    +0.000 C 
BRANCH  23  24
ATOM     24  O   UNL     1      43.186   2.158  11.473  0.00  0.00    +0.000 OA
ATOM     25  H   UNL     1      43.917   1.888  12.062  0.00  0.00    +0.000 HD
ENDBRANCH  23  24
BRANCH  23  26
ATOM     26  C   UNL     1      44.585   2.115   9.453  0.00  0.00    +0.000 C 
BRANCH  26  27
ATOM     27  N   UNL     1      45.043   2.800   8.223  0.00  0.00    +0.000 NA
ATOM     28  H   UNL     1      44.774   3.779   8.261  0.00  0.00    +0.000 HD
BRANCH  27  29
ATOM     29  C   UNL     1      46.509   2.673   8.061  0.00  0.00    +0.000 C 
ATOM     30  C   UNL     1      47.032   3.580   6.960  0.00  0.00    +0.000 C 
ATOM     31  C   UNL     1      46.833   2.747   5.713  0.00  0.00    +0.000 C 
ATOM     32  O   UNL     1      47.082   1.390   6.096  0.00  0.00    +0.000 OA
ATOM     33  C   UNL     1      46.978   1.308   7.528  0.00  0.00    +0.000 C 
ENDBRANCH  27  29
ENDBRANCH  26  27
ENDBRANCH  23  26
ENDBRANCH   4  23
TORSDOF 8
ENDMDL
MODEL 2
REMARK VINA RESULT:    -7.214      1.567      2.066
REMARK INTER + INTRA:         -11.625
REMARK INTER:                 -10.623
REMARK INTRA:                  -1.001
REMARK UNBOUND:                -1.248
REMARK  Name = 
REMARK  8 active torsions:
REMARK  status: ('A' for Active; 'I' for Inactive)
REMARK    1  A    between atoms: C_2  and  C_20
REMARK    2  A    between atoms: N_3  and  C_4
REMARK    3  A    between atoms: C_4  and  C_5
REMARK    4  A    between atoms: C_8  and  C_9
REMARK    5  A    between atoms: C_9  and  O_10
REMARK    6  A    between atoms: C_9  and  C_11
REMARK    7  A    between atoms: C_11  and  N_12
REMARK    8  A    between atoms: N_12  and  C_13
REMARK                            x       y       z     vdW  Elec       q    Type
REMARK                         _______ _______ _______ _____ _____    ______ ____
ROOT
ATOM      1  C   UNL     1      46.953   6.170  12.970  0.00  0.00    +0.000 A 
ATOM      2  C   UNL     1      46.420   6.774  11.831  0.00  0.00    +0.000 A 
ATOM      3  C   UNL     1      45.227   6.299  11.281  0.00  0.00    +0.000 A 
ATOM      4  C   UNL     1      44.584   5.230  11.897  0.00  0.00    +0.000 A 
ATOM      5  N   UNL     1      45.043   4.681  13.055  0.00  0.00    +0.000 NA
ATOM      6  C   UNL     1      46.204   5.160  13.561  0.00  0.00    +0.000 A 
ENDROOT
BRANCH   1   7
ATOM      7  C   UNL     1      48.281   6.583  13.534  0.00  0.00    +0.000 C 
BRANCH   7  10
ATOM      8  O   UNL     1      50.516   6.915  15.205  0.00  0.00    +0.000 OA
ATOM      9  C   UNL     1      49.404   6.821  15.715  0.00  0.00    +0.000 C 
ATOM     10  N   UNL     1      48.271   6.610  14.971  0.00  0.00    +0.000 N 
ATOM     11  H   UNL     1      47.363   6.678  15.417  0.00  0.00    +0.000 HD
BRANCH   9  12
ATOM     12  C   UNL     1      49.215   6.888  17.168  0.00  0.00    +0.000 A 
ATOM     13  C   UNL     1      49.056   8.119  17.788  0.00  0.00    +0.000 A 
ATOM     14  S   UNL     1      48.820   8.010  19.473  0.00  0.00    +0.000 S 
ATOM     15  C   UNL     1      48.885   6.310  19.427  0.00  0.00    +0.000 A 
ATOM     16  N   UNL     1      48.699   5.572  20.553  0.00  0.00    +0.000 NA
ATOM     17  C   UNL     1      48.732   4.295  20.367  0.00  0.00    +0.000 A 
ATOM     18  N   UNL     1      48.958   3.687  19.160  0.00  0.00    +0.000 N 
ATOM     19  C   UNL     1      49.237   4.391  18.013  0.00  0.00    +0.000 A 
ATOM     20  O   UNL     1      49.593   3.821  16.986  0.00  0.00    +0.000 OA
ATOM     21  C   UNL     1      49.135   5.833  18.152  0.00  0.00    +0.000 A 
ATOM     22  H   UNL     1      49.014   2.684  19.091  0.00  0.00    +0.000 HD
ENDBRANCH   9  12
ENDBRANCH   7  10
ENDBRANCH   1   7
BRANCH   4  23
ATOM     23  C   UNL     1      43.355   4.579  11.270  0.00  0.00    +0.000 C 
BRANCH  23  24
ATOM     24  O   UNL     1      42.217   4.853  12.091  0.00  0.00    +0.000 OA
ATOM     25  H   UNL     1      42.179   4.110  12.723  0.00  0.00    +0.000 HD
ENDBRANCH  23  24
BRANCH  23  26
ATOM     26  C   UNL     1      43.606   3.045  11.173  0.00  0.00    +0.000 C 
BRANCH  26  27
ATOM     27  N   UNL     1      44.828   2.621  10.451  0.00  0.00    +0.000 NA
ATOM     28  H   UNL     1      45.241   1.822  10.925  0.00  0.00    +0.000 HD
BRANCH  27  29
ATOM     29  C   UNL     1      44.519   2.282   9.043  0.00  0.00    +0.000 C 
ATOM     30  C   UNL     1      45.600   1.408   8.427  0.00  0.00    +0.000 C 
ATOM     31  C   UNL     1      46.619   2.418   7.950  0.00  0.00    +0.000 C 
ATOM     32  O   UNL     1      45.875   3.556   7.502  0.00  0.00    +0.000 OA
ATOM     33  C   UNL     1      44.558   3.477   8.076  0.00  0.00    +0.000 C 
ENDBRANCH  27  29
ENDBRANCH  26  27
ENDBRANCH  23  26
ENDBRANCH   4  23
TORSDOF 8
ENDMDL
MODEL 3
REMARK VINA RESULT:    -7.085      1.682      2.389
REMARK INTER + INTRA:         -11.439
REMARK INTER:                 -10.615
REMARK INTRA:                  -0.824
REMARK UNBOUND:                -1.248
REMARK  Name = 
REMARK  8 active torsions:
REMARK  status: ('A' for Active; 'I' for Inactive)
REMARK    1  A    between atoms: C_2  and  C_20
REMARK    2  A    between atoms: N_3  and  C_4
REMARK    3  A    between atoms: C_4  and  C_5
REMARK    4  A    between atoms: C_8  and  C_9
REMARK    5  A    between atoms: C_9  and  O_10
REMARK    6  A    between atoms: C_9  and  C_11
REMARK    7  A    between atoms: C_11  and  N_12
REMARK    8  A    between atoms: N_12  and  C_13
REMARK                            x       y       z     vdW  Elec       q    Type
REMARK                         _______ _______ _______ _____ _____    ______ ____
ROOT
ATOM      1  C   UNL     1      46.610   6.091  12.734  0.00  0.00    +0.000 A 
ATOM      2  C   UNL     1      46.265   6.570  11.469  0.00  0.00    +0.000 A 
ATOM      3  C   UNL     1      45.386   5.843  10.663  0.00  0.00    +0.000 A 
ATOM      4  C   UNL     1      44.860   4.650  11.151  0.00  0.00    +0.000 A 
ATOM      5  N   UNL     1      45.119   4.208  12.411  0.00  0.00    +0.000 NA
ATOM      6  C   UNL     1      45.977   4.933  13.167  0.00  0.00    +0.000 A 
ENDROOT
BRANCH   1   7
ATOM      7  C   UNL     1      47.626   6.789  13.590  0.00  0.00    +0.000 C 
BRANCH   7  10
ATOM      8  O   UNL     1      49.868   6.696  15.283  0.00  0.00    +0.000 OA
ATOM      9  C   UNL     1      48.790   6.288  15.704  0.00  0.00    +0.000 C 
ATOM     10  N   UNL     1      47.662   6.256  14.925  0.00  0.00    +0.000 N 
ATOM     11  H   UNL     1      46.767   6.044  15.353  0.00  0.00    +0.000 HD
BRANCH   9  12
ATOM     12  C   UNL     1      48.645   5.766  17.068  0.00  0.00    +0.000 A 
ATOM     13  C   UNL     1      48.840   4.414  17.313  0.00  0.00    +0.000 A 
ATOM     14  S   UNL     1      48.660   3.985  18.953  0.00  0.00    +0.000 S 
ATOM     15  C   UNL     1      48.353   5.599  19.398  0.00  0.00    +0.000 A 
ATOM     16  N   UNL     1      48.161   5.941  20.699  0.00  0.00    +0.000 NA
ATOM     17  C   UNL     1      47.980   7.204  20.899  0.00  0.00    +0.000 A 
ATOM     18  N   UNL     1      47.950   8.154  19.912  0.00  0.00    +0.000 N 
ATOM     19  C   UNL     1      48.053   7.844  18.577  0.00  0.00    +0.000 A 
ATOM     20  O   UNL     1      47.863   8.691  17.710  0.00  0.00    +0.000 OA
ATOM     21  C   UNL     1      48.336   6.446  18.304  0.00  0.00    +0.000 A 
ATOM     22  H   UNL     1      47.763   9.118  20.131  0.00  0.00    +0.000 HD
ENDBRANCH   9  12
ENDBRANCH   7  10
ENDBRANCH   1   7
BRANCH   4  23
ATOM     23  C   UNL     1      44.007   3.744  10.268  0.00  0.00    +0.000 C 
BRANCH  23  24
ATOM     24  O   UNL     1      44.155   2.393  10.713  0.00  0.00    +0.000 OA
ATOM     25  H   UNL     1      44.447   1.899   9.924  0.00  0.00    +0.000 HD
ENDBRANCH  23  24
BRANCH  23  26
ATOM     26  C   UNL     1      44.491   3.893   8.796  0.00  0.00    +0.000 C 
BRANCH  26  27
ATOM     27  N   UNL     1      44.900   2.647   8.107  0.00  0.00    +0.000 NA
ATOM     28  H   UNL     1      44.544   2.654   7.155  0.00  0.00    +0.000 HD
BRANCH  27  29
ATOM     29  C   UNL     1      46.374   2.503   8.106  0.00  0.00    +0.000 C 
ATOM     30  C   UNL     1      47.024   3.404   7.068  0.00  0.00    +0.000 C 
ATOM     31  C   UNL     1      46.951   2.573   5.807  0.00  0.00    +0.000 C 
ATOM     32  O   UNL     1      47.141   1.213   6.212  0.00  0.00    +0.000 OA
ATOM     33  C   UNL     1      46.881   1.132   7.624  0.00  0.00    +0.000 C 
ENDBRANCH  27  29
ENDBRANCH  26  27
ENDBRANCH  23  26
ENDBRANCH   4  23
TORSDOF 8
ENDMDL
MODEL 4
REMARK VINA RESULT:    -6.987      1.907      2.558
REMARK INTER + INTRA:         -11.299
REMARK INTER:                 -10.046
REMARK INTRA:                  -1.252
REMARK UNBOUND:                -1.248
REMARK  Name = 
REMARK  8 active torsions:
REMARK  status: ('A' for Active; 'I' for Inactive)
REMARK    1  A    between atoms: C_2  and  C_20
REMARK    2  A    between atoms: N_3  and  C_4
REMARK    3  A    between atoms: C_4  and  C_5
REMARK    4  A    between atoms: C_8  and  C_9
REMARK    5  A    between atoms: C_9  and  O_10
REMARK    6  A    between atoms: C_9  and  C_11
REMARK    7  A    between atoms: C_11  and  N_12
REMARK    8  A    between atoms: N_12  and  C_13
REMARK                            x       y       z     vdW  Elec       q    Type
REMARK                         _______ _______ _______ _____ _____    ______ ____
ROOT
ATOM      1  C   UNL     1      47.386   6.611  12.980  0.00  0.00    +0.000 A 
ATOM      2  C   UNL     1      46.395   7.409  12.406  0.00  0.00    +0.000 A 
ATOM      3  C   UNL     1      45.103   6.907  12.239  0.00  0.00    +0.000 A 
ATOM      4  C   UNL     1      44.827   5.611  12.666  0.00  0.00    +0.000 A 
ATOM      5  N   UNL     1      45.755   4.847  13.303  0.00  0.00    +0.000 NA
ATOM      6  C   UNL     1      47.000   5.361  13.446  0.00  0.00    +0.000 A 
ENDROOT
BRANCH   1   7
ATOM      7  C   UNL     1      48.809   7.075  13.087  0.00  0.00    +0.000 C 
BRANCH   7  10
ATOM      8  O   UNL     1      48.121   8.873  15.135  0.00  0.00    +0.000 OA
ATOM      9  C   UNL     1      48.867   7.934  15.396  0.00  0.00    +0.000 C 
ATOM     10  N   UNL     1      49.286   7.043  14.442  0.00  0.00    +0.000 N 
ATOM     11  H   UNL     1      49.785   6.207  14.727  0.00  0.00    +0.000 HD
BRANCH   9  12
ATOM     12  C   UNL     1      49.396   7.726  16.748  0.00  0.00    +0.000 A 
ATOM     13  C   UNL     1      49.982   8.782  17.430  0.00  0.00    +0.000 A 
ATOM     14  S   UNL     1      50.516   8.371  18.997  0.00  0.00    +0.000 S 
ATOM     15  C   UNL     1      49.947   6.776  18.831  0.00  0.00    +0.000 A 
ATOM     16  N   UNL     1      50.044   5.889  19.856  0.00  0.00    +0.000 NA
ATOM     17  C   UNL     1      49.535   4.728  19.609  0.00  0.00    +0.000 A 
ATOM     18  N   UNL     1      48.957   4.366  18.421  0.00  0.00    +0.000 N 
ATOM     19  C   UNL     1      48.914   5.201  17.329  0.00  0.00    +0.000 A 
ATOM     20  O   UNL     1      48.537   4.797  16.233  0.00  0.00    +0.000 OA
ATOM     21  C   UNL     1      49.404   6.544  17.580  0.00  0.00    +0.000 A 
ATOM     22  H   UNL     1      48.616   3.430  18.278  0.00  0.00    +0.000 HD
ENDBRANCH   9  12
ENDBRANCH   7  10
ENDBRANCH   1   7
BRANCH   4  23
ATOM     23  C   UNL     1      43.476   4.959  12.388  0.00  0.00    +0.000 C 
BRANCH  23  24
ATOM     24  O   UNL     1      42.581   5.276  13.457  0.00  0.00    +0.000 OA
ATOM     25  H   UNL     1      42.890   4.740  14.212  0.00  0.00    +0.000 HD
ENDBRANCH  23  24
BRANCH  23  26
ATOM     26  C   UNL     1      43.685   3.419  12.286  0.00  0.00    +0.000 C 
BRANCH  26  27
ATOM     27  N   UNL     1      44.686   2.953  11.299  0.00  0.00    +0.000 NA
ATOM     28  H   UNL     1      44.955   1.997  11.515  0.00  0.00    +0.000 HD
BRANCH  27  29
ATOM     29  C   UNL     1      44.149   3.039   9.922  0.00  0.00    +0.000 C 
ATOM     30  C   UNL     1      44.487   1.799   9.110  0.00  0.00    +0.000 C 
ATOM     31  C   UNL     1      45.869   2.108   8.580  0.00  0.00    +0.000 C 
ATOM     32  O   UNL     1      45.890   3.515   8.315  0.00  0.00    +0.000 OA
ATOM     33  C   UNL     1      44.808   4.119   9.046  0.00  0.00    +0.000 C 
ENDBRANCH  27  29
ENDBRANCH  26  27
ENDBRANCH  23  26
ENDBRANCH   4  23
TORSDOF 8
ENDMDL
MODEL 5
REMARK VINA RESULT:    -6.915      3.561      8.220
REMARK INTER + INTRA:         -11.194
REMARK INTER:                  -9.742
REMARK INTRA:                  -1.452
REMARK UNBOUND:                -1.248
REMARK  Name = 
REMARK  8 active torsions:
REMARK  status: ('A' for Active; 'I' for Inactive)
REMARK    1  A    between atoms: C_2  and  C_20
REMARK    2  A    between atoms: N_3  and  C_4
REMARK    3  A    between atoms: C_4  and  C_5
REMARK    4  A    between atoms: C_8  and  C_9
REMARK    5  A    between atoms: C_9  and  O_10
REMARK    6  A    between atoms: C_9  and  C_11
REMARK    7  A    between atoms: C_11  and  N_12
REMARK    8  A    between atoms: N_12  and  C_13
REMARK                            x       y       z     vdW  Elec       q    Type
REMARK                         _______ _______ _______ _____ _____    ______ ____
ROOT
ATOM      1  C   UNL     1      49.000   7.679  13.298  0.00  0.00    +0.000 A 
ATOM      2  C   UNL     1      50.246   8.266  13.526  0.00  0.00    +0.000 A 
ATOM      3  C   UNL     1      50.965   7.950  14.680  0.00  0.00    +0.000 A 
ATOM      4  C   UNL     1      50.423   7.038  15.581  0.00  0.00    +0.000 A 
ATOM      5  N   UNL     1      49.250   6.393  15.337  0.00  0.00    +0.000 NA
ATOM      6  C   UNL     1      48.574   6.723  14.211  0.00  0.00    +0.000 A 
ENDROOT
BRANCH   1   7
ATOM      7  C   UNL     1      48.151   8.064  12.123  0.00  0.00    +0.000 C 
BRANCH   7  10
ATOM      8  O   UNL     1      45.371   7.871  11.754  0.00  0.00    +0.000 OA
ATOM      9  C   UNL     1      46.083   6.940  11.391  0.00  0.00    +0.000 C 
ATOM     10  N   UNL     1      47.441   6.938  11.579  0.00  0.00    +0.000 N 
ATOM     11  H   UNL     1      48.003   6.217  11.140  0.00  0.00    +0.000 HD
BRANCH   9  12
ATOM     12  C   UNL     1      45.519   5.740  10.762  0.00  0.00    +0.000 A 
ATOM     13  C   UNL     1      45.780   5.474   9.426  0.00  0.00    +0.000 A 
ATOM     14  S   UNL     1      45.072   4.027   8.867  0.00  0.00    +0.000 S 
ATOM     15  C   UNL     1      44.423   3.687  10.403  0.00  0.00    +0.000 A 
ATOM     16  N   UNL     1      43.729   2.541  10.632  0.00  0.00    +0.000 NA
ATOM     17  C   UNL     1      43.330   2.392  11.851  0.00  0.00    +0.000 A 
ATOM     18  N   UNL     1      43.542   3.296  12.859  0.00  0.00    +0.000 N 
ATOM     19  C   UNL     1      44.162   4.506  12.654  0.00  0.00    +0.000 A 
ATOM     20  O   UNL     1      44.195   5.361  13.534  0.00  0.00    +0.000 OA
ATOM     21  C   UNL     1      44.698   4.689  11.317  0.00  0.00    +0.000 A 
ATOM     22  H   UNL     1      43.168   3.138  13.779  0.00  0.00    +0.000 HD
ENDBRANCH   9  12
ENDBRANCH   7  10
ENDBRANCH   1   7
BRANCH   4  23
ATOM     23  C   UNL     1      51.094   6.758  16.922  0.00  0.00    +0.000 C 
BRANCH  23  24
ATOM     24  O   UNL     1      52.418   6.272  16.684  0.00  0.00    +0.000 OA
ATOM     25  H   UNL     1      52.487   6.197  15.713  0.00  0.00    +0.000 HD
ENDBRANCH  23  24
BRANCH  23  26
ATOM     26  C   UNL     1      50.248   5.694  17.683  0.00  0.00    +0.000 C 
BRANCH  26  27
ATOM     27  N   UNL     1      50.292   4.313  17.150  0.00  0.00    +0.000 NA
ATOM     28  H   UNL     1      51.206   3.908  17.333  0.00  0.00    +0.000 HD
BRANCH  27  29
ATOM     29  C   UNL     1      49.228   3.479  17.754  0.00  0.00    +0.000 C 
ATOM     30  C   UNL     1      48.578   2.568  16.726  0.00  0.00    +0.000 C 
ATOM     31  C   UNL     1      47.519   3.454  16.109  0.00  0.00    +0.000 C 
ATOM     32  O   UNL     1      47.026   4.282  17.168  0.00  0.00    +0.000 OA
ATOM     33  C   UNL     1      47.994   4.265  18.231  0.00  0.00    +0.000 C 
ENDBRANCH  27  29
ENDBRANCH  26  27
ENDBRANCH  23  26
ENDBRANCH   4  23
TORSDOF 8
ENDMDL
MODEL 6
REMARK VINA RESULT:    -6.902      2.942      8.374
REMARK INTER + INTRA:         -11.177
REMARK INTER:                  -9.777
REMARK INTRA:                  -1.399
REMARK UNBOUND:                -1.248
REMARK  Name = 
REMARK  8 active torsions:
REMARK  status: ('A' for Active; 'I' for Inactive)
REMARK    1  A    between atoms: C_2  and  C_20
REMARK    2  A    between atoms: N_3  and  C_4
REMARK    3  A    between atoms: C_4  and  C_5
REMARK    4  A    between atoms: C_8  and  C_9
REMARK    5  A    between atoms: C_9  and  O_10
REMARK    6  A    between atoms: C_9  and  C_11
REMARK    7  A    between atoms: C_11  and  N_12
REMARK    8  A    between atoms: N_12  and  C_13
REMARK                            x       y       z     vdW  Elec       q    Type
REMARK                         _______ _______ _______ _____ _____    ______ ____
ROOT
ATOM      1  C   UNL     1      47.817   8.068  13.193  0.00  0.00    +0.000 A 
ATOM      2  C   UNL     1      47.851   9.061  14.173  0.00  0.00    +0.000 A 
ATOM      3  C   UNL     1      48.779   8.984  15.214  0.00  0.00    +0.000 A 
ATOM      4  C   UNL     1      49.667   7.913  15.244  0.00  0.00    +0.000 A 
ATOM      5  N   UNL     1      49.705   6.979  14.254  0.00  0.00    +0.000 NA
ATOM      6  C   UNL     1      48.790   7.079  13.261  0.00  0.00    +0.000 A 
ENDROOT
BRANCH   1   7
ATOM      7  C   UNL     1      46.774   8.059  12.116  0.00  0.00    +0.000 C 
BRANCH   7  10
ATOM      8  O   UNL     1      44.108   7.447  11.465  0.00  0.00    +0.000 OA
ATOM      9  C   UNL     1      44.924   6.534  11.544  0.00  0.00    +0.000 C 
ATOM     10  N   UNL     1      46.230   6.745  11.903  0.00  0.00    +0.000 N 
ATOM     11  H   UNL     1      46.898   5.986  11.820  0.00  0.00    +0.000 HD
BRANCH   9  12
ATOM     12  C   UNL     1      44.542   5.138  11.298  0.00  0.00    +0.000 A 
ATOM     13  C   UNL     1      43.787   4.454  12.239  0.00  0.00    +0.000 A 
ATOM     14  S   UNL     1      43.409   2.856  11.780  0.00  0.00    +0.000 S 
ATOM     15  C   UNL     1      44.211   3.037  10.289  0.00  0.00    +0.000 A 
ATOM     16  N   UNL     1      44.221   2.032   9.374  0.00  0.00    +0.000 NA
ATOM     17  C   UNL     1      44.829   2.320   8.272  0.00  0.00    +0.000 A 
ATOM     18  N   UNL     1      45.448   3.513   8.009  0.00  0.00    +0.000 N 
ATOM     19  C   UNL     1      45.537   4.525   8.937  0.00  0.00    +0.000 A 
ATOM     20  O   UNL     1      46.233   5.515   8.733  0.00  0.00    +0.000 OA
ATOM     21  C   UNL     1      44.803   4.281  10.165  0.00  0.00    +0.000 A 
ATOM     22  H   UNL     1      45.941   3.658   7.144  0.00  0.00    +0.000 HD
ENDBRANCH   9  12
ENDBRANCH   7  10
ENDBRANCH   1   7
BRANCH   4  23
ATOM     23  C   UNL     1      50.609   7.700  16.424  0.00  0.00    +0.000 C 
BRANCH  23  24
ATOM     24  O   UNL     1      51.895   7.323  15.927  0.00  0.00    +0.000 OA
ATOM     25  H   UNL     1      52.356   8.167  15.757  0.00  0.00    +0.000 HD
ENDBRANCH  23  24
BRANCH  23  26
ATOM     26  C   UNL     1      50.020   6.577  17.328  0.00  0.00    +0.000 C 
BRANCH  26  27
ATOM     27  N   UNL     1      49.713   5.289  16.663  0.00  0.00    +0.000 NA
ATOM     28  H   UNL     1      50.368   4.580  16.980  0.00  0.00    +0.000 HD
BRANCH  27  29
ATOM     29  C   UNL     1      48.321   4.868  16.944  0.00  0.00    +0.000 C 
ATOM     30  C   UNL     1      48.275   3.543  17.688  0.00  0.00    +0.000 C 
ATOM     31  C   UNL     1      48.347   2.526  16.571  0.00  0.00    +0.000 C 
ATOM     32  O   UNL     1      47.616   3.085  15.474  0.00  0.00    +0.000 OA
ATOM     33  C   UNL     1      47.501   4.502  15.695  0.00  0.00    +0.000 C 
ENDBRANCH  27  29
ENDBRANCH  26  27
ENDBRANCH  23  26
ENDBRANCH   4  23
TORSDOF 8
ENDMDL
MODEL 7
REMARK VINA RESULT:    -6.343      3.616      8.142
REMARK INTER + INTRA:         -10.373
REMARK INTER:                  -9.570
REMARK INTRA:                  -0.802
REMARK UNBOUND:                -1.248
REMARK  Name = 
REMARK  8 active torsions:
REMARK  status: ('A' for Active; 'I' for Inactive)
REMARK    1  A    between atoms: C_2  and  C_20
REMARK    2  A    between atoms: N_3  and  C_4
REMARK    3  A    between atoms: C_4  and  C_5
REMARK    4  A    between atoms: C_8  and  C_9
REMARK    5  A    between atoms: C_9  and  O_10
REMARK    6  A    between atoms: C_9  and  C_11
REMARK    7  A    between atoms: C_11  and  N_12
REMARK    8  A    between atoms: N_12  and  C_13
REMARK                            x       y       z     vdW  Elec       q    Type
REMARK                         _______ _______ _______ _____ _____    ______ ____
ROOT
ATOM      1  C   UNL     1      49.022   8.130  14.545  0.00  0.00    +0.000 A 
ATOM      2  C   UNL     1      48.247   9.020  15.290  0.00  0.00    +0.000 A 
ATOM      3  C   UNL     1      48.266   8.964  16.685  0.00  0.00    +0.000 A 
ATOM      4  C   UNL     1      49.075   8.018  17.308  0.00  0.00    +0.000 A 
ATOM      5  N   UNL     1      49.900   7.197  16.602  0.00  0.00    +0.000 NA
ATOM      6  C   UNL     1      49.856   7.273  15.251  0.00  0.00    +0.000 A 
ENDROOT
BRANCH   1   7
ATOM      7  C   UNL     1      48.955   8.091  13.046  0.00  0.00    +0.000 C 
BRANCH   7  10
ATOM      8  O   UNL     1      47.953   5.467  13.164  0.00  0.00    +0.000 OA
ATOM      9  C   UNL     1      47.238   6.356  12.710  0.00  0.00    +0.000 C 
ATOM     10  N   UNL     1      47.671   7.649  12.576  0.00  0.00    +0.000 N 
ATOM     11  H   UNL     1      47.005   8.374  12.329  0.00  0.00    +0.000 HD
BRANCH   9  12
ATOM     12  C   UNL     1      45.875   6.081  12.239  0.00  0.00    +0.000 A 
ATOM     13  C   UNL     1      45.111   7.107  11.703  0.00  0.00    +0.000 A 
ATOM     14  S   UNL     1      43.567   6.607  11.181  0.00  0.00    +0.000 S 
ATOM     15  C   UNL     1      43.881   4.993  11.620  0.00  0.00    +0.000 A 
ATOM     16  N   UNL     1      42.968   4.014  11.387  0.00  0.00    +0.000 NA
ATOM     17  C   UNL     1      43.353   2.830  11.731  0.00  0.00    +0.000 A 
ATOM     18  N   UNL     1      44.561   2.539  12.308  0.00  0.00    +0.000 N 
ATOM     19  C   UNL     1      45.479   3.507  12.641  0.00  0.00    +0.000 A 
ATOM     20  O   UNL     1      46.479   3.236  13.300  0.00  0.00    +0.000 OA
ATOM     21  C   UNL     1      45.127   4.846  12.204  0.00  0.00    +0.000 A 
ATOM     22  H   UNL     1      44.783   1.599  12.591  0.00  0.00    +0.000 HD
ENDBRANCH   9  12
ENDBRANCH   7  10
ENDBRANCH   1   7
BRANCH   4  23
ATOM     23  C   UNL     1      49.035   7.815  18.819  0.00  0.00    +0.000 C 
BRANCH  23  24
ATOM     24  O   UNL     1      50.350   7.492  19.277  0.00  0.00    +0.000 OA
ATOM     25  H   UNL     1      50.252   6.640  19.742  0.00  0.00    +0.000 HD
ENDBRANCH  23  24
BRANCH  23  26
ATOM     26  C   UNL     1      48.044   6.656  19.134  0.00  0.00    +0.000 C 
BRANCH  26  27
ATOM     27  N   UNL     1      47.495   5.924  17.970  0.00  0.00    +0.000 NA
ATOM     28  H   UNL     1      48.039   6.147  17.141  0.00  0.00    +0.000 HD
BRANCH  27  29
ATOM     29  C   UNL     1      47.500   4.463  18.213  0.00  0.00    +0.000 C 
ATOM     30  C   UNL     1      48.835   3.993  18.768  0.00  0.00    +0.000 C 
ATOM     31  C   UNL     1      49.662   3.778  17.520  0.00  0.00    +0.000 C 
ATOM     32  O   UNL     1      48.762   3.283  16.523  0.00  0.00    +0.000 OA
ATOM     33  C   UNL     1      47.422   3.603  16.939  0.00  0.00    +0.000 C 
ENDBRANCH  27  29
ENDBRANCH  26  27
ENDBRANCH  23  26
ENDBRANCH   4  23
TORSDOF 8
ENDMDL
MODEL 8
REMARK VINA RESULT:    -6.309      3.089      4.381
REMARK INTER + INTRA:         -10.323
REMARK INTER:                  -8.852
REMARK INTRA:                  -1.471
REMARK UNBOUND:                -1.248
REMARK  Name = 
REMARK  8 active torsions:
REMARK  status: ('A' for Active; 'I' for Inactive)
REMARK    1  A    between atoms: C_2  and  C_20
REMARK    2  A    between atoms: N_3  and  C_4
REMARK    3  A    between atoms: C_4  and  C_5
REMARK    4  A    between atoms: C_8  and  C_9
REMARK    5  A    between atoms: C_9  and  O_10
REMARK    6  A    between atoms: C_9  and  C_11
REMARK    7  A    between atoms: C_11  and  N_12
REMARK    8  A    between atoms: N_12  and  C_13
REMARK                            x       y       z     vdW  Elec       q    Type
REMARK                         _______ _______ _______ _____ _____    ______ ____
ROOT
ATOM      1  C   UNL     1      49.175   8.257  13.223  0.00  0.00    +0.000 A 
ATOM      2  C   UNL     1      48.613   7.326  12.349  0.00  0.00    +0.000 A 
ATOM      3  C   UNL     1      47.342   7.547  11.815  0.00  0.00    +0.000 A 
ATOM      4  C   UNL     1      46.662   8.711  12.161  0.00  0.00    +0.000 A 
ATOM      5  N   UNL     1      47.226   9.670  12.945  0.00  0.00    +0.000 NA
ATOM      6  C   UNL     1      48.457   9.425  13.451  0.00  0.00    +0.000 A 
ENDROOT
BRANCH   1   7
ATOM      7  C   UNL     1      50.493   8.011  13.896  0.00  0.00    +0.000 C 
BRANCH   7  10
ATOM      8  O   UNL     1      49.823   8.480  16.585  0.00  0.00    +0.000 OA
ATOM      9  C   UNL     1      50.016   7.326  16.214  0.00  0.00    +0.000 C 
ATOM     10  N   UNL     1      50.392   7.020  14.932  0.00  0.00    +0.000 N 
ATOM     11  H   UNL     1      50.404   6.051  14.634  0.00  0.00    +0.000 HD
BRANCH   9  12
ATOM     12  C   UNL     1      49.895   6.191  17.137  0.00  0.00    +0.000 A 
ATOM     13  C   UNL     1      50.717   6.118  18.252  0.00  0.00    +0.000 A 
ATOM     14  S   UNL     1      50.423   4.752  19.229  0.00  0.00    +0.000 S 
ATOM     15  C   UNL     1      49.160   4.231  18.214  0.00  0.00    +0.000 A 
ATOM     16  N   UNL     1      48.434   3.122  18.514  0.00  0.00    +0.000 NA
ATOM     17  C   UNL     1      47.481   2.865  17.682  0.00  0.00    +0.000 A 
ATOM     18  N   UNL     1      47.201   3.604  16.563  0.00  0.00    +0.000 N 
ATOM     19  C   UNL     1      47.961   4.681  16.174  0.00  0.00    +0.000 A 
ATOM     20  O   UNL     1      47.787   5.224  15.087  0.00  0.00    +0.000 OA
ATOM     21  C   UNL     1      48.999   5.058  17.117  0.00  0.00    +0.000 A 
ATOM     22  H   UNL     1      46.469   3.325  15.932  0.00  0.00    +0.000 HD
ENDBRANCH   9  12
ENDBRANCH   7  10
ENDBRANCH   1   7
BRANCH   4  23
ATOM     23  C   UNL     1      45.220   8.945  11.722  0.00  0.00    +0.000 C 
BRANCH  23  24
ATOM     24  O   UNL     1      44.525   9.633  12.765  0.00  0.00    +0.000 OA
ATOM     25  H   UNL     1      44.924  10.524  12.788  0.00  0.00    +0.000 HD
ENDBRANCH  23  24
BRANCH  23  26
ATOM     26  C   UNL     1      44.560   7.562  11.444  0.00  0.00    +0.000 C 
BRANCH  26  27
ATOM     27  N   UNL     1      44.125   6.788  12.630  0.00  0.00    +0.000 NA
ATOM     28  H   UNL     1      43.494   7.355  13.190  0.00  0.00    +0.000 HD
BRANCH  27  29
ATOM     29  C   UNL     1      43.463   5.527  12.225  0.00  0.00    +0.000 C 
ATOM     30  C   UNL     1      43.938   4.351  13.063  0.00  0.00    +0.000 C 
ATOM     31  C   UNL     1      45.195   3.911  12.345  0.00  0.00    +0.000 C 
ATOM     32  O   UNL     1      44.948   4.112  10.949  0.00  0.00    +0.000 OA
ATOM     33  C   UNL     1      43.846   5.027  10.821  0.00  0.00    +0.000 C 
ENDBRANCH  27  29
ENDBRANCH  26  27
ENDBRANCH  23  26
ENDBRANCH   4  23
TORSDOF 8
ENDMDL
MODEL 9
REMARK VINA RESULT:    -6.065      3.850      8.733
REMARK INTER + INTRA:          -9.972
REMARK INTER:                  -9.135
REMARK INTRA:                  -0.836
REMARK UNBOUND:                -1.248
REMARK  Name = 
REMARK  8 active torsions:
REMARK  status: ('A' for Active; 'I' for Inactive)
REMARK    1  A    between atoms: C_2  and  C_20
REMARK    2  A    between atoms: N_3  and  C_4
REMARK    3  A    between atoms: C_4  and  C_5
REMARK    4  A    between atoms: C_8  and  C_9
REMARK    5  A    between atoms: C_9  and  O_10
REMARK    6  A    between atoms: C_9  and  C_11
REMARK    7  A    between atoms: C_11  and  N_12
REMARK    8  A    between atoms: N_12  and  C_13
REMARK                            x       y       z     vdW  Elec       q    Type
REMARK                         _______ _______ _______ _____ _____    ______ ____
ROOT
ATOM      1  C   UNL     1      48.906   6.563  15.405  0.00  0.00    +0.000 A 
ATOM      2  C   UNL     1      50.158   6.778  15.982  0.00  0.00    +0.000 A 
ATOM      3  C   UNL     1      50.640   5.897  16.953  0.00  0.00    +0.000 A 
ATOM      4  C   UNL     1      49.856   4.806  17.317  0.00  0.00    +0.000 A 
ATOM      5  N   UNL     1      48.671   4.533  16.708  0.00  0.00    +0.000 NA
ATOM      6  C   UNL     1      48.229   5.408  15.773  0.00  0.00    +0.000 A 
ENDROOT
BRANCH   1   7
ATOM      7  C   UNL     1      48.308   7.537  14.433  0.00  0.00    +0.000 C 
BRANCH   7  10
ATOM      8  O   UNL     1      47.728   7.072  11.722  0.00  0.00    +0.000 OA
ATOM      9  C   UNL     1      46.870   6.824  12.563  0.00  0.00    +0.000 C 
ATOM     10  N   UNL     1      47.059   7.069  13.899  0.00  0.00    +0.000 N 
ATOM     11  H   UNL     1      46.382   6.721  14.569  0.00  0.00    +0.000 HD
BRANCH   9  12
ATOM     12  C   UNL     1      45.558   6.284  12.188  0.00  0.00    +0.000 A 
ATOM     13  C   UNL     1      44.608   7.116  11.613  0.00  0.00    +0.000 A 
ATOM     14  S   UNL     1      43.155   6.319  11.214  0.00  0.00    +0.000 S 
ATOM     15  C   UNL     1      43.760   4.825  11.760  0.00  0.00    +0.000 A 
ATOM     16  N   UNL     1      43.021   3.690  11.652  0.00  0.00    +0.000 NA
ATOM     17  C   UNL     1      43.617   2.622  12.067  0.00  0.00    +0.000 A 
ATOM     18  N   UNL     1      44.879   2.590  12.601  0.00  0.00    +0.000 N 
ATOM     19  C   UNL     1      45.628   3.724  12.808  0.00  0.00    +0.000 A 
ATOM     20  O   UNL     1      46.684   3.683  13.433  0.00  0.00    +0.000 OA
ATOM     21  C   UNL     1      45.033   4.942  12.288  0.00  0.00    +0.000 A 
ATOM     22  H   UNL     1      45.270   1.729  12.944  0.00  0.00    +0.000 HD
ENDBRANCH   9  12
ENDBRANCH   7  10
ENDBRANCH   1   7
BRANCH   4  23
ATOM     23  C   UNL     1      50.265   3.889  18.466  0.00  0.00    +0.000 C 
BRANCH  23  24
ATOM     24  O   UNL     1      49.676   4.373  19.675  0.00  0.00    +0.000 OA
ATOM     25  H   UNL     1      50.203   5.158  19.915  0.00  0.00    +0.000 HD
ENDBRANCH  23  24
BRANCH  23  26
ATOM     26  C   UNL     1      51.818   3.895  18.571  0.00  0.00    +0.000 C 
BRANCH  26  27
ATOM     27  N   UNL     1      52.465   2.592  18.851  0.00  0.00    +0.000 NA
ATOM     28  H   UNL     1      51.759   1.918  19.134  0.00  0.00    +0.000 HD
BRANCH  27  29
ATOM     29  C   UNL     1      53.201   2.101  17.664  0.00  0.00    +0.000 C 
ATOM     30  C   UNL     1      53.211   0.583  17.599  0.00  0.00    +0.000 C 
ATOM     31  C   UNL     1      54.391   0.215  18.470  0.00  0.00    +0.000 C 
ATOM     32  O   UNL     1      55.375   1.232  18.260  0.00  0.00    +0.000 OA
ATOM     33  C   UNL     1      54.714   2.377  17.692  0.00  0.00    +0.000 C 
ENDBRANCH  27  29
ENDBRANCH  26  27
ENDBRANCH  23  26
ENDBRANCH   4  23
TORSDOF 8
ENDMDL
