MODEL 1
REMARK VINA RESULT:    -8.358      0.000      0.000
REMARK INTER + INTRA:         -13.697
REMARK INTER:                 -12.267
REMARK INTRA:                  -1.429
REMARK UNBOUND:                -1.429
REMARK  Name = 
REMARK  10 active torsions:
REMARK  status: ('A' for Active; 'I' for Inactive)
REMARK    1  A    between atoms: C_1  and  O_2
REMARK    2  A    between atoms: O_2  and  C_3
REMARK    3  A    between atoms: C_10  and  C_11
REMARK    4  A    between atoms: N_13  and  C_14
REMARK    5  A    between atoms: C_14  and  C_15
REMARK    6  A    between atoms: C_18  and  C_19
REMARK    7  A    between atoms: C_19  and  N_20
REMARK    8  A    between atoms: N_20  and  C_21
REMARK    9  A    between atoms: C_21  and  C_22
REMARK   10  A    between atoms: C_21  and  C_23
REMARK                            x       y       z     vdW  Elec       q    Type
REMARK                         _______ _______ _______ _____ _____    ______ ____
ROOT
ATOM      1  C   UNL     1      46.220   7.199  12.544  0.00  0.00    +0.000 A 
ATOM      2  C   UNL     1      44.878   6.981  12.881  0.00  0.00    +0.000 A 
ATOM      3  C   UNL     1      44.054   6.206  12.057  0.00  0.00    +0.000 A 
ATOM      4  C   UNL     1      44.553   5.626  10.881  0.00  0.00    +0.000 A 
ATOM      5  C   UNL     1      45.904   5.818  10.565  0.00  0.00    +0.000 A 
ATOM      6  C   UNL     1      46.730   6.591  11.390  0.00  0.00    +0.000 A 
ENDROOT
BRANCH   1   7
ATOM      7  C   UNL     1      47.112   8.038  13.425  0.00  0.00    +0.000 C 
BRANCH   7  10
ATOM      8  C   UNL     1      48.827   6.830  14.706  0.00  0.00    +0.000 C 
ATOM      9  O   UNL     1      49.663   7.010  13.819  0.00  0.00    +0.000 OA
ATOM     10  N   UNL     1      47.551   7.298  14.581  0.00  0.00    +0.000 N 
ATOM     11  H   UNL     1      46.854   7.064  15.275  0.00  0.00    +0.000 HD
BRANCH   8  19
ATOM     12  C   UNL     1      47.361   4.224  16.412  0.00  0.00    +0.000 A 
ATOM     13  N   UNL     1      46.976   3.279  17.293  0.00  0.00    +0.000 NA
ATOM     14  C   UNL     1      47.711   3.110  18.395  0.00  0.00    +0.000 A 
ATOM     15  N   UNL     1      48.813   3.773  18.733  0.00  0.00    +0.000 NA
ATOM     16  C   UNL     1      49.162   4.705  17.829  0.00  0.00    +0.000 A 
ATOM     17  S   UNL     1      50.553   5.644  18.091  0.00  0.00    +0.000 S 
ATOM     18  C   UNL     1      50.303   6.506  16.649  0.00  0.00    +0.000 A 
ATOM     19  C   UNL     1      49.170   6.112  15.945  0.00  0.00    +0.000 A 
ATOM     20  C   UNL     1      48.502   5.014  16.643  0.00  0.00    +0.000 A 
BRANCH  12  22
ATOM     21  C   UNL     1      47.152   3.523  14.187  0.00  0.00    +0.000 C 
ATOM     22  O   UNL     1      46.648   4.344  15.238  0.00  0.00    +0.000 OA
ENDBRANCH  12  22
ENDBRANCH   8  19
ENDBRANCH   7  10
ENDBRANCH   1   7
BRANCH   4  23
ATOM     23  C   UNL     1      43.663   4.778   9.995  0.00  0.00    +0.000 C 
BRANCH  23  24
ATOM     24  N   UNL     1      44.389   4.268   8.831  0.00  0.00    +0.000 NA
ATOM     25  H   UNL     1      45.058   4.979   8.533  0.00  0.00    +0.000 HD
BRANCH  24  26
ATOM     26  C   UNL     1      45.134   3.025   9.092  0.00  0.00    +0.000 C 
ATOM     27  C   UNL     1      44.217   1.825   9.369  0.00  0.00    +0.000 C 
BRANCH  26  28
ATOM     28  C   UNL     1      46.039   2.705   7.906  0.00  0.00    +0.000 A 
ATOM     29  C   UNL     1      46.719   1.479   7.829  0.00  0.00    +0.000 A 
ATOM     30  C   UNL     1      47.524   1.177   6.725  0.00  0.00    +0.000 A 
ATOM     31  C   UNL     1      47.660   2.096   5.686  0.00  0.00    +0.000 A 
ATOM     32  C   UNL     1      46.998   3.319   5.751  0.00  0.00    +0.000 A 
ATOM     33  C   UNL     1      46.197   3.622   6.853  0.00  0.00    +0.000 A 
ENDBRANCH  26  28
ENDBRANCH  24  26
ENDBRANCH  23  24
ENDBRANCH   4  23
TORSDOF 8
ENDMDL
MODEL 2
REMARK VINA RESULT:    -7.859      1.848      2.274
REMARK INTER + INTRA:         -12.963
REMARK INTER:                 -11.916
REMARK INTRA:                  -1.048
REMARK UNBOUND:                -1.429
REMARK  Name = 
REMARK  10 active torsions:
REMARK  status: ('A' for Active; 'I' for Inactive)
REMARK    1  A    between atoms: C_1  and  O_2
REMARK    2  A    between atoms: O_2  and  C_3
REMARK    3  A    between atoms: C_10  and  C_11
REMARK    4  A    between atoms: N_13  and  C_14
REMARK    5  A    between atoms: C_14  and  C_15
REMARK    6  A    between atoms: C_18  and  C_19
REMARK    7  A    between atoms: C_19  and  N_20
REMARK    8  A    between atoms: N_20  and  C_21
REMARK    9  A    between atoms: C_21  and  C_22
REMARK   10  A    between atoms: C_21  and  C_23
REMARK                            x       y       z     vdW  Elec       q    Type
REMARK                         _______ _______ _______ _____ _____    ______ ____
ROOT
ATOM      1  C   UNL     1      47.363   6.155  13.258  0.00  0.00    +0.000 A 
ATOM      2  C   UNL     1      46.544   6.540  12.188  0.00  0.00    +0.000 A 
ATOM      3  C   UNL     1      45.589   5.657  11.670  0.00  0.00    +0.000 A 
ATOM      4  C   UNL     1      45.426   4.373  12.212  0.00  0.00    +0.000 A 
ATOM      5  C   UNL     1      46.224   4.004  13.303  0.00  0.00    +0.000 A 
ATOM      6  C   UNL     1      47.177   4.887  13.824  0.00  0.00    +0.000 A 
ENDROOT
BRANCH   1   7
ATOM      7  C   UNL     1      48.398   7.098  13.817  0.00  0.00    +0.000 C 
BRANCH   7  10
ATOM      8  C   UNL     1      49.355   6.930  16.075  0.00  0.00    +0.000 C 
ATOM      9  O   UNL     1      50.447   6.583  15.622  0.00  0.00    +0.000 OA
ATOM     10  N   UNL     1      48.298   7.193  15.252  0.00  0.00    +0.000 N 
ATOM     11  H   UNL     1      47.387   7.387  15.643  0.00  0.00    +0.000 HD
BRANCH   8  19
ATOM     12  C   UNL     1      48.910   4.695  18.656  0.00  0.00    +0.000 A 
ATOM     13  N   UNL     1      48.659   4.061  19.819  0.00  0.00    +0.000 NA
ATOM     14  C   UNL     1      48.446   4.804  20.908  0.00  0.00    +0.000 A 
ATOM     15  N   UNL     1      48.460   6.132  20.987  0.00  0.00    +0.000 NA
ATOM     16  C   UNL     1      48.712   6.725  19.807  0.00  0.00    +0.000 A 
ATOM     17  S   UNL     1      48.778   8.420  19.721  0.00  0.00    +0.000 S 
ATOM     18  C   UNL     1      49.089   8.372  18.052  0.00  0.00    +0.000 A 
ATOM     19  C   UNL     1      49.144   7.087  17.525  0.00  0.00    +0.000 A 
ATOM     20  C   UNL     1      48.943   6.100  18.584  0.00  0.00    +0.000 A 
BRANCH  12  22
ATOM     21  C   UNL     1      48.084   3.215  17.041  0.00  0.00    +0.000 C 
ATOM     22  O   UNL     1      49.208   3.927  17.551  0.00  0.00    +0.000 OA
ENDBRANCH  12  22
ENDBRANCH   8  19
ENDBRANCH   7  10
ENDBRANCH   1   7
BRANCH   4  23
ATOM     23  C   UNL     1      44.385   3.422  11.656  0.00  0.00    +0.000 C 
BRANCH  23  24
ATOM     24  N   UNL     1      44.953   2.533  10.642  0.00  0.00    +0.000 NA
ATOM     25  H   UNL     1      44.694   1.574  10.876  0.00  0.00    +0.000 HD
BRANCH  24  26
ATOM     26  C   UNL     1      44.482   2.811   9.275  0.00  0.00    +0.000 C 
ATOM     27  C   UNL     1      43.992   4.254   9.094  0.00  0.00    +0.000 C 
BRANCH  26  28
ATOM     28  C   UNL     1      45.599   2.528   8.276  0.00  0.00    +0.000 A 
ATOM     29  C   UNL     1      46.215   1.267   8.221  0.00  0.00    +0.000 A 
ATOM     30  C   UNL     1      47.219   1.003   7.283  0.00  0.00    +0.000 A 
ATOM     31  C   UNL     1      47.620   1.995   6.389  0.00  0.00    +0.000 A 
ATOM     32  C   UNL     1      47.025   3.251   6.435  0.00  0.00    +0.000 A 
ATOM     33  C   UNL     1      46.026   3.517   7.373  0.00  0.00    +0.000 A 
ENDBRANCH  26  28
ENDBRANCH  24  26
ENDBRANCH  23  24
ENDBRANCH   4  23
TORSDOF 8
ENDMDL
MODEL 3
REMARK VINA RESULT:    -7.824      2.215      2.871
REMARK INTER + INTRA:         -12.913
REMARK INTER:                 -11.707
REMARK INTRA:                  -1.205
REMARK UNBOUND:                -1.429
REMARK  Name = 
REMARK  10 active torsions:
REMARK  status: ('A' for Active; 'I' for Inactive)
REMARK    1  A    between atoms: C_1  and  O_2
REMARK    2  A    between atoms: O_2  and  C_3
REMARK    3  A    between atoms: C_10  and  C_11
REMARK    4  A    between atoms: N_13  and  C_14
REMARK    5  A    between atoms: C_14  and  C_15
REMARK    6  A    between atoms: C_18  and  C_19
REMARK    7  A    between atoms: C_19  and  N_20
REMARK    8  A    between atoms: N_20  and  C_21
REMARK    9  A    between atoms: C_21  and  C_22
REMARK   10  A    between atoms: C_21  and  C_23
REMARK                            x       y       z     vdW  Elec       q    Type
REMARK                         _______ _______ _______ _____ _____    ______ ____
ROOT
ATOM      1  C   UNL     1      46.999   6.200  12.904  0.00  0.00    +0.000 A 
ATOM      2  C   UNL     1      46.103   5.229  13.371  0.00  0.00    +0.000 A 
ATOM      3  C   UNL     1      45.032   4.808  12.574  0.00  0.00    +0.000 A 
ATOM      4  C   UNL     1      44.835   5.342  11.292  0.00  0.00    +0.000 A 
ATOM      5  C   UNL     1      45.751   6.289  10.816  0.00  0.00    +0.000 A 
ATOM      6  C   UNL     1      46.825   6.709  11.610  0.00  0.00    +0.000 A 
ENDROOT
BRANCH   1   7
ATOM      7  C   UNL     1      48.151   6.664  13.759  0.00  0.00    +0.000 C 
BRANCH   7  10
ATOM      8  C   UNL     1      49.012   6.234  16.022  0.00  0.00    +0.000 C 
ATOM      9  O   UNL     1      50.157   6.531  15.677  0.00  0.00    +0.000 OA
ATOM     10  N   UNL     1      47.975   6.268  15.134  0.00  0.00    +0.000 N 
ATOM     11  H   UNL     1      47.062   5.934  15.408  0.00  0.00    +0.000 HD
BRANCH   8  19
ATOM     12  C   UNL     1      47.866   7.959  18.772  0.00  0.00    +0.000 A 
ATOM     13  N   UNL     1      47.493   8.389  19.993  0.00  0.00    +0.000 NA
ATOM     14  C   UNL     1      47.479   7.505  20.994  0.00  0.00    +0.000 A 
ATOM     15  N   UNL     1      47.790   6.214  20.927  0.00  0.00    +0.000 NA
ATOM     16  C   UNL     1      48.157   5.826  19.694  0.00  0.00    +0.000 A 
ATOM     17  S   UNL     1      48.580   4.205  19.418  0.00  0.00    +0.000 S 
ATOM     18  C   UNL     1      48.905   4.516  17.780  0.00  0.00    +0.000 A 
ATOM     19  C   UNL     1      48.708   5.841  17.408  0.00  0.00    +0.000 A 
ATOM     20  C   UNL     1      48.236   6.619  18.552  0.00  0.00    +0.000 A 
BRANCH  12  22
ATOM     21  C   UNL     1      47.930  10.212  18.134  0.00  0.00    +0.000 C 
ATOM     22  O   UNL     1      47.803   8.852  17.724  0.00  0.00    +0.000 OA
ENDBRANCH  12  22
ENDBRANCH   8  19
ENDBRANCH   7  10
ENDBRANCH   1   7
BRANCH   4  23
ATOM     23  C   UNL     1      43.681   4.878  10.427  0.00  0.00    +0.000 C 
BRANCH  23  24
ATOM     24  N   UNL     1      44.151   4.231   9.201  0.00  0.00    +0.000 NA
ATOM     25  H   UNL     1      44.734   4.896   8.691  0.00  0.00    +0.000 HD
BRANCH  24  26
ATOM     26  C   UNL     1      44.948   3.016   9.437  0.00  0.00    +0.000 C 
ATOM     27  C   UNL     1      44.086   1.791   9.771  0.00  0.00    +0.000 C 
BRANCH  26  28
ATOM     28  C   UNL     1      45.803   2.712   8.210  0.00  0.00    +0.000 A 
ATOM     29  C   UNL     1      46.035   3.693   7.232  0.00  0.00    +0.000 A 
ATOM     30  C   UNL     1      46.844   3.419   6.124  0.00  0.00    +0.000 A 
ATOM     31  C   UNL     1      47.428   2.162   5.978  0.00  0.00    +0.000 A 
ATOM     32  C   UNL     1      47.202   1.177   6.934  0.00  0.00    +0.000 A 
ATOM     33  C   UNL     1      46.393   1.448   8.039  0.00  0.00    +0.000 A 
ENDBRANCH  26  28
ENDBRANCH  24  26
ENDBRANCH  23  24
ENDBRANCH   4  23
TORSDOF 8
ENDMDL
MODEL 4
REMARK VINA RESULT:    -7.800      2.134      2.628
REMARK INTER + INTRA:         -12.877
REMARK INTER:                 -11.699
REMARK INTRA:                  -1.178
REMARK UNBOUND:                -1.429
REMARK  Name = 
REMARK  10 active torsions:
REMARK  status: ('A' for Active; 'I' for Inactive)
REMARK    1  A    between atoms: C_1  and  O_2
REMARK    2  A    between atoms: O_2  and  C_3
REMARK    3  A    between atoms: C_10  and  C_11
REMARK    4  A    between atoms: N_13  and  C_14
REMARK    5  A    between atoms: C_14  and  C_15
REMARK    6  A    between atoms: C_18  and  C_19
REMARK    7  A    between atoms: C_19  and  N_20
REMARK    8  A    between atoms: N_20  and  C_21
REMARK    9  A    between atoms: C_21  and  C_22
REMARK   10  A    between atoms: C_21  and  C_23
REMARK                            x       y       z     vdW  Elec       q    Type
REMARK                         _______ _______ _______ _____ _____    ______ ____
ROOT
ATOM      1  C   UNL     1      47.281   6.052  14.132  0.00  0.00    +0.000 A 
ATOM      2  C   UNL     1      47.265   4.667  14.339  0.00  0.00    +0.000 A 
ATOM      3  C   UNL     1      46.381   3.851  13.623  0.00  0.00    +0.000 A 
ATOM      4  C   UNL     1      45.498   4.400  12.680  0.00  0.00    +0.000 A 
ATOM      5  C   UNL     1      45.541   5.782  12.452  0.00  0.00    +0.000 A 
ATOM      6  C   UNL     1      46.427   6.598  13.166  0.00  0.00    +0.000 A 
ENDROOT
BRANCH   1   7
ATOM      7  C   UNL     1      48.227   6.938  14.905  0.00  0.00    +0.000 C 
BRANCH   7  10
ATOM      8  C   UNL     1      49.519   6.000  16.774  0.00  0.00    +0.000 C 
ATOM      9  O   UNL     1      48.744   6.487  17.597  0.00  0.00    +0.000 OA
ATOM     10  N   UNL     1      49.336   6.184  15.433  0.00  0.00    +0.000 N 
ATOM     11  H   UNL     1      50.030   5.856  14.776  0.00  0.00    +0.000 HD
BRANCH   8  19
ATOM     12  C   UNL     1      50.052   2.609  17.041  0.00  0.00    +0.000 A 
ATOM     13  N   UNL     1      50.503   1.364  17.291  0.00  0.00    +0.000 NA
ATOM     14  C   UNL     1      51.731   1.230  17.800  0.00  0.00    +0.000 A 
ATOM     15  N   UNL     1      52.589   2.204  18.089  0.00  0.00    +0.000 NA
ATOM     16  C   UNL     1      52.101   3.428  17.826  0.00  0.00    +0.000 A 
ATOM     17  S   UNL     1      53.064   4.795  18.124  0.00  0.00    +0.000 S 
ATOM     18  C   UNL     1      51.832   5.840  17.600  0.00  0.00    +0.000 A 
ATOM     19  C   UNL     1      50.673   5.187  17.197  0.00  0.00    +0.000 A 
ATOM     20  C   UNL     1      50.845   3.740  17.309  0.00  0.00    +0.000 A 
BRANCH  12  22
ATOM     21  C   UNL     1      47.746   2.839  17.377  0.00  0.00    +0.000 C 
ATOM     22  O   UNL     1      48.818   2.742  16.442  0.00  0.00    +0.000 OA
ENDBRANCH  12  22
ENDBRANCH   8  19
ENDBRANCH   7  10
ENDBRANCH   1   7
BRANCH   4  23
ATOM     23  C   UNL     1      44.549   3.515  11.898  0.00  0.00    +0.000 C 
BRANCH  23  24
ATOM     24  N   UNL     1      45.239   2.802  10.821  0.00  0.00    +0.000 NA
ATOM     25  H   UNL     1      45.255   1.809  11.055  0.00  0.00    +0.000 HD
BRANCH  24  26
ATOM     26  C   UNL     1      44.598   2.949   9.504  0.00  0.00    +0.000 C 
ATOM     27  C   UNL     1      44.044   4.360   9.263  0.00  0.00    +0.000 C 
BRANCH  26  28
ATOM     28  C   UNL     1      45.596   2.605   8.403  0.00  0.00    +0.000 A 
ATOM     29  C   UNL     1      46.121   1.307   8.286  0.00  0.00    +0.000 A 
ATOM     30  C   UNL     1      47.013   0.987   7.256  0.00  0.00    +0.000 A 
ATOM     31  C   UNL     1      47.392   1.960   6.333  0.00  0.00    +0.000 A 
ATOM     32  C   UNL     1      46.887   3.252   6.439  0.00  0.00    +0.000 A 
ATOM     33  C   UNL     1      46.000   3.573   7.467  0.00  0.00    +0.000 A 
ENDBRANCH  26  28
ENDBRANCH  24  26
ENDBRANCH  23  24
ENDBRANCH   4  23
TORSDOF 8
ENDMDL
MODEL 5
REMARK VINA RESULT:    -7.620      2.107      3.844
REMARK INTER + INTRA:         -12.612
REMARK INTER:                 -11.279
REMARK INTRA:                  -1.334
REMARK UNBOUND:                -1.429
REMARK  Name = 
REMARK  10 active torsions:
REMARK  status: ('A' for Active; 'I' for Inactive)
REMARK    1  A    between atoms: C_1  and  O_2
REMARK    2  A    between atoms: O_2  and  C_3
REMARK    3  A    between atoms: C_10  and  C_11
REMARK    4  A    between atoms: N_13  and  C_14
REMARK    5  A    between atoms: C_14  and  C_15
REMARK    6  A    between atoms: C_18  and  C_19
REMARK    7  A    between atoms: C_19  and  N_20
REMARK    8  A    between atoms: N_20  and  C_21
REMARK    9  A    between atoms: C_21  and  C_22
REMARK   10  A    between atoms: C_21  and  C_23
REMARK                            x       y       z     vdW  Elec       q    Type
REMARK                         _______ _______ _______ _____ _____    ______ ____
ROOT
ATOM      1  C   UNL     1      46.365   4.416  13.949  0.00  0.00    +0.000 A 
ATOM      2  C   UNL     1      46.143   3.263  13.185  0.00  0.00    +0.000 A 
ATOM      3  C   UNL     1      45.258   3.287  12.102  0.00  0.00    +0.000 A 
ATOM      4  C   UNL     1      44.578   4.464  11.753  0.00  0.00    +0.000 A 
ATOM      5  C   UNL     1      44.828   5.624  12.499  0.00  0.00    +0.000 A 
ATOM      6  C   UNL     1      45.716   5.601  13.581  0.00  0.00    +0.000 A 
ENDROOT
BRANCH   1   7
ATOM      7  C   UNL     1      47.314   4.395  15.122  0.00  0.00    +0.000 C 
BRANCH   7  10
ATOM      8  C   UNL     1      48.764   6.014  16.270  0.00  0.00    +0.000 C 
ATOM      9  O   UNL     1      49.561   5.128  16.583  0.00  0.00    +0.000 OA
ATOM     10  N   UNL     1      47.633   5.731  15.560  0.00  0.00    +0.000 N 
ATOM     11  H   UNL     1      46.946   6.452  15.390  0.00  0.00    +0.000 HD
BRANCH   8  19
ATOM     12  C   UNL     1      48.743   8.962  14.491  0.00  0.00    +0.000 A 
ATOM     13  N   UNL     1      48.858  10.226  14.039  0.00  0.00    +0.000 NA
ATOM     14  C   UNL     1      49.217  11.175  14.908  0.00  0.00    +0.000 A 
ATOM     15  N   UNL     1      49.473  11.020  16.203  0.00  0.00    +0.000 NA
ATOM     16  C   UNL     1      49.348   9.746  16.614  0.00  0.00    +0.000 A 
ATOM     17  S   UNL     1      49.628   9.361  18.244  0.00  0.00    +0.000 S 
ATOM     18  C   UNL     1      49.316   7.716  17.961  0.00  0.00    +0.000 A 
ATOM     19  C   UNL     1      49.001   7.420  16.640  0.00  0.00    +0.000 A 
ATOM     20  C   UNL     1      48.996   8.644  15.839  0.00  0.00    +0.000 A 
BRANCH  12  22
ATOM     21  C   UNL     1      49.340   7.417  12.836  0.00  0.00    +0.000 C 
ATOM     22  O   UNL     1      48.295   7.998  13.613  0.00  0.00    +0.000 OA
ENDBRANCH  12  22
ENDBRANCH   8  19
ENDBRANCH   7  10
ENDBRANCH   1   7
BRANCH   4  23
ATOM     23  C   UNL     1      43.627   4.492  10.574  0.00  0.00    +0.000 C 
BRANCH  23  24
ATOM     24  N   UNL     1      44.045   3.564   9.522  0.00  0.00    +0.000 NA
ATOM     25  H   UNL     1      43.208   3.202   9.063  0.00  0.00    +0.000 HD
BRANCH  24  26
ATOM     26  C   UNL     1      44.898   4.178   8.491  0.00  0.00    +0.000 C 
ATOM     27  C   UNL     1      45.807   5.283   9.049  0.00  0.00    +0.000 C 
BRANCH  26  28
ATOM     28  C   UNL     1      45.757   3.107   7.826  0.00  0.00    +0.000 A 
ATOM     29  C   UNL     1      46.463   3.382   6.643  0.00  0.00    +0.000 A 
ATOM     30  C   UNL     1      47.273   2.406   6.052  0.00  0.00    +0.000 A 
ATOM     31  C   UNL     1      47.386   1.145   6.634  0.00  0.00    +0.000 A 
ATOM     32  C   UNL     1      46.688   0.854   7.801  0.00  0.00    +0.000 A 
ATOM     33  C   UNL     1      45.877   1.826   8.391  0.00  0.00    +0.000 A 
ENDBRANCH  26  28
ENDBRANCH  24  26
ENDBRANCH  23  24
ENDBRANCH   4  23
TORSDOF 8
ENDMDL
MODEL 6
REMARK VINA RESULT:    -7.489      2.665      3.497
REMARK INTER + INTRA:         -12.420
REMARK INTER:                 -11.405
REMARK INTRA:                  -1.016
REMARK UNBOUND:                -1.429
REMARK  Name = 
REMARK  10 active torsions:
REMARK  status: ('A' for Active; 'I' for Inactive)
REMARK    1  A    between atoms: C_1  and  O_2
REMARK    2  A    between atoms: O_2  and  C_3
REMARK    3  A    between atoms: C_10  and  C_11
REMARK    4  A    between atoms: N_13  and  C_14
REMARK    5  A    between atoms: C_14  and  C_15
REMARK    6  A    between atoms: C_18  and  C_19
REMARK    7  A    between atoms: C_19  and  N_20
REMARK    8  A    between atoms: N_20  and  C_21
REMARK    9  A    between atoms: C_21  and  C_22
REMARK   10  A    between atoms: C_21  and  C_23
REMARK                            x       y       z     vdW  Elec       q    Type
REMARK                         _______ _______ _______ _____ _____    ______ ____
ROOT
ATOM      1  C   UNL     1      46.487   4.312  13.957  0.00  0.00    +0.000 A 
ATOM      2  C   UNL     1      46.228   3.191  13.158  0.00  0.00    +0.000 A 
ATOM      3  C   UNL     1      45.300   3.262  12.112  0.00  0.00    +0.000 A 
ATOM      4  C   UNL     1      44.614   4.455  11.838  0.00  0.00    +0.000 A 
ATOM      5  C   UNL     1      44.900   5.583  12.618  0.00  0.00    +0.000 A 
ATOM      6  C   UNL     1      45.831   5.514  13.662  0.00  0.00    +0.000 A 
ENDROOT
BRANCH   1   7
ATOM      7  C   UNL     1      47.482   4.242  15.088  0.00  0.00    +0.000 C 
BRANCH   7  10
ATOM      8  C   UNL     1      48.590   5.866  16.564  0.00  0.00    +0.000 C 
ATOM      9  O   UNL     1      49.613   5.180  16.603  0.00  0.00    +0.000 OA
ATOM     10  N   UNL     1      47.498   5.467  15.847  0.00  0.00    +0.000 N 
ATOM     11  H   UNL     1      46.638   5.994  15.898  0.00  0.00    +0.000 HD
BRANCH   8  19
ATOM     12  C   UNL     1      47.786   6.723  19.800  0.00  0.00    +0.000 A 
ATOM     13  N   UNL     1      47.461   7.332  20.958  0.00  0.00    +0.000 NA
ATOM     14  C   UNL     1      47.486   8.666  20.995  0.00  0.00    +0.000 A 
ATOM     15  N   UNL     1      47.810   9.490  20.002  0.00  0.00    +0.000 NA
ATOM     16  C   UNL     1      48.126   8.843  18.867  0.00  0.00    +0.000 A 
ATOM     17  S   UNL     1      48.577   9.736  17.494  0.00  0.00    +0.000 S 
ATOM     18  C   UNL     1      48.775   8.320  16.577  0.00  0.00    +0.000 A 
ATOM     19  C   UNL     1      48.502   7.151  17.278  0.00  0.00    +0.000 A 
ATOM     20  C   UNL     1      48.138   7.466  18.659  0.00  0.00    +0.000 A 
BRANCH  12  22
ATOM     21  C   UNL     1      49.101   4.825  20.192  0.00  0.00    +0.000 C 
ATOM     22  O   UNL     1      47.837   5.345  19.785  0.00  0.00    +0.000 OA
ENDBRANCH  12  22
ENDBRANCH   8  19
ENDBRANCH   7  10
ENDBRANCH   1   7
BRANCH   4  23
ATOM     23  C   UNL     1      43.616   4.533  10.700  0.00  0.00    +0.000 C 
BRANCH  23  24
ATOM     24  N   UNL     1      43.952   3.601   9.622  0.00  0.00    +0.000 NA
ATOM     25  H   UNL     1      43.084   3.283   9.192  0.00  0.00    +0.000 HD
BRANCH  24  26
ATOM     26  C   UNL     1      44.794   4.189   8.568  0.00  0.00    +0.000 C 
ATOM     27  C   UNL     1      45.683   5.332   9.080  0.00  0.00    +0.000 C 
BRANCH  26  28
ATOM     28  C   UNL     1      45.672   3.108   7.944  0.00  0.00    +0.000 A 
ATOM     29  C   UNL     1      46.447   3.378   6.804  0.00  0.00    +0.000 A 
ATOM     30  C   UNL     1      47.274   2.393   6.253  0.00  0.00    +0.000 A 
ATOM     31  C   UNL     1      47.336   1.127   6.834  0.00  0.00    +0.000 A 
ATOM     32  C   UNL     1      46.570   0.842   7.959  0.00  0.00    +0.000 A 
ATOM     33  C   UNL     1      45.742   1.823   8.508  0.00  0.00    +0.000 A 
ENDBRANCH  26  28
ENDBRANCH  24  26
ENDBRANCH  23  24
ENDBRANCH   4  23
TORSDOF 8
ENDMDL
MODEL 7
REMARK VINA RESULT:    -7.234      2.562      3.820
REMARK INTER + INTRA:         -12.046
REMARK INTER:                 -11.180
REMARK INTRA:                  -0.865
REMARK UNBOUND:                -1.429
REMARK  Name = 
REMARK  10 active torsions:
REMARK  status: ('A' for Active; 'I' for Inactive)
REMARK    1  A    between atoms: C_1  and  O_2
REMARK    2  A    between atoms: O_2  and  C_3
REMARK    3  A    between atoms: C_10  and  C_11
REMARK    4  A    between atoms: N_13  and  C_14
REMARK    5  A    between atoms: C_14  and  C_15
REMARK    6  A    between atoms: C_18  and  C_19
REMARK    7  A    between atoms: C_19  and  N_20
REMARK    8  A    between atoms: N_20  and  C_21
REMARK    9  A    between atoms: C_21  and  C_22
REMARK   10  A    between atoms: C_21  and  C_23
REMARK                            x       y       z     vdW  Elec       q    Type
REMARK                         _______ _______ _______ _____ _____    ______ ____
ROOT
ATOM      1  C   UNL     1      46.440   4.559  13.941  0.00  0.00    +0.000 A 
ATOM      2  C   UNL     1      46.357   3.390  13.173  0.00  0.00    +0.000 A 
ATOM      3  C   UNL     1      45.407   3.275  12.152  0.00  0.00    +0.000 A 
ATOM      4  C   UNL     1      44.522   4.328  11.871  0.00  0.00    +0.000 A 
ATOM      5  C   UNL     1      44.631   5.508  12.619  0.00  0.00    +0.000 A 
ATOM      6  C   UNL     1      45.583   5.624  13.638  0.00  0.00    +0.000 A 
ENDROOT
BRANCH   1   7
ATOM      7  C   UNL     1      47.458   4.686  15.047  0.00  0.00    +0.000 C 
BRANCH   7  10
ATOM      8  C   UNL     1      48.570   6.831  14.592  0.00  0.00    +0.000 C 
ATOM      9  O   UNL     1      49.149   6.360  13.612  0.00  0.00    +0.000 OA
ATOM     10  N   UNL     1      47.730   6.069  15.351  0.00  0.00    +0.000 N 
ATOM     11  H   UNL     1      47.334   6.443  16.202  0.00  0.00    +0.000 HD
BRANCH   8  19
ATOM     12  C   UNL     1      48.387   8.493  17.601  0.00  0.00    +0.000 A 
ATOM     13  N   UNL     1      48.322   9.385  18.610  0.00  0.00    +0.000 NA
ATOM     14  C   UNL     1      48.513  10.675  18.322  0.00  0.00    +0.000 A 
ATOM     15  N   UNL     1      48.775  11.200  17.129  0.00  0.00    +0.000 NA
ATOM     16  C   UNL     1      48.831  10.278  16.151  0.00  0.00    +0.000 A 
ATOM     17  S   UNL     1      49.166  10.766  14.560  0.00  0.00    +0.000 S 
ATOM     18  C   UNL     1      49.048   9.170  13.992  0.00  0.00    +0.000 A 
ATOM     19  C   UNL     1      48.750   8.240  14.982  0.00  0.00    +0.000 A 
ATOM     20  C   UNL     1      48.645   8.904  16.280  0.00  0.00    +0.000 A 
BRANCH  12  22
ATOM     21  C   UNL     1      47.533   6.918  19.108  0.00  0.00    +0.000 C 
ATOM     22  O   UNL     1      48.270   7.155  17.911  0.00  0.00    +0.000 OA
ENDBRANCH  12  22
ENDBRANCH   8  19
ENDBRANCH   7  10
ENDBRANCH   1   7
BRANCH   4  23
ATOM     23  C   UNL     1      43.500   4.207  10.759  0.00  0.00    +0.000 C 
BRANCH  23  24
ATOM     24  N   UNL     1      43.975   3.337   9.682  0.00  0.00    +0.000 NA
ATOM     25  H   UNL     1      43.167   2.872   9.266  0.00  0.00    +0.000 HD
BRANCH  24  26
ATOM     26  C   UNL     1      44.689   4.050   8.610  0.00  0.00    +0.000 C 
ATOM     27  C   UNL     1      45.477   5.264   9.124  0.00  0.00    +0.000 C 
BRANCH  26  28
ATOM     28  C   UNL     1      45.643   3.095   7.899  0.00  0.00    +0.000 A 
ATOM     29  C   UNL     1      46.338   3.497   6.747  0.00  0.00    +0.000 A 
ATOM     30  C   UNL     1      47.235   2.628   6.115  0.00  0.00    +0.000 A 
ATOM     31  C   UNL     1      47.446   1.348   6.625  0.00  0.00    +0.000 A 
ATOM     32  C   UNL     1      46.759   0.932   7.761  0.00  0.00    +0.000 A 
ATOM     33  C   UNL     1      45.863   1.797   8.391  0.00  0.00    +0.000 A 
ENDBRANCH  26  28
ENDBRANCH  24  26
ENDBRANCH  23  24
ENDBRANCH   4  23
TORSDOF 8
ENDMDL
MODEL 8
REMARK VINA RESULT:    -7.171      1.806      2.728
REMARK INTER + INTRA:         -11.954
REMARK INTER:                 -10.815
REMARK INTRA:                  -1.138
REMARK UNBOUND:                -1.429
REMARK  Name = 
REMARK  10 active torsions:
REMARK  status: ('A' for Active; 'I' for Inactive)
REMARK    1  A    between atoms: C_1  and  O_2
REMARK    2  A    between atoms: O_2  and  C_3
REMARK    3  A    between atoms: C_10  and  C_11
REMARK    4  A    between atoms: N_13  and  C_14
REMARK    5  A    between atoms: C_14  and  C_15
REMARK    6  A    between atoms: C_18  and  C_19
REMARK    7  A    between atoms: C_19  and  N_20
REMARK    8  A    between atoms: N_20  and  C_21
REMARK    9  A    between atoms: C_21  and  C_22
REMARK   10  A    between atoms: C_21  and  C_23
REMARK                            x       y       z     vdW  Elec       q    Type
REMARK                         _______ _______ _______ _____ _____    ______ ____
ROOT
ATOM      1  C   UNL     1      46.671   6.685  12.927  0.00  0.00    +0.000 A 
ATOM      2  C   UNL     1      46.091   5.473  13.320  0.00  0.00    +0.000 A 
ATOM      3  C   UNL     1      45.093   4.876  12.541  0.00  0.00    +0.000 A 
ATOM      4  C   UNL     1      44.656   5.475  11.349  0.00  0.00    +0.000 A 
ATOM      5  C   UNL     1      45.263   6.670  10.942  0.00  0.00    +0.000 A 
ATOM      6  C   UNL     1      46.263   7.266  11.719  0.00  0.00    +0.000 A 
ENDROOT
BRANCH   1   7
ATOM      7  C   UNL     1      47.743   7.337  13.765  0.00  0.00    +0.000 C 
BRANCH   7  10
ATOM      8  C   UNL     1      48.696   6.830  15.974  0.00  0.00    +0.000 C 
ATOM      9  O   UNL     1      48.655   8.017  16.300  0.00  0.00    +0.000 OA
ATOM     10  N   UNL     1      48.273   6.419  14.743  0.00  0.00    +0.000 N 
ATOM     11  H   UNL     1      48.398   5.458  14.458  0.00  0.00    +0.000 HD
BRANCH   8  19
ATOM     12  C   UNL     1      51.847   5.746  16.838  0.00  0.00    +0.000 A 
ATOM     13  N   UNL     1      52.934   5.100  17.305  0.00  0.00    +0.000 NA
ATOM     14  C   UNL     1      52.747   4.084  18.151  0.00  0.00    +0.000 A 
ATOM     15  N   UNL     1      51.586   3.625  18.608  0.00  0.00    +0.000 NA
ATOM     16  C   UNL     1      50.528   4.295  18.118  0.00  0.00    +0.000 A 
ATOM     17  S   UNL     1      48.961   3.852  18.600  0.00  0.00    +0.000 S 
ATOM     18  C   UNL     1      48.266   5.048  17.616  0.00  0.00    +0.000 A 
ATOM     19  C   UNL     1      49.192   5.799  16.902  0.00  0.00    +0.000 A 
ATOM     20  C   UNL     1      50.550   5.362  17.224  0.00  0.00    +0.000 A 
BRANCH  12  22
ATOM     21  C   UNL     1      53.412   7.049  15.681  0.00  0.00    +0.000 C 
ATOM     22  O   UNL     1      52.045   6.844  16.029  0.00  0.00    +0.000 OA
ENDBRANCH  12  22
ENDBRANCH   8  19
ENDBRANCH   7  10
ENDBRANCH   1   7
BRANCH   4  23
ATOM     23  C   UNL     1      43.582   4.823  10.501  0.00  0.00    +0.000 C 
BRANCH  23  24
ATOM     24  N   UNL     1      44.139   4.241   9.279  0.00  0.00    +0.000 NA
ATOM     25  H   UNL     1      44.753   4.932   8.846  0.00  0.00    +0.000 HD
BRANCH  24  26
ATOM     26  C   UNL     1      44.921   3.015   9.505  0.00  0.00    +0.000 C 
ATOM     27  C   UNL     1      44.042   1.788   9.780  0.00  0.00    +0.000 C 
BRANCH  26  28
ATOM     28  C   UNL     1      45.810   2.738   8.296  0.00  0.00    +0.000 A 
ATOM     29  C   UNL     1      46.387   1.473   8.101  0.00  0.00    +0.000 A 
ATOM     30  C   UNL     1      47.176   1.214   6.976  0.00  0.00    +0.000 A 
ATOM     31  C   UNL     1      47.400   2.215   6.033  0.00  0.00    +0.000 A 
ATOM     32  C   UNL     1      46.842   3.477   6.215  0.00  0.00    +0.000 A 
ATOM     33  C   UNL     1      46.056   3.737   7.339  0.00  0.00    +0.000 A 
ENDBRANCH  26  28
ENDBRANCH  24  26
ENDBRANCH  23  24
ENDBRANCH   4  23
TORSDOF 8
ENDMDL
MODEL 9
REMARK VINA RESULT:    -7.031      2.139      3.203
REMARK INTER + INTRA:         -11.748
REMARK INTER:                 -10.050
REMARK INTRA:                  -1.698
REMARK UNBOUND:                -1.429
REMARK  Name = 
REMARK  10 active torsions:
REMARK  status: ('A' for Active; 'I' for Inactive)
REMARK    1  A    between atoms: C_1  and  O_2
REMARK    2  A    between atoms: O_2  and  C_3
REMARK    3  A    between atoms: C_10  and  C_11
REMARK    4  A    between atoms: N_13  and  C_14
REMARK    5  A    between atoms: C_14  and  C_15
REMARK    6  A    between atoms: C_18  and  C_19
REMARK    7  A    between atoms: C_19  and  N_20
REMARK    8  A    between atoms: N_20  and  C_21
REMARK    9  A    between atoms: C_21  and  C_22
REMARK   10  A    between atoms: C_21  and  C_23
REMARK                            x       y       z     vdW  Elec       q    Type
REMARK                         _______ _______ _______ _____ _____    ______ ____
ROOT
ATOM      1  C   UNL     1      47.831   6.962  12.902  0.00  0.00    +0.000 A 
ATOM      2  C   UNL     1      47.887   5.612  13.271  0.00  0.00    +0.000 A 
ATOM      3  C   UNL     1      46.712   4.868  13.429  0.00  0.00    +0.000 A 
ATOM      4  C   UNL     1      45.455   5.454  13.217  0.00  0.00    +0.000 A 
ATOM      5  C   UNL     1      45.404   6.796  12.815  0.00  0.00    +0.000 A 
ATOM      6  C   UNL     1      46.579   7.540  12.654  0.00  0.00    +0.000 A 
ENDROOT
BRANCH   1   7
ATOM      7  C   UNL     1      49.093   7.771  12.735  0.00  0.00    +0.000 C 
BRANCH   7  10
ATOM      8  C   UNL     1      50.290   7.828  14.882  0.00  0.00    +0.000 C 
ATOM      9  O   UNL     1      49.557   8.724  15.303  0.00  0.00    +0.000 OA
ATOM     10  N   UNL     1      50.129   7.314  13.627  0.00  0.00    +0.000 N 
ATOM     11  H   UNL     1      50.793   6.646  13.263  0.00  0.00    +0.000 HD
BRANCH   8  19
ATOM     12  C   UNL     1      50.432   5.193  17.093  0.00  0.00    +0.000 A 
ATOM     13  N   UNL     1      50.748   4.279  18.032  0.00  0.00    +0.000 NA
ATOM     14  C   UNL     1      51.984   4.298  18.537  0.00  0.00    +0.000 A 
ATOM     15  N   UNL     1      52.971   5.128  18.211  0.00  0.00    +0.000 NA
ATOM     16  C   UNL     1      52.615   6.023  17.273  0.00  0.00    +0.000 A 
ATOM     17  S   UNL     1      53.753   7.158  16.726  0.00  0.00    +0.000 S 
ATOM     18  C   UNL     1      52.620   7.861  15.673  0.00  0.00    +0.000 A 
ATOM     19  C   UNL     1      51.365   7.264  15.715  0.00  0.00    +0.000 A 
ATOM     20  C   UNL     1      51.372   6.146  16.657  0.00  0.00    +0.000 A 
BRANCH  12  22
ATOM     21  C   UNL     1      48.349   4.123  17.097  0.00  0.00    +0.000 C 
ATOM     22  O   UNL     1      49.183   5.122  16.515  0.00  0.00    +0.000 OA
ENDBRANCH  12  22
ENDBRANCH   8  19
ENDBRANCH   7  10
ENDBRANCH   1   7
BRANCH   4  23
ATOM     23  C   UNL     1      44.183   4.646  13.378  0.00  0.00    +0.000 C 
BRANCH  23  24
ATOM     24  N   UNL     1      44.200   3.441  12.547  0.00  0.00    +0.000 NA
ATOM     25  H   UNL     1      43.802   2.673  13.088  0.00  0.00    +0.000 HD
BRANCH  24  26
ATOM     26  C   UNL     1      43.427   3.568  11.300  0.00  0.00    +0.000 C 
ATOM     27  C   UNL     1      42.659   4.894  11.205  0.00  0.00    +0.000 C 
BRANCH  26  28
ATOM     28  C   UNL     1      44.359   3.438  10.099  0.00  0.00    +0.000 A 
ATOM     29  C   UNL     1      44.960   4.572   9.528  0.00  0.00    +0.000 A 
ATOM     30  C   UNL     1      45.837   4.446   8.445  0.00  0.00    +0.000 A 
ATOM     31  C   UNL     1      46.124   3.187   7.919  0.00  0.00    +0.000 A 
ATOM     32  C   UNL     1      45.531   2.055   8.469  0.00  0.00    +0.000 A 
ATOM     33  C   UNL     1      44.653   2.179   9.548  0.00  0.00    +0.000 A 
ENDBRANCH  26  28
ENDBRANCH  24  26
ENDBRANCH  23  24
ENDBRANCH   4  23
TORSDOF 8
ENDMDL
