MODEL 1
REMARK VINA RESULT:    -8.437      0.000      0.000
REMARK INTER + INTRA:         -13.052
REMARK INTER:                 -11.890
REMARK INTRA:                  -1.163
REMARK UNBOUND:                -1.163
REMARK  Name = 
REMARK  7 active torsions:
REMARK  status: ('A' for Active; 'I' for Inactive)
REMARK    1  A    between atoms: C_2  and  C_20
REMARK    2  A    between atoms: N_3  and  C_4
REMARK    3  A    between atoms: C_4  and  C_5
REMARK    4  A    between atoms: C_8  and  C_9
REMARK    5  A    between atoms: C_9  and  N_10
REMARK    6  A    between atoms: N_10  and  C_11
REMARK    7  A    between atoms: C_11  and  C_12
REMARK                            x       y       z     vdW  Elec       q    Type
REMARK                         _______ _______ _______ _____ _____    ______ ____
ROOT
ATOM      1  C   UNL     1      46.176   7.131  12.527  0.00  0.00    +0.000 A 
ATOM      2  C   UNL     1      46.647   6.658  11.302  0.00  0.00    +0.000 A 
ATOM      3  C   UNL     1      45.834   5.837  10.534  0.00  0.00    +0.000 A 
ATOM      4  C   UNL     1      44.567   5.482  10.997  0.00  0.00    +0.000 A 
ATOM      5  C   UNL     1      44.178   6.005  12.229  0.00  0.00    +0.000 A 
ATOM      6  N   UNL     1      44.947   6.810  13.001  0.00  0.00    +0.000 NA
ENDROOT
BRANCH   1   7
ATOM      7  C   UNL     1      47.030   8.082  13.328  0.00  0.00    +0.000 C 
BRANCH   7  10
ATOM      8  O   UNL     1      49.382   6.608  13.617  0.00  0.00    +0.000 OA
ATOM      9  C   UNL     1      48.683   6.817  14.617  0.00  0.00    +0.000 C 
ATOM     10  N   UNL     1      47.499   7.494  14.560  0.00  0.00    +0.000 N 
ATOM     11  H   UNL     1      47.131   7.923  15.407  0.00  0.00    +0.000 HD
BRANCH   9  12
ATOM     12  C   UNL     1      49.053   6.289  15.921  0.00  0.00    +0.000 A 
ATOM     13  C   UNL     1      50.040   6.875  16.700  0.00  0.00    +0.000 A 
ATOM     14  S   UNL     1      50.294   6.057  18.180  0.00  0.00    +0.000 S 
ATOM     15  C   UNL     1      49.077   4.920  17.826  0.00  0.00    +0.000 A 
ATOM     16  N   UNL     1      48.770   3.915  18.693  0.00  0.00    +0.000 NA
ATOM     17  C   UNL     1      47.819   3.141  18.291  0.00  0.00    +0.000 A 
ATOM     18  N   UNL     1      47.135   3.274  17.114  0.00  0.00    +0.000 N 
ATOM     19  C   UNL     1      47.434   4.240  16.194  0.00  0.00    +0.000 A 
ATOM     20  O   UNL     1      46.862   4.271  15.109  0.00  0.00    +0.000 OA
ATOM     21  C   UNL     1      48.493   5.153  16.598  0.00  0.00    +0.000 A 
ATOM     22  H   UNL     1      46.419   2.621  16.841  0.00  0.00    +0.000 HD
ENDBRANCH   9  12
ENDBRANCH   7  10
ENDBRANCH   1   7
BRANCH   4  23
ATOM     23  C   UNL     1      43.627   4.632  10.188  0.00  0.00    +0.000 C 
BRANCH  23  24
ATOM     24  N   UNL     1      44.118   4.342   8.827  0.00  0.00    +0.000 NA
ATOM     25  H   UNL     1      44.935   4.927   8.652  0.00  0.00    +0.000 HD
BRANCH  24  26
ATOM     26  C   UNL     1      44.512   2.931   8.758  0.00  0.00    +0.000 C 
BRANCH  26  27
ATOM     27  C   UNL     1      45.549   2.515   7.701  0.00  0.00    +0.000 C 
ATOM     28  C   UNL     1      46.386   3.691   7.190  0.00  0.00    +0.000 C 
ATOM     29  C   UNL     1      47.088   3.250   5.911  0.00  0.00    +0.000 C 
ATOM     30  C   UNL     1      47.918   1.984   6.134  0.00  0.00    +0.000 C 
ATOM     31  N   UNL     1      47.164   0.911   6.790  0.00  0.00    +0.000 NA
ATOM     32  C   UNL     1      46.508   1.359   8.034  0.00  0.00    +0.000 C 
ATOM     33  H   UNL     1      47.788   0.128   6.981  0.00  0.00    +0.000 HD
ENDBRANCH  26  27
ENDBRANCH  24  26
ENDBRANCH  23  24
ENDBRANCH   4  23
TORSDOF 7
ENDMDL
MODEL 2
REMARK VINA RESULT:    -8.007      1.705      2.005
REMARK INTER + INTRA:         -12.447
REMARK INTER:                 -11.544
REMARK INTRA:                  -0.903
REMARK UNBOUND:                -1.163
REMARK  Name = 
REMARK  7 active torsions:
REMARK  status: ('A' for Active; 'I' for Inactive)
REMARK    1  A    between atoms: C_2  and  C_20
REMARK    2  A    between atoms: N_3  and  C_4
REMARK    3  A    between atoms: C_4  and  C_5
REMARK    4  A    between atoms: C_8  and  C_9
REMARK    5  A    between atoms: C_9  and  N_10
REMARK    6  A    between atoms: N_10  and  C_11
REMARK    7  A    between atoms: C_11  and  C_12
REMARK                            x       y       z     vdW  Elec       q    Type
REMARK                         _______ _______ _______ _____ _____    ______ ____
ROOT
ATOM      1  C   UNL     1      46.932   5.989  12.812  0.00  0.00    +0.000 A 
ATOM      2  C   UNL     1      46.344   6.453  11.636  0.00  0.00    +0.000 A 
ATOM      3  C   UNL     1      45.284   5.749  11.084  0.00  0.00    +0.000 A 
ATOM      4  C   UNL     1      44.828   4.583  11.697  0.00  0.00    +0.000 A 
ATOM      5  C   UNL     1      45.472   4.196  12.872  0.00  0.00    +0.000 A 
ATOM      6  N   UNL     1      46.508   4.862  13.437  0.00  0.00    +0.000 NA
ENDROOT
BRANCH   1   7
ATOM      7  C   UNL     1      48.037   6.793  13.453  0.00  0.00    +0.000 C 
BRANCH   7  10
ATOM      8  O   UNL     1      50.155   6.696  15.267  0.00  0.00    +0.000 OA
ATOM      9  C   UNL     1      49.005   6.836  15.702  0.00  0.00    +0.000 C 
ATOM     10  N   UNL     1      47.908   6.854  14.890  0.00  0.00    +0.000 N 
ATOM     11  H   UNL     1      47.049   7.287  15.224  0.00  0.00    +0.000 HD
BRANCH   9  12
ATOM     12  C   UNL     1      48.741   6.924  17.130  0.00  0.00    +0.000 A 
ATOM     13  C   UNL     1      48.370   8.114  17.738  0.00  0.00    +0.000 A 
ATOM     14  S   UNL     1      48.133   7.954  19.424  0.00  0.00    +0.000 S 
ATOM     15  C   UNL     1      48.497   6.291  19.375  0.00  0.00    +0.000 A 
ATOM     16  N   UNL     1      48.479   5.528  20.503  0.00  0.00    +0.000 NA
ATOM     17  C   UNL     1      48.764   4.284  20.305  0.00  0.00    +0.000 A 
ATOM     18  N   UNL     1      49.055   3.723  19.092  0.00  0.00    +0.000 N 
ATOM     19  C   UNL     1      49.125   4.456  17.940  0.00  0.00    +0.000 A 
ATOM     20  O   UNL     1      49.481   3.936  16.887  0.00  0.00    +0.000 OA
ATOM     21  C   UNL     1      48.802   5.866  18.099  0.00  0.00    +0.000 A 
ATOM     22  H   UNL     1      49.297   2.750  19.004  0.00  0.00    +0.000 HD
ENDBRANCH   9  12
ENDBRANCH   7  10
ENDBRANCH   1   7
BRANCH   4  23
ATOM     23  C   UNL     1      43.656   3.805  11.168  0.00  0.00    +0.000 C 
BRANCH  23  24
ATOM     24  N   UNL     1      43.788   3.434   9.746  0.00  0.00    +0.000 NA
ATOM     25  H   UNL     1      44.026   4.273   9.219  0.00  0.00    +0.000 HD
BRANCH  24  26
ATOM     26  C   UNL     1      44.874   2.456   9.613  0.00  0.00    +0.000 C 
BRANCH  26  27
ATOM     27  C   UNL     1      45.888   2.645   8.472  0.00  0.00    +0.000 C 
ATOM     28  C   UNL     1      46.403   1.320   7.906  0.00  0.00    +0.000 C 
ATOM     29  C   UNL     1      47.650   1.612   7.078  0.00  0.00    +0.000 C 
ATOM     30  C   UNL     1      47.369   2.652   5.991  0.00  0.00    +0.000 C 
ATOM     31  N   UNL     1      46.709   3.857   6.505  0.00  0.00    +0.000 NA
ATOM     32  C   UNL     1      45.497   3.547   7.289  0.00  0.00    +0.000 C 
ATOM     33  H   UNL     1      46.479   4.474   5.727  0.00  0.00    +0.000 HD
ENDBRANCH  26  27
ENDBRANCH  24  26
ENDBRANCH  23  24
ENDBRANCH   4  23
TORSDOF 7
ENDMDL
MODEL 3
REMARK VINA RESULT:    -7.441      1.497      1.695
REMARK INTER + INTRA:         -11.649
REMARK INTER:                 -10.470
REMARK INTRA:                  -1.179
REMARK UNBOUND:                -1.163
REMARK  Name = 
REMARK  7 active torsions:
REMARK  status: ('A' for Active; 'I' for Inactive)
REMARK    1  A    between atoms: C_2  and  C_20
REMARK    2  A    between atoms: N_3  and  C_4
REMARK    3  A    between atoms: C_4  and  C_5
REMARK    4  A    between atoms: C_8  and  C_9
REMARK    5  A    between atoms: C_9  and  N_10
REMARK    6  A    between atoms: N_10  and  C_11
REMARK    7  A    between atoms: C_11  and  C_12
REMARK                            x       y       z     vdW  Elec       q    Type
REMARK                         _______ _______ _______ _____ _____    ______ ____
ROOT
ATOM      1  C   UNL     1      46.529   6.357  12.715  0.00  0.00    +0.000 A 
ATOM      2  C   UNL     1      46.285   6.388  11.342  0.00  0.00    +0.000 A 
ATOM      3  C   UNL     1      45.472   5.417  10.775  0.00  0.00    +0.000 A 
ATOM      4  C   UNL     1      44.920   4.417  11.575  0.00  0.00    +0.000 A 
ATOM      5  C   UNL     1      45.214   4.467  12.937  0.00  0.00    +0.000 A 
ATOM      6  N   UNL     1      46.002   5.402  13.521  0.00  0.00    +0.000 NA
ENDROOT
BRANCH   1   7
ATOM      7  C   UNL     1      47.353   7.453  13.344  0.00  0.00    +0.000 C 
BRANCH   7  10
ATOM      8  O   UNL     1      48.731   8.819  15.350  0.00  0.00    +0.000 OA
ATOM      9  C   UNL     1      49.077   7.664  15.070  0.00  0.00    +0.000 C 
ATOM     10  N   UNL     1      48.484   6.938  14.077  0.00  0.00    +0.000 N 
ATOM     11  H   UNL     1      48.557   5.922  14.093  0.00  0.00    +0.000 HD
BRANCH   9  12
ATOM     12  C   UNL     1      50.194   7.024  15.746  0.00  0.00    +0.000 A 
ATOM     13  C   UNL     1      51.489   7.511  15.650  0.00  0.00    +0.000 A 
ATOM     14  S   UNL     1      52.620   6.571  16.524  0.00  0.00    +0.000 S 
ATOM     15  C   UNL     1      51.404   5.511  17.068  0.00  0.00    +0.000 A 
ATOM     16  N   UNL     1      51.694   4.454  17.878  0.00  0.00    +0.000 NA
ATOM     17  C   UNL     1      50.667   3.749  18.217  0.00  0.00    +0.000 A 
ATOM     18  N   UNL     1      49.377   3.998  17.837  0.00  0.00    +0.000 N 
ATOM     19  C   UNL     1      49.043   5.021  16.994  0.00  0.00    +0.000 A 
ATOM     20  O   UNL     1      47.888   5.157  16.601  0.00  0.00    +0.000 OA
ATOM     21  C   UNL     1      50.160   5.860  16.586  0.00  0.00    +0.000 A 
ATOM     22  H   UNL     1      48.619   3.395  18.111  0.00  0.00    +0.000 HD
ENDBRANCH   9  12
ENDBRANCH   7  10
ENDBRANCH   1   7
BRANCH   4  23
ATOM     23  C   UNL     1      43.998   3.366  11.023  0.00  0.00    +0.000 C 
BRANCH  23  24
ATOM     24  N   UNL     1      43.986   3.308   9.549  0.00  0.00    +0.000 NA
ATOM     25  H   UNL     1      44.557   4.075   9.195  0.00  0.00    +0.000 HD
BRANCH  24  26
ATOM     26  C   UNL     1      44.574   2.034   9.122  0.00  0.00    +0.000 C 
BRANCH  26  27
ATOM     27  C   UNL     1      45.556   2.044   7.939  0.00  0.00    +0.000 C 
ATOM     28  C   UNL     1      46.172   3.422   7.686  0.00  0.00    +0.000 C 
ATOM     29  C   UNL     1      46.807   3.410   6.300  0.00  0.00    +0.000 C 
ATOM     30  C   UNL     1      47.820   2.271   6.159  0.00  0.00    +0.000 C 
ATOM     31  N   UNL     1      47.285   0.970   6.572  0.00  0.00    +0.000 NA
ATOM     32  C   UNL     1      46.691   1.006   7.923  0.00  0.00    +0.000 C 
ATOM     33  H   UNL     1      48.026   0.271   6.529  0.00  0.00    +0.000 HD
ENDBRANCH  26  27
ENDBRANCH  24  26
ENDBRANCH  23  24
ENDBRANCH   4  23
TORSDOF 7
ENDMDL
MODEL 4
REMARK VINA RESULT:    -7.315      2.735      3.479
REMARK INTER + INTRA:         -11.470
REMARK INTER:                 -10.548
REMARK INTRA:                  -0.922
REMARK UNBOUND:                -1.163
REMARK  Name = 
REMARK  7 active torsions:
REMARK  status: ('A' for Active; 'I' for Inactive)
REMARK    1  A    between atoms: C_2  and  C_20
REMARK    2  A    between atoms: N_3  and  C_4
REMARK    3  A    between atoms: C_4  and  C_5
REMARK    4  A    between atoms: C_8  and  C_9
REMARK    5  A    between atoms: C_9  and  N_10
REMARK    6  A    between atoms: N_10  and  C_11
REMARK    7  A    between atoms: C_11  and  C_12
REMARK                            x       y       z     vdW  Elec       q    Type
REMARK                         _______ _______ _______ _____ _____    ______ ____
ROOT
ATOM      1  C   UNL     1      47.982   5.882  14.783  0.00  0.00    +0.000 A 
ATOM      2  C   UNL     1      47.553   6.415  13.567  0.00  0.00    +0.000 A 
ATOM      3  C   UNL     1      46.714   5.664  12.756  0.00  0.00    +0.000 A 
ATOM      4  C   UNL     1      46.321   4.386  13.153  0.00  0.00    +0.000 A 
ATOM      5  C   UNL     1      46.794   3.938  14.386  0.00  0.00    +0.000 A 
ATOM      6  N   UNL     1      47.612   4.646  15.201  0.00  0.00    +0.000 NA
ENDROOT
BRANCH   1   7
ATOM      7  C   UNL     1      48.834   6.725  15.699  0.00  0.00    +0.000 C 
BRANCH   7  10
ATOM      8  O   UNL     1      49.051   5.972  18.378  0.00  0.00    +0.000 OA
ATOM      9  C   UNL     1      49.937   5.623  17.587  0.00  0.00    +0.000 C 
ATOM     10  N   UNL     1      49.930   5.979  16.269  0.00  0.00    +0.000 N 
ATOM     11  H   UNL     1      50.464   5.426  15.602  0.00  0.00    +0.000 HD
BRANCH   9  12
ATOM     12  C   UNL     1      51.089   4.855  18.033  0.00  0.00    +0.000 A 
ATOM     13  C   UNL     1      52.128   5.434  18.746  0.00  0.00    +0.000 A 
ATOM     14  S   UNL     1      53.367   4.321  19.138  0.00  0.00    +0.000 S 
ATOM     15  C   UNL     1      52.533   3.040  18.387  0.00  0.00    +0.000 A 
ATOM     16  N   UNL     1      53.047   1.780  18.359  0.00  0.00    +0.000 NA
ATOM     17  C   UNL     1      52.294   0.914  17.766  0.00  0.00    +0.000 A 
ATOM     18  N   UNL     1      51.075   1.179  17.206  0.00  0.00    +0.000 N 
ATOM     19  C   UNL     1      50.537   2.435  17.175  0.00  0.00    +0.000 A 
ATOM     20  O   UNL     1      49.484   2.651  16.583  0.00  0.00    +0.000 OA
ATOM     21  C   UNL     1      51.336   3.453  17.840  0.00  0.00    +0.000 A 
ATOM     22  H   UNL     1      50.544   0.467  16.732  0.00  0.00    +0.000 HD
ENDBRANCH   9  12
ENDBRANCH   7  10
ENDBRANCH   1   7
BRANCH   4  23
ATOM     23  C   UNL     1      45.379   3.547  12.336  0.00  0.00    +0.000 C 
BRANCH  23  24
ATOM     24  N   UNL     1      44.140   4.252  11.956  0.00  0.00    +0.000 NA
ATOM     25  H   UNL     1      44.338   5.252  11.930  0.00  0.00    +0.000 HD
BRANCH  24  26
ATOM     26  C   UNL     1      43.734   3.806  10.619  0.00  0.00    +0.000 C 
BRANCH  26  27
ATOM     27  C   UNL     1      44.833   3.446   9.606  0.00  0.00    +0.000 C 
ATOM     28  C   UNL     1      44.711   2.014   9.078  0.00  0.00    +0.000 C 
ATOM     29  C   UNL     1      46.028   1.645   8.403  0.00  0.00    +0.000 C 
ATOM     30  C   UNL     1      46.399   2.652   7.311  0.00  0.00    +0.000 C 
ATOM     31  N   UNL     1      46.342   4.044   7.768  0.00  0.00    +0.000 NA
ATOM     32  C   UNL     1      45.052   4.379   8.402  0.00  0.00    +0.000 C 
ATOM     33  H   UNL     1      46.521   4.665   6.981  0.00  0.00    +0.000 HD
ENDBRANCH  26  27
ENDBRANCH  24  26
ENDBRANCH  23  24
ENDBRANCH   4  23
TORSDOF 7
ENDMDL
MODEL 5
REMARK VINA RESULT:    -7.265      2.404      3.027
REMARK INTER + INTRA:         -11.400
REMARK INTER:                 -10.413
REMARK INTRA:                  -0.987
REMARK UNBOUND:                -1.163
REMARK  Name = 
REMARK  7 active torsions:
REMARK  status: ('A' for Active; 'I' for Inactive)
REMARK    1  A    between atoms: C_2  and  C_20
REMARK    2  A    between atoms: N_3  and  C_4
REMARK    3  A    between atoms: C_4  and  C_5
REMARK    4  A    between atoms: C_8  and  C_9
REMARK    5  A    between atoms: C_9  and  N_10
REMARK    6  A    between atoms: N_10  and  C_11
REMARK    7  A    between atoms: C_11  and  C_12
REMARK                            x       y       z     vdW  Elec       q    Type
REMARK                         _______ _______ _______ _____ _____    ______ ____
ROOT
ATOM      1  C   UNL     1      46.956   6.380  13.117  0.00  0.00    +0.000 A 
ATOM      2  C   UNL     1      46.499   5.085  13.364  0.00  0.00    +0.000 A 
ATOM      3  C   UNL     1      45.453   4.579  12.606  0.00  0.00    +0.000 A 
ATOM      4  C   UNL     1      44.862   5.368  11.620  0.00  0.00    +0.000 A 
ATOM      5  C   UNL     1      45.388   6.647  11.438  0.00  0.00    +0.000 A 
ATOM      6  N   UNL     1      46.408   7.170  12.160  0.00  0.00    +0.000 NA
ENDROOT
BRANCH   1   7
ATOM      7  C   UNL     1      48.141   6.905  13.890  0.00  0.00    +0.000 C 
BRANCH   7  10
ATOM      8  O   UNL     1      50.111   6.283  15.766  0.00  0.00    +0.000 OA
ATOM      9  C   UNL     1      48.972   6.556  16.166  0.00  0.00    +0.000 C 
ATOM     10  N   UNL     1      47.940   6.833  15.317  0.00  0.00    +0.000 N 
ATOM     11  H   UNL     1      47.139   7.359  15.663  0.00  0.00    +0.000 HD
BRANCH   9  12
ATOM     12  C   UNL     1      48.642   6.533  17.583  0.00  0.00    +0.000 A 
ATOM     13  C   UNL     1      48.794   5.392  18.356  0.00  0.00    +0.000 A 
ATOM     14  S   UNL     1      48.323   5.623  19.984  0.00  0.00    +0.000 S 
ATOM     15  C   UNL     1      47.931   7.255  19.699  0.00  0.00    +0.000 A 
ATOM     16  N   UNL     1      47.457   8.055  20.694  0.00  0.00    +0.000 NA
ATOM     17  C   UNL     1      47.217   9.270  20.327  0.00  0.00    +0.000 A 
ATOM     18  N   UNL     1      47.412   9.769  19.069  0.00  0.00    +0.000 N 
ATOM     19  C   UNL     1      47.847   8.995  18.030  0.00  0.00    +0.000 A 
ATOM     20  O   UNL     1      47.921   9.455  16.894  0.00  0.00    +0.000 OA
ATOM     21  C   UNL     1      48.146   7.616  18.385  0.00  0.00    +0.000 A 
ATOM     22  H   UNL     1      47.180  10.721  18.836  0.00  0.00    +0.000 HD
ENDBRANCH   9  12
ENDBRANCH   7  10
ENDBRANCH   1   7
BRANCH   4  23
ATOM     23  C   UNL     1      43.757   4.856  10.739  0.00  0.00    +0.000 C 
BRANCH  23  24
ATOM     24  N   UNL     1      44.192   4.553   9.363  0.00  0.00    +0.000 NA
ATOM     25  H   UNL     1      44.985   5.153   9.140  0.00  0.00    +0.000 HD
BRANCH  24  26
ATOM     26  C   UNL     1      44.617   3.150   9.301  0.00  0.00    +0.000 C 
BRANCH  26  27
ATOM     27  C   UNL     1      45.857   2.801   8.462  0.00  0.00    +0.000 C 
ATOM     28  C   UNL     1      45.923   1.319   8.082  0.00  0.00    +0.000 C 
ATOM     29  C   UNL     1      47.339   1.017   7.603  0.00  0.00    +0.000 C 
ATOM     30  C   UNL     1      47.751   1.942   6.456  0.00  0.00    +0.000 C 
ATOM     31  N   UNL     1      47.520   3.360   6.749  0.00  0.00    +0.000 NA
ATOM     32  C   UNL     1      46.139   3.628   7.195  0.00  0.00    +0.000 C 
ATOM     33  H   UNL     1      47.740   3.916   5.924  0.00  0.00    +0.000 HD
ENDBRANCH  26  27
ENDBRANCH  24  26
ENDBRANCH  23  24
ENDBRANCH   4  23
TORSDOF 7
ENDMDL
MODEL 6
REMARK VINA RESULT:    -7.163      2.235      3.223
REMARK INTER + INTRA:         -11.257
REMARK INTER:                 -10.334
REMARK INTRA:                  -0.923
REMARK UNBOUND:                -1.163
REMARK  Name = 
REMARK  7 active torsions:
REMARK  status: ('A' for Active; 'I' for Inactive)
REMARK    1  A    between atoms: C_2  and  C_20
REMARK    2  A    between atoms: N_3  and  C_4
REMARK    3  A    between atoms: C_4  and  C_5
REMARK    4  A    between atoms: C_8  and  C_9
REMARK    5  A    between atoms: C_9  and  N_10
REMARK    6  A    between atoms: N_10  and  C_11
REMARK    7  A    between atoms: C_11  and  C_12
REMARK                            x       y       z     vdW  Elec       q    Type
REMARK                         _______ _______ _______ _____ _____    ______ ____
ROOT
ATOM      1  C   UNL     1      46.563   4.504  13.880  0.00  0.00    +0.000 A 
ATOM      2  C   UNL     1      45.394   3.964  13.343  0.00  0.00    +0.000 A 
ATOM      3  C   UNL     1      44.873   4.502  12.175  0.00  0.00    +0.000 A 
ATOM      4  C   UNL     1      45.509   5.580  11.561  0.00  0.00    +0.000 A 
ATOM      5  C   UNL     1      46.674   6.051  12.165  0.00  0.00    +0.000 A 
ATOM      6  N   UNL     1      47.209   5.548  13.304  0.00  0.00    +0.000 NA
ENDROOT
BRANCH   1   7
ATOM      7  C   UNL     1      47.171   3.874  15.109  0.00  0.00    +0.000 C 
BRANCH   7  10
ATOM      8  O   UNL     1      46.943   3.572  17.874  0.00  0.00    +0.000 OA
ATOM      9  C   UNL     1      47.453   4.608  17.428  0.00  0.00    +0.000 C 
ATOM     10  N   UNL     1      47.568   4.855  16.090  0.00  0.00    +0.000 N 
ATOM     11  H   UNL     1      48.261   5.527  15.767  0.00  0.00    +0.000 HD
BRANCH   9  12
ATOM     12  C   UNL     1      47.907   5.669  18.313  0.00  0.00    +0.000 A 
ATOM     13  C   UNL     1      47.038   6.351  19.152  0.00  0.00    +0.000 A 
ATOM     14  S   UNL     1      47.817   7.560  20.077  0.00  0.00    +0.000 S 
ATOM     15  C   UNL     1      49.332   7.184  19.398  0.00  0.00    +0.000 A 
ATOM     16  N   UNL     1      50.459   7.857  19.760  0.00  0.00    +0.000 NA
ATOM     17  C   UNL     1      51.532   7.450  19.169  0.00  0.00    +0.000 A 
ATOM     18  N   UNL     1      51.596   6.431  18.259  0.00  0.00    +0.000 N 
ATOM     19  C   UNL     1      50.487   5.754  17.835  0.00  0.00    +0.000 A 
ATOM     20  O   UNL     1      50.570   4.909  16.948  0.00  0.00    +0.000 OA
ATOM     21  C   UNL     1      49.246   6.161  18.476  0.00  0.00    +0.000 A 
ATOM     22  H   UNL     1      52.460   6.177  17.810  0.00  0.00    +0.000 HD
ENDBRANCH   9  12
ENDBRANCH   7  10
ENDBRANCH   1   7
BRANCH   4  23
ATOM     23  C   UNL     1      45.014   6.174  10.271  0.00  0.00    +0.000 C 
BRANCH  23  24
ATOM     24  N   UNL     1      45.585   5.534   9.071  0.00  0.00    +0.000 NA
ATOM     25  H   UNL     1      46.527   5.217   9.296  0.00  0.00    +0.000 HD
BRANCH  24  26
ATOM     26  C   UNL     1      44.759   4.376   8.714  0.00  0.00    +0.000 C 
BRANCH  26  27
ATOM     27  C   UNL     1      45.446   3.161   8.069  0.00  0.00    +0.000 C 
ATOM     28  C   UNL     1      46.698   3.537   7.273  0.00  0.00    +0.000 C 
ATOM     29  C   UNL     1      47.067   2.353   6.385  0.00  0.00    +0.000 C 
ATOM     30  C   UNL     1      47.246   1.073   7.204  0.00  0.00    +0.000 C 
ATOM     31  N   UNL     1      46.120   0.804   8.105  0.00  0.00    +0.000 NA
ATOM     32  C   UNL     1      45.795   1.959   8.964  0.00  0.00    +0.000 C 
ATOM     33  H   UNL     1      46.332  -0.013   8.675  0.00  0.00    +0.000 HD
ENDBRANCH  26  27
ENDBRANCH  24  26
ENDBRANCH  23  24
ENDBRANCH   4  23
TORSDOF 7
ENDMDL
MODEL 7
REMARK VINA RESULT:    -7.153      1.923      2.994
REMARK INTER + INTRA:         -11.243
REMARK INTER:                 -10.572
REMARK INTRA:                  -0.671
REMARK UNBOUND:                -1.163
REMARK  Name = 
REMARK  7 active torsions:
REMARK  status: ('A' for Active; 'I' for Inactive)
REMARK    1  A    between atoms: C_2  and  C_20
REMARK    2  A    between atoms: N_3  and  C_4
REMARK    3  A    between atoms: C_4  and  C_5
REMARK    4  A    between atoms: C_8  and  C_9
REMARK    5  A    between atoms: C_9  and  N_10
REMARK    6  A    between atoms: N_10  and  C_11
REMARK    7  A    between atoms: C_11  and  C_12
REMARK                            x       y       z     vdW  Elec       q    Type
REMARK                         _______ _______ _______ _____ _____    ______ ____
ROOT
ATOM      1  C   UNL     1      45.859   6.564  12.406  0.00  0.00    +0.000 A 
ATOM      2  C   UNL     1      45.807   6.339  11.030  0.00  0.00    +0.000 A 
ATOM      3  C   UNL     1      45.112   5.240  10.548  0.00  0.00    +0.000 A 
ATOM      4  C   UNL     1      44.487   4.366  11.437  0.00  0.00    +0.000 A 
ATOM      5  C   UNL     1      44.587   4.672  12.794  0.00  0.00    +0.000 A 
ATOM      6  N   UNL     1      45.257   5.737  13.296  0.00  0.00    +0.000 NA
ENDROOT
BRANCH   1   7
ATOM      7  C   UNL     1      46.552   7.799  12.927  0.00  0.00    +0.000 C 
BRANCH   7  10
ATOM      8  O   UNL     1      48.919   6.321  12.999  0.00  0.00    +0.000 OA
ATOM      9  C   UNL     1      48.500   6.827  14.048  0.00  0.00    +0.000 C 
ATOM     10  N   UNL     1      47.332   7.531  14.112  0.00  0.00    +0.000 N 
ATOM     11  H   UNL     1      47.189   8.190  14.875  0.00  0.00    +0.000 HD
BRANCH   9  12
ATOM     12  C   UNL     1      49.201   6.643  15.309  0.00  0.00    +0.000 A 
ATOM     13  C   UNL     1      48.653   5.923  16.359  0.00  0.00    +0.000 A 
ATOM     14  S   UNL     1      49.671   5.868  17.733  0.00  0.00    +0.000 S 
ATOM     15  C   UNL     1      50.874   6.782  16.948  0.00  0.00    +0.000 A 
ATOM     16  N   UNL     1      52.041   7.104  17.573  0.00  0.00    +0.000 NA
ATOM     17  C   UNL     1      52.859   7.789  16.846  0.00  0.00    +0.000 A 
ATOM     18  N   UNL     1      52.635   8.176  15.554  0.00  0.00    +0.000 N 
ATOM     19  C   UNL     1      51.464   7.912  14.900  0.00  0.00    +0.000 A 
ATOM     20  O   UNL     1      51.262   8.356  13.774  0.00  0.00    +0.000 OA
ATOM     21  C   UNL     1      50.505   7.131  15.666  0.00  0.00    +0.000 A 
ATOM     22  H   UNL     1      53.301   8.734  15.046  0.00  0.00    +0.000 HD
ENDBRANCH   9  12
ENDBRANCH   7  10
ENDBRANCH   1   7
BRANCH   4  23
ATOM     23  C   UNL     1      43.684   3.185  10.969  0.00  0.00    +0.000 C 
BRANCH  23  24
ATOM     24  N   UNL     1      43.831   2.906   9.528  0.00  0.00    +0.000 NA
ATOM     25  H   UNL     1      44.009   3.789   9.050  0.00  0.00    +0.000 HD
BRANCH  24  26
ATOM     26  C   UNL     1      44.977   2.013   9.334  0.00  0.00    +0.000 C 
BRANCH  26  27
ATOM     27  C   UNL     1      46.025   2.391   8.274  0.00  0.00    +0.000 C 
ATOM     28  C   UNL     1      46.639   1.172   7.580  0.00  0.00    +0.000 C 
ATOM     29  C   UNL     1      47.899   1.627   6.853  0.00  0.00    +0.000 C 
ATOM     30  C   UNL     1      47.604   2.775   5.885  0.00  0.00    +0.000 C 
ATOM     31  N   UNL     1      46.855   3.872   6.506  0.00  0.00    +0.000 NA
ATOM     32  C   UNL     1      45.632   3.407   7.188  0.00  0.00    +0.000 C 
ATOM     33  H   UNL     1      46.623   4.566   5.796  0.00  0.00    +0.000 HD
ENDBRANCH  26  27
ENDBRANCH  24  26
ENDBRANCH  23  24
ENDBRANCH   4  23
TORSDOF 7
ENDMDL
MODEL 8
REMARK VINA RESULT:    -6.986      2.868      8.489
REMARK INTER + INTRA:         -11.008
REMARK INTER:                  -9.792
REMARK INTRA:                  -1.216
REMARK UNBOUND:                -1.163
REMARK  Name = 
REMARK  7 active torsions:
REMARK  status: ('A' for Active; 'I' for Inactive)
REMARK    1  A    between atoms: C_2  and  C_20
REMARK    2  A    between atoms: N_3  and  C_4
REMARK    3  A    between atoms: C_4  and  C_5
REMARK    4  A    between atoms: C_8  and  C_9
REMARK    5  A    between atoms: C_9  and  N_10
REMARK    6  A    between atoms: N_10  and  C_11
REMARK    7  A    between atoms: C_11  and  C_12
REMARK                            x       y       z     vdW  Elec       q    Type
REMARK                         _______ _______ _______ _____ _____    ______ ____
ROOT
ATOM      1  C   UNL     1      48.241   7.844  13.348  0.00  0.00    +0.000 A 
ATOM      2  C   UNL     1      47.701   8.782  14.228  0.00  0.00    +0.000 A 
ATOM      3  C   UNL     1      48.290   8.962  15.472  0.00  0.00    +0.000 A 
ATOM      4  C   UNL     1      49.400   8.200  15.834  0.00  0.00    +0.000 A 
ATOM      5  C   UNL     1      49.874   7.291  14.890  0.00  0.00    +0.000 A 
ATOM      6  N   UNL     1      49.323   7.092  13.668  0.00  0.00    +0.000 NA
ENDROOT
BRANCH   1   7
ATOM      7  C   UNL     1      47.646   7.698  11.969  0.00  0.00    +0.000 C 
BRANCH   7  10
ATOM      8  O   UNL     1      44.869   7.519  11.766  0.00  0.00    +0.000 OA
ATOM      9  C   UNL     1      45.540   6.482  11.692  0.00  0.00    +0.000 C 
ATOM     10  N   UNL     1      46.899   6.473  11.820  0.00  0.00    +0.000 N 
ATOM     11  H   UNL     1      47.429   5.692  11.437  0.00  0.00    +0.000 HD
BRANCH   9  12
ATOM     12  C   UNL     1      44.907   5.182  11.528  0.00  0.00    +0.000 A 
ATOM     13  C   UNL     1      44.180   4.583  12.545  0.00  0.00    +0.000 A 
ATOM     14  S   UNL     1      43.552   3.054  12.104  0.00  0.00    +0.000 S 
ATOM     15  C   UNL     1      44.216   3.169  10.541  0.00  0.00    +0.000 A 
ATOM     16  N   UNL     1      44.051   2.175   9.625  0.00  0.00    +0.000 NA
ATOM     17  C   UNL     1      44.601   2.411   8.481  0.00  0.00    +0.000 A 
ATOM     18  N   UNL     1      45.291   3.546   8.156  0.00  0.00    +0.000 N 
ATOM     19  C   UNL     1      45.518   4.552   9.053  0.00  0.00    +0.000 A 
ATOM     20  O   UNL     1      46.221   5.512   8.753  0.00  0.00    +0.000 OA
ATOM     21  C   UNL     1      44.911   4.347  10.359  0.00  0.00    +0.000 A 
ATOM     22  H   UNL     1      45.723   3.663   7.253  0.00  0.00    +0.000 HD
ENDBRANCH   9  12
ENDBRANCH   7  10
ENDBRANCH   1   7
BRANCH   4  23
ATOM     23  C   UNL     1      50.104   8.384  17.149  0.00  0.00    +0.000 C 
BRANCH  23  24
ATOM     24  N   UNL     1      50.731   7.151  17.660  0.00  0.00    +0.000 NA
ATOM     25  H   UNL     1      51.573   7.410  18.172  0.00  0.00    +0.000 HD
BRANCH  24  26
ATOM     26  C   UNL     1      49.795   6.490  18.575  0.00  0.00    +0.000 C 
BRANCH  26  27
ATOM     27  C   UNL     1      48.937   5.335  18.032  0.00  0.00    +0.000 C 
ATOM     28  C   UNL     1      49.666   3.989  18.052  0.00  0.00    +0.000 C 
ATOM     29  C   UNL     1      48.894   3.020  17.162  0.00  0.00    +0.000 C 
ATOM     30  C   UNL     1      47.430   2.909  17.593  0.00  0.00    +0.000 C 
ATOM     31  N   UNL     1      46.776   4.212  17.749  0.00  0.00    +0.000 NA
ATOM     32  C   UNL     1      47.534   5.124  18.627  0.00  0.00    +0.000 C 
ATOM     33  H   UNL     1      45.833   4.075  18.110  0.00  0.00    +0.000 HD
ENDBRANCH  26  27
ENDBRANCH  24  26
ENDBRANCH  23  24
ENDBRANCH   4  23
TORSDOF 7
ENDMDL
MODEL 9
REMARK VINA RESULT:    -6.949      4.943      9.019
REMARK INTER + INTRA:         -10.955
REMARK INTER:                 -10.060
REMARK INTRA:                  -0.895
REMARK UNBOUND:                -1.163
REMARK  Name = 
REMARK  7 active torsions:
REMARK  status: ('A' for Active; 'I' for Inactive)
REMARK    1  A    between atoms: C_2  and  C_20
REMARK    2  A    between atoms: N_3  and  C_4
REMARK    3  A    between atoms: C_4  and  C_5
REMARK    4  A    between atoms: C_8  and  C_9
REMARK    5  A    between atoms: C_9  and  N_10
REMARK    6  A    between atoms: N_10  and  C_11
REMARK    7  A    between atoms: C_11  and  C_12
REMARK                            x       y       z     vdW  Elec       q    Type
REMARK                         _______ _______ _______ _____ _____    ______ ____
ROOT
ATOM      1  C   UNL     1      49.519   4.617  17.184  0.00  0.00    +0.000 A 
ATOM      2  C   UNL     1      48.898   3.368  17.163  0.00  0.00    +0.000 A 
ATOM      3  C   UNL     1      49.674   2.223  17.276  0.00  0.00    +0.000 A 
ATOM      4  C   UNL     1      51.060   2.330  17.394  0.00  0.00    +0.000 A 
ATOM      5  C   UNL     1      51.592   3.618  17.411  0.00  0.00    +0.000 A 
ATOM      6  N   UNL     1      50.863   4.755  17.305  0.00  0.00    +0.000 NA
ENDROOT
BRANCH   1   7
ATOM      7  C   UNL     1      48.671   5.864  17.136  0.00  0.00    +0.000 C 
BRANCH   7  10
ATOM      8  O   UNL     1      49.413   6.638  14.559  0.00  0.00    +0.000 OA
ATOM      9  C   UNL     1      48.255   6.248  14.754  0.00  0.00    +0.000 C 
ATOM     10  N   UNL     1      47.796   5.888  15.988  0.00  0.00    +0.000 N 
ATOM     11  H   UNL     1      46.982   5.280  16.058  0.00  0.00    +0.000 HD
BRANCH   9  12
ATOM     12  C   UNL     1      47.278   6.211  13.676  0.00  0.00    +0.000 A 
ATOM     13  C   UNL     1      46.895   7.353  12.990  0.00  0.00    +0.000 A 
ATOM     14  S   UNL     1      45.725   7.043  11.781  0.00  0.00    +0.000 S 
ATOM     15  C   UNL     1      45.722   5.377  12.131  0.00  0.00    +0.000 A 
ATOM     16  N   UNL     1      44.926   4.510  11.447  0.00  0.00    +0.000 NA
ATOM     17  C   UNL     1      45.043   3.278  11.817  0.00  0.00    +0.000 A 
ATOM     18  N   UNL     1      45.884   2.824  12.795  0.00  0.00    +0.000 N 
ATOM     19  C   UNL     1      46.672   3.660  13.536  0.00  0.00    +0.000 A 
ATOM     20  O   UNL     1      47.343   3.227  14.467  0.00  0.00    +0.000 OA
ATOM     21  C   UNL     1      46.590   5.062  13.156  0.00  0.00    +0.000 A 
ATOM     22  H   UNL     1      45.912   1.852  13.059  0.00  0.00    +0.000 HD
ENDBRANCH   9  12
ENDBRANCH   7  10
ENDBRANCH   1   7
BRANCH   4  23
ATOM     23  C   UNL     1      51.944   1.126  17.563  0.00  0.00    +0.000 C 
BRANCH  23  24
ATOM     24  N   UNL     1      52.955   1.283  18.626  0.00  0.00    +0.000 NA
ATOM     25  H   UNL     1      52.681   0.698  19.415  0.00  0.00    +0.000 HD
BRANCH  24  26
ATOM     26  C   UNL     1      54.252   0.825  18.116  0.00  0.00    +0.000 C 
BRANCH  26  27
ATOM     27  C   UNL     1      54.346  -0.595  17.535  0.00  0.00    +0.000 C 
ATOM     28  C   UNL     1      55.471  -0.746  16.507  0.00  0.00    +0.000 C 
ATOM     29  C   UNL     1      55.235  -2.039  15.734  0.00  0.00    +0.000 C 
ATOM     30  C   UNL     1      55.126  -3.241  16.675  0.00  0.00    +0.000 C 
ATOM     31  N   UNL     1      54.176  -3.029  17.771  0.00  0.00    +0.000 NA
ATOM     32  C   UNL     1      54.436  -1.780  18.512  0.00  0.00    +0.000 C 
ATOM     33  H   UNL     1      54.206  -3.829  18.403  0.00  0.00    +0.000 HD
ENDBRANCH  26  27
ENDBRANCH  24  26
ENDBRANCH  23  24
ENDBRANCH   4  23
TORSDOF 7
ENDMDL
