MODEL 1
REMARK VINA RESULT:    -6.936      0.000      0.000
REMARK INTER + INTRA:          -9.081
REMARK INTER:                  -8.761
REMARK INTRA:                  -0.320
REMARK UNBOUND:                -0.320
REMARK  Name = 
REMARK  5 active torsions:
REMARK  status: ('A' for Active; 'I' for Inactive)
REMARK    1  A    between atoms: N_1  and  C_2
REMARK    2  A    between atoms: C_2  and  C_3
REMARK    3  A    between atoms: C_6  and  S_7
REMARK    4  A    between atoms: S_7  and  C_8
REMARK    5  A    between atoms: C_8  and  C_9
REMARK                            x       y       z     vdW  Elec       q    Type
REMARK                         _______ _______ _______ _____ _____    ______ ____
ROOT
ATOM      1  C   UNL     1      46.606   2.334   7.488  0.00  0.00    +0.000 A 
ATOM      2  C   UNL     1      45.892   1.574   8.427  0.00  0.00    +0.000 A 
ATOM      3  C   UNL     1      45.026   2.188   9.346  0.00  0.00    +0.000 A 
ATOM      4  C   UNL     1      44.863   3.574   9.350  0.00  0.00    +0.000 A 
ATOM      5  C   UNL     1      45.557   4.330   8.397  0.00  0.00    +0.000 A 
ATOM      6  C   UNL     1      46.420   3.721   7.480  0.00  0.00    +0.000 A 
ENDROOT
BRANCH   1   7
ATOM      7  C   UNL     1      47.578   1.687   6.532  0.00  0.00    +0.000 C 
BRANCH   7   8
ATOM      8  N   UNL     1      48.719   2.547   6.240  0.00  0.00    +0.000 NA
ATOM      9  H   UNL     1      49.513   2.242   6.801  0.00  0.00    +0.000 HD
ATOM     10  H   UNL     1      48.503   3.495   6.545  0.00  0.00    +0.000 HD
ENDBRANCH   7   8
ENDBRANCH   1   7
BRANCH   4  11
ATOM     11  S   UNL     1      43.745   4.456  10.435  0.00  0.00    +0.000 S 
BRANCH  11  12
ATOM     12  C   UNL     1      44.373   4.046  12.104  0.00  0.00    +0.000 C 
BRANCH  12  13
ATOM     13  C   UNL     1      45.628   4.817  12.451  0.00  0.00    +0.000 A 
ATOM     14  C   UNL     1      46.441   4.443  13.518  0.00  0.00    +0.000 A 
ATOM     15  N   UNL     1      47.563   5.122  13.873  0.00  0.00    +0.000 NA
ATOM     16  C   UNL     1      47.850   6.201  13.109  0.00  0.00    +0.000 A 
ATOM     17  C   UNL     1      47.049   6.586  12.049  0.00  0.00    +0.000 A 
ATOM     18  N   UNL     1      45.926   5.915  11.702  0.00  0.00    +0.000 NA
ENDBRANCH  12  13
ENDBRANCH  11  12
ENDBRANCH   4  11
TORSDOF 5
ENDMDL
MODEL 2
REMARK VINA RESULT:    -6.387      1.555      5.708
REMARK INTER + INTRA:          -8.388
REMARK INTER:                  -8.086
REMARK INTRA:                  -0.302
REMARK UNBOUND:                -0.320
REMARK  Name = 
REMARK  5 active torsions:
REMARK  status: ('A' for Active; 'I' for Inactive)
REMARK    1  A    between atoms: N_1  and  C_2
REMARK    2  A    between atoms: C_2  and  C_3
REMARK    3  A    between atoms: C_6  and  S_7
REMARK    4  A    between atoms: S_7  and  C_8
REMARK    5  A    between atoms: C_8  and  C_9
REMARK                            x       y       z     vdW  Elec       q    Type
REMARK                         _______ _______ _______ _____ _____    ______ ____
ROOT
ATOM      1  C   UNL     1      47.056   5.803  13.003  0.00  0.00    +0.000 A 
ATOM      2  C   UNL     1      46.555   4.574  13.458  0.00  0.00    +0.000 A 
ATOM      3  C   UNL     1      45.608   3.858  12.708  0.00  0.00    +0.000 A 
ATOM      4  C   UNL     1      45.137   4.360  11.494  0.00  0.00    +0.000 A 
ATOM      5  C   UNL     1      45.656   5.576  11.029  0.00  0.00    +0.000 A 
ATOM      6  C   UNL     1      46.599   6.291  11.774  0.00  0.00    +0.000 A 
ENDROOT
BRANCH   1   7
ATOM      7  C   UNL     1      48.034   6.604  13.828  0.00  0.00    +0.000 C 
BRANCH   7   8
ATOM      8  N   UNL     1      49.341   6.705  13.189  0.00  0.00    +0.000 NA
ATOM      9  H   UNL     1      49.772   7.589  13.457  0.00  0.00    +0.000 HD
ATOM     10  H   UNL     1      49.210   6.748  12.179  0.00  0.00    +0.000 HD
ENDBRANCH   7   8
ENDBRANCH   1   7
BRANCH   4  11
ATOM     11  S   UNL     1      43.977   3.508  10.430  0.00  0.00    +0.000 S 
BRANCH  11  12
ATOM     12  C   UNL     1      44.522   3.989   8.750  0.00  0.00    +0.000 C 
BRANCH  12  13
ATOM     13  C   UNL     1      45.546   3.030   8.182  0.00  0.00    +0.000 A 
ATOM     14  C   UNL     1      45.564   1.685   8.543  0.00  0.00    +0.000 A 
ATOM     15  N   UNL     1      46.481   0.800   8.073  0.00  0.00    +0.000 NA
ATOM     16  C   UNL     1      47.388   1.313   7.210  0.00  0.00    +0.000 A 
ATOM     17  C   UNL     1      47.384   2.647   6.846  0.00  0.00    +0.000 A 
ATOM     18  N   UNL     1      46.477   3.532   7.324  0.00  0.00    +0.000 NA
ENDBRANCH  12  13
ENDBRANCH  11  12
ENDBRANCH   4  11
TORSDOF 5
ENDMDL
MODEL 3
REMARK VINA RESULT:    -5.967      2.006      6.254
REMARK INTER + INTRA:          -7.857
REMARK INTER:                  -7.615
REMARK INTRA:                  -0.242
REMARK UNBOUND:                -0.320
REMARK  Name = 
REMARK  5 active torsions:
REMARK  status: ('A' for Active; 'I' for Inactive)
REMARK    1  A    between atoms: N_1  and  C_2
REMARK    2  A    between atoms: C_2  and  C_3
REMARK    3  A    between atoms: C_6  and  S_7
REMARK    4  A    between atoms: S_7  and  C_8
REMARK    5  A    between atoms: C_8  and  C_9
REMARK                            x       y       z     vdW  Elec       q    Type
REMARK                         _______ _______ _______ _____ _____    ______ ____
ROOT
ATOM      1  C   UNL     1      45.694   7.350  12.444  0.00  0.00    +0.000 A 
ATOM      2  C   UNL     1      46.243   6.242  13.107  0.00  0.00    +0.000 A 
ATOM      3  C   UNL     1      45.936   4.933  12.704  0.00  0.00    +0.000 A 
ATOM      4  C   UNL     1      45.067   4.705  11.635  0.00  0.00    +0.000 A 
ATOM      5  C   UNL     1      44.538   5.812  10.958  0.00  0.00    +0.000 A 
ATOM      6  C   UNL     1      44.843   7.117  11.358  0.00  0.00    +0.000 A 
ENDROOT
BRANCH   1   7
ATOM      7  C   UNL     1      45.979   8.759  12.904  0.00  0.00    +0.000 C 
BRANCH   7   8
ATOM      8  N   UNL     1      44.811   9.625  12.785  0.00  0.00    +0.000 NA
ATOM      9  H   UNL     1      44.171   9.224  12.101  0.00  0.00    +0.000 HD
ATOM     10  H   UNL     1      45.107  10.523  12.406  0.00  0.00    +0.000 HD
ENDBRANCH   7   8
ENDBRANCH   1   7
BRANCH   4  11
ATOM     11  S   UNL     1      44.650   3.085  11.000  0.00  0.00    +0.000 S 
BRANCH  11  12
ATOM     12  C   UNL     1      44.469   3.376   9.202  0.00  0.00    +0.000 C 
BRANCH  12  13
ATOM     13  C   UNL     1      45.586   2.740   8.403  0.00  0.00    +0.000 A 
ATOM     14  C   UNL     1      46.374   3.487   7.531  0.00  0.00    +0.000 A 
ATOM     15  N   UNL     1      47.370   2.949   6.780  0.00  0.00    +0.000 NA
ATOM     16  C   UNL     1      47.557   1.618   6.938  0.00  0.00    +0.000 A 
ATOM     17  C   UNL     1      46.779   0.864   7.797  0.00  0.00    +0.000 A 
ATOM     18  N   UNL     1      45.779   1.399   8.537  0.00  0.00    +0.000 NA
ENDBRANCH  12  13
ENDBRANCH  11  12
ENDBRANCH   4  11
TORSDOF 5
ENDMDL
MODEL 4
REMARK VINA RESULT:    -4.867      4.018      8.125
REMARK INTER + INTRA:          -6.467
REMARK INTER:                  -6.276
REMARK INTRA:                  -0.191
REMARK UNBOUND:                -0.320
REMARK  Name = 
REMARK  5 active torsions:
REMARK  status: ('A' for Active; 'I' for Inactive)
REMARK    1  A    between atoms: N_1  and  C_2
REMARK    2  A    between atoms: C_2  and  C_3
REMARK    3  A    between atoms: C_6  and  S_7
REMARK    4  A    between atoms: S_7  and  C_8
REMARK    5  A    between atoms: C_8  and  C_9
REMARK                            x       y       z     vdW  Elec       q    Type
REMARK                         _______ _______ _______ _____ _____    ______ ____
ROOT
ATOM      1  C   UNL     1      48.748   4.696  18.451  0.00  0.00    +0.000 A 
ATOM      2  C   UNL     1      47.914   3.748  17.839  0.00  0.00    +0.000 A 
ATOM      3  C   UNL     1      47.451   3.931  16.526  0.00  0.00    +0.000 A 
ATOM      4  C   UNL     1      47.806   5.071  15.802  0.00  0.00    +0.000 A 
ATOM      5  C   UNL     1      48.659   6.005  16.404  0.00  0.00    +0.000 A 
ATOM      6  C   UNL     1      49.121   5.824  17.712  0.00  0.00    +0.000 A 
ENDROOT
BRANCH   1   7
ATOM      7  C   UNL     1      49.206   4.531  19.879  0.00  0.00    +0.000 C 
BRANCH   7   8
ATOM      8  N   UNL     1      48.306   3.685  20.653  0.00  0.00    +0.000 NA
ATOM      9  H   UNL     1      47.362   4.064  20.592  0.00  0.00    +0.000 HD
ATOM     10  H   UNL     1      48.570   3.738  21.636  0.00  0.00    +0.000 HD
ENDBRANCH   7   8
ENDBRANCH   1   7
BRANCH   4  11
ATOM     11  S   UNL     1      47.324   5.380  14.106  0.00  0.00    +0.000 S 
BRANCH  11  12
ATOM     12  C   UNL     1      46.617   3.779  13.574  0.00  0.00    +0.000 C 
BRANCH  12  13
ATOM     13  C   UNL     1      45.415   3.953  12.672  0.00  0.00    +0.000 A 
ATOM     14  C   UNL     1      45.272   5.073  11.857  0.00  0.00    +0.000 A 
ATOM     15  N   UNL     1      44.197   5.276  11.051  0.00  0.00    +0.000 NA
ATOM     16  C   UNL     1      43.259   4.302  11.085  0.00  0.00    +0.000 A 
ATOM     17  C   UNL     1      43.386   3.187  11.893  0.00  0.00    +0.000 A 
ATOM     18  N   UNL     1      44.452   2.990  12.704  0.00  0.00    +0.000 NA
ENDBRANCH  12  13
ENDBRANCH  11  12
ENDBRANCH   4  11
TORSDOF 5
ENDMDL
MODEL 5
REMARK VINA RESULT:    -4.821      3.683      5.126
REMARK INTER + INTRA:          -6.410
REMARK INTER:                  -6.127
REMARK INTRA:                  -0.282
REMARK UNBOUND:                -0.320
REMARK  Name = 
REMARK  5 active torsions:
REMARK  status: ('A' for Active; 'I' for Inactive)
REMARK    1  A    between atoms: N_1  and  C_2
REMARK    2  A    between atoms: C_2  and  C_3
REMARK    3  A    between atoms: C_6  and  S_7
REMARK    4  A    between atoms: S_7  and  C_8
REMARK    5  A    between atoms: C_8  and  C_9
REMARK                            x       y       z     vdW  Elec       q    Type
REMARK                         _______ _______ _______ _____ _____    ______ ____
ROOT
ATOM      1  C   UNL     1      44.438   4.206  11.581  0.00  0.00    +0.000 A 
ATOM      2  C   UNL     1      45.053   4.873  10.511  0.00  0.00    +0.000 A 
ATOM      3  C   UNL     1      45.911   5.962  10.734  0.00  0.00    +0.000 A 
ATOM      4  C   UNL     1      46.164   6.411  12.032  0.00  0.00    +0.000 A 
ATOM      5  C   UNL     1      45.568   5.729  13.101  0.00  0.00    +0.000 A 
ATOM      6  C   UNL     1      44.713   4.645  12.881  0.00  0.00    +0.000 A 
ENDROOT
BRANCH   1   7
ATOM      7  C   UNL     1      43.474   3.069  11.346  0.00  0.00    +0.000 C 
BRANCH   7   8
ATOM      8  N   UNL     1      43.500   2.091  12.427  0.00  0.00    +0.000 NA
ATOM      9  H   UNL     1      44.302   1.475  12.295  0.00  0.00    +0.000 HD
ATOM     10  H   UNL     1      42.673   1.500  12.354  0.00  0.00    +0.000 HD
ENDBRANCH   7   8
ENDBRANCH   1   7
BRANCH   4  11
ATOM     11  S   UNL     1      47.282   7.748  12.438  0.00  0.00    +0.000 S 
BRANCH  11  12
ATOM     12  C   UNL     1      48.729   6.881  13.146  0.00  0.00    +0.000 C 
BRANCH  12  13
ATOM     13  C   UNL     1      48.736   6.916  14.659  0.00  0.00    +0.000 A 
ATOM     14  C   UNL     1      48.884   8.110  15.360  0.00  0.00    +0.000 A 
ATOM     15  N   UNL     1      48.918   8.179  16.716  0.00  0.00    +0.000 NA
ATOM     16  C   UNL     1      48.790   6.994  17.357  0.00  0.00    +0.000 A 
ATOM     17  C   UNL     1      48.647   5.800  16.673  0.00  0.00    +0.000 A 
ATOM     18  N   UNL     1      48.625   5.731  15.322  0.00  0.00    +0.000 NA
ENDBRANCH  12  13
ENDBRANCH  11  12
ENDBRANCH   4  11
TORSDOF 5
ENDMDL
MODEL 6
REMARK VINA RESULT:    -4.759      5.191      8.232
REMARK INTER + INTRA:          -6.332
REMARK INTER:                  -6.088
REMARK INTRA:                  -0.244
REMARK UNBOUND:                -0.320
REMARK  Name = 
REMARK  5 active torsions:
REMARK  status: ('A' for Active; 'I' for Inactive)
REMARK    1  A    between atoms: N_1  and  C_2
REMARK    2  A    between atoms: C_2  and  C_3
REMARK    3  A    between atoms: C_6  and  S_7
REMARK    4  A    between atoms: S_7  and  C_8
REMARK    5  A    between atoms: C_8  and  C_9
REMARK                            x       y       z     vdW  Elec       q    Type
REMARK                         _______ _______ _______ _____ _____    ______ ____
ROOT
ATOM      1  C   UNL     1      51.810   2.342  17.745  0.00  0.00    +0.000 A 
ATOM      2  C   UNL     1      50.601   1.754  17.345  0.00  0.00    +0.000 A 
ATOM      3  C   UNL     1      49.456   2.535  17.124  0.00  0.00    +0.000 A 
ATOM      4  C   UNL     1      49.494   3.918  17.307  0.00  0.00    +0.000 A 
ATOM      5  C   UNL     1      50.708   4.508  17.683  0.00  0.00    +0.000 A 
ATOM      6  C   UNL     1      51.851   3.732  17.904  0.00  0.00    +0.000 A 
ENDROOT
BRANCH   1   7
ATOM      7  C   UNL     1      53.031   1.504  18.035  0.00  0.00    +0.000 C 
BRANCH   7   8
ATOM      8  N   UNL     1      52.718   0.082  18.115  0.00  0.00    +0.000 NA
ATOM      9  H   UNL     1      51.986  -0.133  17.440  0.00  0.00    +0.000 HD
ATOM     10  H   UNL     1      52.324  -0.116  19.034  0.00  0.00    +0.000 HD
ENDBRANCH   7   8
ENDBRANCH   1   7
BRANCH   4  11
ATOM     11  S   UNL     1      48.115   5.017  16.999  0.00  0.00    +0.000 S 
BRANCH  11  12
ATOM     12  C   UNL     1      47.140   4.119  15.738  0.00  0.00    +0.000 C 
BRANCH  12  13
ATOM     13  C   UNL     1      47.006   4.903  14.451  0.00  0.00    +0.000 A 
ATOM     14  C   UNL     1      45.882   4.783  13.637  0.00  0.00    +0.000 A 
ATOM     15  N   UNL     1      45.735   5.453  12.464  0.00  0.00    +0.000 NA
ATOM     16  C   UNL     1      46.765   6.264  12.132  0.00  0.00    +0.000 A 
ATOM     17  C   UNL     1      47.890   6.390  12.927  0.00  0.00    +0.000 A 
ATOM     18  N   UNL     1      48.040   5.714  14.091  0.00  0.00    +0.000 NA
ENDBRANCH  12  13
ENDBRANCH  11  12
ENDBRANCH   4  11
TORSDOF 5
ENDMDL
MODEL 7
REMARK VINA RESULT:    -4.669      4.053      5.522
REMARK INTER + INTRA:          -6.217
REMARK INTER:                  -5.919
REMARK INTRA:                  -0.298
REMARK UNBOUND:                -0.320
REMARK  Name = 
REMARK  5 active torsions:
REMARK  status: ('A' for Active; 'I' for Inactive)
REMARK    1  A    between atoms: N_1  and  C_2
REMARK    2  A    between atoms: C_2  and  C_3
REMARK    3  A    between atoms: C_6  and  S_7
REMARK    4  A    between atoms: S_7  and  C_8
REMARK    5  A    between atoms: C_8  and  C_9
REMARK                            x       y       z     vdW  Elec       q    Type
REMARK                         _______ _______ _______ _____ _____    ______ ____
ROOT
ATOM      1  C   UNL     1      44.503   4.387  11.817  0.00  0.00    +0.000 A 
ATOM      2  C   UNL     1      44.833   5.212  10.732  0.00  0.00    +0.000 A 
ATOM      3  C   UNL     1      45.917   6.102  10.802  0.00  0.00    +0.000 A 
ATOM      4  C   UNL     1      46.687   6.190  11.963  0.00  0.00    +0.000 A 
ATOM      5  C   UNL     1      46.372   5.349  13.038  0.00  0.00    +0.000 A 
ATOM      6  C   UNL     1      45.293   4.462  12.970  0.00  0.00    +0.000 A 
ENDROOT
BRANCH   1   7
ATOM      7  C   UNL     1      43.308   3.467  11.767  0.00  0.00    +0.000 C 
BRANCH   7   8
ATOM      8  N   UNL     1      43.556   2.203  12.451  0.00  0.00    +0.000 NA
ATOM      9  H   UNL     1      44.437   2.270  12.959  0.00  0.00    +0.000 HD
ATOM     10  H   UNL     1      43.684   1.472  11.753  0.00  0.00    +0.000 HD
ENDBRANCH   7   8
ENDBRANCH   1   7
BRANCH   4  11
ATOM     11  S   UNL     1      48.123   7.243  12.145  0.00  0.00    +0.000 S 
BRANCH  11  12
ATOM     12  C   UNL     1      47.540   8.551  13.284  0.00  0.00    +0.000 C 
BRANCH  12  13
ATOM     13  C   UNL     1      46.621   9.540  12.600  0.00  0.00    +0.000 A 
ATOM     14  C   UNL     1      45.236   9.411  12.663  0.00  0.00    +0.000 A 
ATOM     15  N   UNL     1      44.379  10.265  12.044  0.00  0.00    +0.000 NA
ATOM     16  C   UNL     1      44.965  11.270  11.354  0.00  0.00    +0.000 A 
ATOM     17  C   UNL     1      46.340  11.407  11.279  0.00  0.00    +0.000 A 
ATOM     18  N   UNL     1      47.193  10.550  11.887  0.00  0.00    +0.000 NA
ENDBRANCH  12  13
ENDBRANCH  11  12
ENDBRANCH   4  11
TORSDOF 5
ENDMDL
MODEL 8
REMARK VINA RESULT:    -4.564      3.859      6.020
REMARK INTER + INTRA:          -6.086
REMARK INTER:                  -5.784
REMARK INTRA:                  -0.301
REMARK UNBOUND:                -0.320
REMARK  Name = 
REMARK  5 active torsions:
REMARK  status: ('A' for Active; 'I' for Inactive)
REMARK    1  A    between atoms: N_1  and  C_2
REMARK    2  A    between atoms: C_2  and  C_3
REMARK    3  A    between atoms: C_6  and  S_7
REMARK    4  A    between atoms: S_7  and  C_8
REMARK    5  A    between atoms: C_8  and  C_9
REMARK                            x       y       z     vdW  Elec       q    Type
REMARK                         _______ _______ _______ _____ _____    ______ ____
ROOT
ATOM      1  C   UNL     1      46.166   5.796  11.743  0.00  0.00    +0.000 A 
ATOM      2  C   UNL     1      46.031   4.916  12.827  0.00  0.00    +0.000 A 
ATOM      3  C   UNL     1      46.792   5.085  13.995  0.00  0.00    +0.000 A 
ATOM      4  C   UNL     1      47.710   6.133  14.098  0.00  0.00    +0.000 A 
ATOM      5  C   UNL     1      47.826   7.025  13.025  0.00  0.00    +0.000 A 
ATOM      6  C   UNL     1      47.069   6.859  11.861  0.00  0.00    +0.000 A 
ENDROOT
BRANCH   1   7
ATOM      7  C   UNL     1      45.390   5.591  10.465  0.00  0.00    +0.000 C 
BRANCH   7   8
ATOM      8  N   UNL     1      44.734   4.289  10.421  0.00  0.00    +0.000 NA
ATOM      9  H   UNL     1      44.372   4.133   9.482  0.00  0.00    +0.000 HD
ATOM     10  H   UNL     1      43.924   4.309  11.039  0.00  0.00    +0.000 HD
ENDBRANCH   7   8
ENDBRANCH   1   7
BRANCH   4  11
ATOM     11  S   UNL     1      48.689   6.478  15.557  0.00  0.00    +0.000 S 
BRANCH  11  12
ATOM     12  C   UNL     1      48.100   5.230  16.759  0.00  0.00    +0.000 C 
BRANCH  12  13
ATOM     13  C   UNL     1      49.015   4.027  16.831  0.00  0.00    +0.000 A 
ATOM     14  C   UNL     1      48.627   2.786  16.332  0.00  0.00    +0.000 A 
ATOM     15  N   UNL     1      49.410   1.678  16.399  0.00  0.00    +0.000 NA
ATOM     16  C   UNL     1      50.616   1.859  16.986  0.00  0.00    +0.000 A 
ATOM     17  C   UNL     1      51.012   3.085  17.490  0.00  0.00    +0.000 A 
ATOM     18  N   UNL     1      50.226   4.186  17.433  0.00  0.00    +0.000 NA
ENDBRANCH  12  13
ENDBRANCH  11  12
ENDBRANCH   4  11
TORSDOF 5
ENDMDL
MODEL 9
REMARK VINA RESULT:    -4.484      4.103      5.625
REMARK INTER + INTRA:          -5.984
REMARK INTER:                  -5.727
REMARK INTRA:                  -0.257
REMARK UNBOUND:                -0.320
REMARK  Name = 
REMARK  5 active torsions:
REMARK  status: ('A' for Active; 'I' for Inactive)
REMARK    1  A    between atoms: N_1  and  C_2
REMARK    2  A    between atoms: C_2  and  C_3
REMARK    3  A    between atoms: C_6  and  S_7
REMARK    4  A    between atoms: S_7  and  C_8
REMARK    5  A    between atoms: C_8  and  C_9
REMARK                            x       y       z     vdW  Elec       q    Type
REMARK                         _______ _______ _______ _____ _____    ______ ____
ROOT
ATOM      1  C   UNL     1      44.725   5.101  11.561  0.00  0.00    +0.000 A 
ATOM      2  C   UNL     1      45.505   6.122  10.997  0.00  0.00    +0.000 A 
ATOM      3  C   UNL     1      46.683   6.560  11.621  0.00  0.00    +0.000 A 
ATOM      4  C   UNL     1      47.102   5.991  12.826  0.00  0.00    +0.000 A 
ATOM      5  C   UNL     1      46.336   4.956  13.376  0.00  0.00    +0.000 A 
ATOM      6  C   UNL     1      45.161   4.517  12.756  0.00  0.00    +0.000 A 
ENDROOT
BRANCH   1   7
ATOM      7  C   UNL     1      43.430   4.661  10.924  0.00  0.00    +0.000 C 
BRANCH   7   8
ATOM      8  N   UNL     1      42.970   3.376  11.438  0.00  0.00    +0.000 NA
ATOM      9  H   UNL     1      43.554   2.637  11.051  0.00  0.00    +0.000 HD
ATOM     10  H   UNL     1      42.026   3.204  11.093  0.00  0.00    +0.000 HD
ENDBRANCH   7   8
ENDBRANCH   1   7
BRANCH   4  11
ATOM     11  S   UNL     1      48.614   6.430  13.678  0.00  0.00    +0.000 S 
BRANCH  11  12
ATOM     12  C   UNL     1      48.087   6.552  15.426  0.00  0.00    +0.000 C 
BRANCH  12  13
ATOM     13  C   UNL     1      48.618   5.412  16.267  0.00  0.00    +0.000 A 
ATOM     14  C   UNL     1      47.798   4.363  16.675  0.00  0.00    +0.000 A 
ATOM     15  N   UNL     1      48.232   3.334  17.448  0.00  0.00    +0.000 NA
ATOM     16  C   UNL     1      49.537   3.389  17.800  0.00  0.00    +0.000 A 
ATOM     17  C   UNL     1      50.362   4.427  17.407  0.00  0.00    +0.000 A 
ATOM     18  N   UNL     1      49.926   5.458  16.645  0.00  0.00    +0.000 NA
ENDBRANCH  12  13
ENDBRANCH  11  12
ENDBRANCH   4  11
TORSDOF 5
ENDMDL
