MODEL 1
REMARK VINA RESULT:    -8.508      0.000      0.000
REMARK INTER + INTRA:         -12.010
REMARK INTER:                 -10.995
REMARK INTRA:                  -1.015
REMARK UNBOUND:                -1.015
REMARK  Name = 
REMARK  5 active torsions:
REMARK  status: ('A' for Active; 'I' for Inactive)
REMARK    1  A    between atoms: C_2  and  C_4
REMARK    2  A    between atoms: C_7  and  N_8
REMARK    3  A    between atoms: N_8  and  C_9
REMARK    4  A    between atoms: C_9  and  C_10
REMARK    5  A    between atoms: C_13  and  C_14
REMARK                            x       y       z     vdW  Elec       q    Type
REMARK                         _______ _______ _______ _____ _____    ______ ____
ROOT
ATOM      1  C   UNL     1      43.632   4.809  11.259  0.00  0.00    +0.000 C 
ENDROOT
BRANCH   1   2
ATOM      2  C   UNL     1      44.913   5.319  11.868  0.00  0.00    +0.000 A 
ATOM      3  C   UNL     1      45.530   4.629  12.913  0.00  0.00    +0.000 A 
ATOM      4  C   UNL     1      46.713   5.112  13.484  0.00  0.00    +0.000 A 
ATOM      5  C   UNL     1      47.306   6.311  13.046  0.00  0.00    +0.000 A 
ATOM      6  C   UNL     1      46.666   6.996  11.998  0.00  0.00    +0.000 A 
ATOM      7  C   UNL     1      45.489   6.512  11.418  0.00  0.00    +0.000 A 
BRANCH   5   8
ATOM      8  C   UNL     1      48.534   6.848  13.681  0.00  0.00    +0.000 A 
ATOM      9  C   UNL     1      49.496   7.564  12.942  0.00  0.00    +0.000 A 
ATOM     10  C   UNL     1      50.633   8.113  13.549  0.00  0.00    +0.000 A 
ATOM     11  C   UNL     1      50.840   7.942  14.913  0.00  0.00    +0.000 A 
ATOM     12  C   UNL     1      49.913   7.224  15.653  0.00  0.00    +0.000 A 
ATOM     13  F   UNL     1      50.109   7.050  16.967  0.00  0.00    +0.000 F 
ATOM     14  C   UNL     1      48.774   6.686  15.057  0.00  0.00    +0.000 A 
ENDBRANCH   5   8
ENDBRANCH   1   2
BRANCH   1  15
ATOM     15  N   UNL     1      43.726   4.851   9.811  0.00  0.00    +0.000 N 
ATOM     16  H   UNL     1      42.848   5.058   9.340  0.00  0.00    +0.000 HD
BRANCH  15  20
ATOM     17  C   UNL     1      46.359   2.238   7.803  0.00  0.00    +0.000 A 
ATOM     18  C   UNL     1      45.432   1.718   8.709  0.00  0.00    +0.000 A 
ATOM     19  C   UNL     1      44.540   2.573   9.368  0.00  0.00    +0.000 A 
ATOM     20  C   UNL     1      44.532   3.951   9.118  0.00  0.00    +0.000 A 
ATOM     21  C   UNL     1      45.484   4.457   8.224  0.00  0.00    +0.000 A 
ATOM     22  C   UNL     1      46.394   3.614   7.573  0.00  0.00    +0.000 A 
BRANCH  17  24
ATOM     23  N   UNL     1      48.427   1.978   6.553  0.00  0.00    +0.000 N 
ATOM     24  C   UNL     1      47.337   1.367   7.104  0.00  0.00    +0.000 C 
ATOM     25  O   UNL     1      47.200   0.154   7.051  0.00  0.00    +0.000 OA
ATOM     26  H   UNL     1      49.140   1.367   6.174  0.00  0.00    +0.000 HD
ATOM     27  H   UNL     1      48.700   2.922   6.794  0.00  0.00    +0.000 HD
ENDBRANCH  17  24
ENDBRANCH  15  20
ENDBRANCH   1  15
TORSDOF 5
ENDMDL
MODEL 2
REMARK VINA RESULT:    -8.480      0.901      1.328
REMARK INTER + INTRA:         -11.974
REMARK INTER:                 -10.951
REMARK INTRA:                  -1.023
REMARK UNBOUND:                -1.015
REMARK  Name = 
REMARK  5 active torsions:
REMARK  status: ('A' for Active; 'I' for Inactive)
REMARK    1  A    between atoms: C_2  and  C_4
REMARK    2  A    between atoms: C_7  and  N_8
REMARK    3  A    between atoms: N_8  and  C_9
REMARK    4  A    between atoms: C_9  and  C_10
REMARK    5  A    between atoms: C_13  and  C_14
REMARK                            x       y       z     vdW  Elec       q    Type
REMARK                         _______ _______ _______ _____ _____    ______ ____
ROOT
ATOM      1  C   UNL     1      43.622   4.714  11.374  0.00  0.00    +0.000 C 
ENDROOT
BRANCH   1   2
ATOM      2  C   UNL     1      44.871   5.190  12.070  0.00  0.00    +0.000 A 
ATOM      3  C   UNL     1      45.553   4.358  12.961  0.00  0.00    +0.000 A 
ATOM      4  C   UNL     1      46.705   4.808  13.614  0.00  0.00    +0.000 A 
ATOM      5  C   UNL     1      47.202   6.109  13.418  0.00  0.00    +0.000 A 
ATOM      6  C   UNL     1      46.499   6.935  12.524  0.00  0.00    +0.000 A 
ATOM      7  C   UNL     1      45.352   6.487  11.860  0.00  0.00    +0.000 A 
BRANCH   5   8
ATOM      8  C   UNL     1      48.397   6.603  14.146  0.00  0.00    +0.000 A 
ATOM      9  C   UNL     1      48.630   6.273  15.495  0.00  0.00    +0.000 A 
ATOM     10  C   UNL     1      49.781   6.699  16.170  0.00  0.00    +0.000 A 
ATOM     11  C   UNL     1      50.721   7.482  15.509  0.00  0.00    +0.000 A 
ATOM     12  C   UNL     1      50.499   7.832  14.187  0.00  0.00    +0.000 A 
ATOM     13  F   UNL     1      51.398   8.590  13.545  0.00  0.00    +0.000 F 
ATOM     14  C   UNL     1      49.362   7.401  13.506  0.00  0.00    +0.000 A 
ENDBRANCH   5   8
ENDBRANCH   1   2
BRANCH   1  15
ATOM     15  N   UNL     1      43.776   4.859   9.937  0.00  0.00    +0.000 N 
ATOM     16  H   UNL     1      42.929   5.147   9.453  0.00  0.00    +0.000 HD
BRANCH  15  20
ATOM     17  C   UNL     1      46.352   2.282   7.813  0.00  0.00    +0.000 A 
ATOM     18  C   UNL     1      45.443   1.745   8.727  0.00  0.00    +0.000 A 
ATOM     19  C   UNL     1      44.570   2.589   9.424  0.00  0.00    +0.000 A 
ATOM     20  C   UNL     1      44.562   3.972   9.207  0.00  0.00    +0.000 A 
ATOM     21  C   UNL     1      45.497   4.494   8.304  0.00  0.00    +0.000 A 
ATOM     22  C   UNL     1      46.389   3.663   7.615  0.00  0.00    +0.000 A 
BRANCH  17  24
ATOM     23  N   UNL     1      48.422   2.034   6.562  0.00  0.00    +0.000 N 
ATOM     24  C   UNL     1      47.312   1.424   7.073  0.00  0.00    +0.000 C 
ATOM     25  O   UNL     1      47.142   0.219   6.954  0.00  0.00    +0.000 OA
ATOM     26  H   UNL     1      49.119   1.425   6.154  0.00  0.00    +0.000 HD
ATOM     27  H   UNL     1      48.718   2.955   6.855  0.00  0.00    +0.000 HD
ENDBRANCH  17  24
ENDBRANCH  15  20
ENDBRANCH   1  15
TORSDOF 5
ENDMDL
MODEL 3
REMARK VINA RESULT:    -8.127      1.755      2.454
REMARK INTER + INTRA:         -11.518
REMARK INTER:                 -10.626
REMARK INTRA:                  -0.892
REMARK UNBOUND:                -1.015
REMARK  Name = 
REMARK  5 active torsions:
REMARK  status: ('A' for Active; 'I' for Inactive)
REMARK    1  A    between atoms: C_2  and  C_4
REMARK    2  A    between atoms: C_7  and  N_8
REMARK    3  A    between atoms: N_8  and  C_9
REMARK    4  A    between atoms: C_9  and  C_10
REMARK    5  A    between atoms: C_13  and  C_14
REMARK                            x       y       z     vdW  Elec       q    Type
REMARK                         _______ _______ _______ _____ _____    ______ ____
ROOT
ATOM      1  C   UNL     1      44.310   6.008  10.721  0.00  0.00    +0.000 C 
ENDROOT
BRANCH   1   2
ATOM      2  C   UNL     1      45.201   5.741  11.907  0.00  0.00    +0.000 A 
ATOM      3  C   UNL     1      44.929   4.684  12.779  0.00  0.00    +0.000 A 
ATOM      4  C   UNL     1      45.752   4.446  13.885  0.00  0.00    +0.000 A 
ATOM      5  C   UNL     1      46.857   5.268  14.171  0.00  0.00    +0.000 A 
ATOM      6  C   UNL     1      47.110   6.331  13.287  0.00  0.00    +0.000 A 
ATOM      7  C   UNL     1      46.297   6.567  12.174  0.00  0.00    +0.000 A 
BRANCH   5   8
ATOM      8  C   UNL     1      47.703   5.045  15.369  0.00  0.00    +0.000 A 
ATOM      9  C   UNL     1      48.669   5.985  15.778  0.00  0.00    +0.000 A 
ATOM     10  C   UNL     1      49.435   5.798  16.936  0.00  0.00    +0.000 A 
ATOM     11  C   UNL     1      49.261   4.653  17.704  0.00  0.00    +0.000 A 
ATOM     12  C   UNL     1      48.328   3.708  17.307  0.00  0.00    +0.000 A 
ATOM     13  F   UNL     1      48.158   2.599  18.040  0.00  0.00    +0.000 F 
ATOM     14  C   UNL     1      47.554   3.894  16.163  0.00  0.00    +0.000 A 
ENDBRANCH   5   8
ENDBRANCH   1   2
BRANCH   1  15
ATOM     15  N   UNL     1      43.916   4.751  10.110  0.00  0.00    +0.000 N 
ATOM     16  H   UNL     1      43.293   4.185  10.681  0.00  0.00    +0.000 HD
BRANCH  15  20
ATOM     17  C   UNL     1      46.475   2.359   7.759  0.00  0.00    +0.000 A 
ATOM     18  C   UNL     1      46.480   3.745   7.589  0.00  0.00    +0.000 A 
ATOM     19  C   UNL     1      45.648   4.551   8.376  0.00  0.00    +0.000 A 
ATOM     20  C   UNL     1      44.822   4.002   9.364  0.00  0.00    +0.000 A 
ATOM     21  C   UNL     1      44.813   2.608   9.504  0.00  0.00    +0.000 A 
ATOM     22  C   UNL     1      45.625   1.789   8.709  0.00  0.00    +0.000 A 
BRANCH  17  24
ATOM     23  N   UNL     1      48.313   2.060   6.198  0.00  0.00    +0.000 N 
ATOM     24  C   UNL     1      47.322   1.468   6.927  0.00  0.00    +0.000 C 
ATOM     25  O   UNL     1      47.169   0.255   6.918  0.00  0.00    +0.000 OA
ATOM     26  H   UNL     1      48.951   1.436   5.720  0.00  0.00    +0.000 HD
ATOM     27  H   UNL     1      48.629   3.004   6.376  0.00  0.00    +0.000 HD
ENDBRANCH  17  24
ENDBRANCH  15  20
ENDBRANCH   1  15
TORSDOF 5
ENDMDL
MODEL 4
REMARK VINA RESULT:    -7.974      1.759      2.296
REMARK INTER + INTRA:         -11.320
REMARK INTER:                 -10.397
REMARK INTRA:                  -0.923
REMARK UNBOUND:                -1.015
REMARK  Name = 
REMARK  5 active torsions:
REMARK  status: ('A' for Active; 'I' for Inactive)
REMARK    1  A    between atoms: C_2  and  C_4
REMARK    2  A    between atoms: C_7  and  N_8
REMARK    3  A    between atoms: N_8  and  C_9
REMARK    4  A    between atoms: C_9  and  C_10
REMARK    5  A    between atoms: C_13  and  C_14
REMARK                            x       y       z     vdW  Elec       q    Type
REMARK                         _______ _______ _______ _____ _____    ______ ____
ROOT
ATOM      1  C   UNL     1      43.843   4.884  11.415  0.00  0.00    +0.000 C 
ENDROOT
BRANCH   1   2
ATOM      2  C   UNL     1      44.920   5.893  11.722  0.00  0.00    +0.000 A 
ATOM      3  C   UNL     1      44.682   7.261  11.566  0.00  0.00    +0.000 A 
ATOM      4  C   UNL     1      45.688   8.193  11.842  0.00  0.00    +0.000 A 
ATOM      5  C   UNL     1      46.971   7.791  12.257  0.00  0.00    +0.000 A 
ATOM      6  C   UNL     1      47.194   6.410  12.400  0.00  0.00    +0.000 A 
ATOM      7  C   UNL     1      46.189   5.474  12.137  0.00  0.00    +0.000 A 
BRANCH   5   8
ATOM      8  C   UNL     1      48.052   8.776  12.504  0.00  0.00    +0.000 A 
ATOM      9  C   UNL     1      49.035   9.054  11.534  0.00  0.00    +0.000 A 
ATOM     10  C   UNL     1      50.029  10.018  11.746  0.00  0.00    +0.000 A 
ATOM     11  C   UNL     1      50.069  10.716  12.948  0.00  0.00    +0.000 A 
ATOM     12  C   UNL     1      49.121  10.443  13.921  0.00  0.00    +0.000 A 
ATOM     13  F   UNL     1      49.158  11.109  15.084  0.00  0.00    +0.000 F 
ATOM     14  C   UNL     1      48.123   9.494  13.711  0.00  0.00    +0.000 A 
ENDBRANCH   5   8
ENDBRANCH   1   2
BRANCH   1  15
ATOM     15  N   UNL     1      43.737   4.702   9.978  0.00  0.00    +0.000 N 
ATOM     16  H   UNL     1      42.787   4.561   9.642  0.00  0.00    +0.000 HD
BRANCH  15  20
ATOM     17  C   UNL     1      46.446   2.355   7.753  0.00  0.00    +0.000 A 
ATOM     18  C   UNL     1      46.446   3.742   7.594  0.00  0.00    +0.000 A 
ATOM     19  C   UNL     1      45.564   4.534   8.340  0.00  0.00    +0.000 A 
ATOM     20  C   UNL     1      44.691   3.968   9.277  0.00  0.00    +0.000 A 
ATOM     21  C   UNL     1      44.689   2.573   9.405  0.00  0.00    +0.000 A 
ATOM     22  C   UNL     1      45.552   1.769   8.650  0.00  0.00    +0.000 A 
BRANCH  17  24
ATOM     23  N   UNL     1      48.495   2.042   6.483  0.00  0.00    +0.000 N 
ATOM     24  C   UNL     1      47.346   1.480   6.961  0.00  0.00    +0.000 C 
ATOM     25  O   UNL     1      47.096   0.298   6.773  0.00  0.00    +0.000 OA
ATOM     26  H   UNL     1      49.151   1.413   6.038  0.00  0.00    +0.000 HD
ATOM     27  H   UNL     1      48.852   2.923   6.829  0.00  0.00    +0.000 HD
ENDBRANCH  17  24
ENDBRANCH  15  20
ENDBRANCH   1  15
TORSDOF 5
ENDMDL
MODEL 5
REMARK VINA RESULT:    -7.944      1.914      2.542
REMARK INTER + INTRA:         -11.281
REMARK INTER:                 -10.326
REMARK INTRA:                  -0.955
REMARK UNBOUND:                -1.015
REMARK  Name = 
REMARK  5 active torsions:
REMARK  status: ('A' for Active; 'I' for Inactive)
REMARK    1  A    between atoms: C_2  and  C_4
REMARK    2  A    between atoms: C_7  and  N_8
REMARK    3  A    between atoms: N_8  and  C_9
REMARK    4  A    between atoms: C_9  and  C_10
REMARK    5  A    between atoms: C_13  and  C_14
REMARK                            x       y       z     vdW  Elec       q    Type
REMARK                         _______ _______ _______ _____ _____    ______ ____
ROOT
ATOM      1  C   UNL     1      43.809   4.889  11.459  0.00  0.00    +0.000 C 
ENDROOT
BRANCH   1   2
ATOM      2  C   UNL     1      44.910   5.885  11.713  0.00  0.00    +0.000 A 
ATOM      3  C   UNL     1      44.704   7.249  11.491  0.00  0.00    +0.000 A 
ATOM      4  C   UNL     1      45.733   8.170  11.717  0.00  0.00    +0.000 A 
ATOM      5  C   UNL     1      47.007   7.759  12.149  0.00  0.00    +0.000 A 
ATOM      6  C   UNL     1      47.198   6.382  12.361  0.00  0.00    +0.000 A 
ATOM      7  C   UNL     1      46.170   5.458  12.146  0.00  0.00    +0.000 A 
BRANCH   5   8
ATOM      8  C   UNL     1      48.112   8.729  12.345  0.00  0.00    +0.000 A 
ATOM      9  C   UNL     1      47.921   9.936  13.045  0.00  0.00    +0.000 A 
ATOM     10  C   UNL     1      48.974  10.831  13.272  0.00  0.00    +0.000 A 
ATOM     11  C   UNL     1      50.244  10.544  12.785  0.00  0.00    +0.000 A 
ATOM     12  C   UNL     1      50.446   9.369  12.077  0.00  0.00    +0.000 A 
ATOM     13  F   UNL     1      51.666   9.088  11.600  0.00  0.00    +0.000 F 
ATOM     14  C   UNL     1      49.405   8.469  11.859  0.00  0.00    +0.000 A 
ENDBRANCH   5   8
ENDBRANCH   1   2
BRANCH   1  15
ATOM     15  N   UNL     1      43.673   4.661  10.032  0.00  0.00    +0.000 N 
ATOM     16  H   UNL     1      42.722   4.470   9.726  0.00  0.00    +0.000 HD
BRANCH  15  20
ATOM     17  C   UNL     1      46.421   2.376   7.790  0.00  0.00    +0.000 A 
ATOM     18  C   UNL     1      46.387   3.763   7.629  0.00  0.00    +0.000 A 
ATOM     19  C   UNL     1      45.492   4.534   8.380  0.00  0.00    +0.000 A 
ATOM     20  C   UNL     1      44.639   3.949   9.325  0.00  0.00    +0.000 A 
ATOM     21  C   UNL     1      44.671   2.554   9.455  0.00  0.00    +0.000 A 
ATOM     22  C   UNL     1      45.548   1.770   8.695  0.00  0.00    +0.000 A 
BRANCH  17  24
ATOM     23  N   UNL     1      48.466   2.111   6.503  0.00  0.00    +0.000 N 
ATOM     24  C   UNL     1      47.337   1.521   6.993  0.00  0.00    +0.000 C 
ATOM     25  O   UNL     1      47.115   0.332   6.811  0.00  0.00    +0.000 OA
ATOM     26  H   UNL     1      49.134   1.497   6.054  0.00  0.00    +0.000 HD
ATOM     27  H   UNL     1      48.804   3.001   6.843  0.00  0.00    +0.000 HD
ENDBRANCH  17  24
ENDBRANCH  15  20
ENDBRANCH   1  15
TORSDOF 5
ENDMDL
MODEL 6
REMARK VINA RESULT:    -6.606      5.013      6.715
REMARK INTER + INTRA:          -9.552
REMARK INTER:                  -8.802
REMARK INTRA:                  -0.749
REMARK UNBOUND:                -1.015
REMARK  Name = 
REMARK  5 active torsions:
REMARK  status: ('A' for Active; 'I' for Inactive)
REMARK    1  A    between atoms: C_2  and  C_4
REMARK    2  A    between atoms: C_7  and  N_8
REMARK    3  A    between atoms: N_8  and  C_9
REMARK    4  A    between atoms: C_9  and  C_10
REMARK    5  A    between atoms: C_13  and  C_14
REMARK                            x       y       z     vdW  Elec       q    Type
REMARK                         _______ _______ _______ _____ _____    ______ ____
ROOT
ATOM      1  C   UNL     1      47.155   4.412  16.326  0.00  0.00    +0.000 C 
ENDROOT
BRANCH   1   2
ATOM      2  C   UNL     1      48.476   3.832  16.762  0.00  0.00    +0.000 A 
ATOM      3  C   UNL     1      49.472   4.651  17.298  0.00  0.00    +0.000 A 
ATOM      4  C   UNL     1      50.702   4.110  17.691  0.00  0.00    +0.000 A 
ATOM      5  C   UNL     1      50.987   2.741  17.540  0.00  0.00    +0.000 A 
ATOM      6  C   UNL     1      49.975   1.934  16.991  0.00  0.00    +0.000 A 
ATOM      7  C   UNL     1      48.740   2.467  16.606  0.00  0.00    +0.000 A 
BRANCH   5   8
ATOM      8  C   UNL     1      52.306   2.176  17.912  0.00  0.00    +0.000 A 
ATOM      9  C   UNL     1      53.224   2.897  18.701  0.00  0.00    +0.000 A 
ATOM     10  C   UNL     1      54.451   2.347  19.094  0.00  0.00    +0.000 A 
ATOM     11  C   UNL     1      54.793   1.062  18.690  0.00  0.00    +0.000 A 
ATOM     12  C   UNL     1      53.911   0.344  17.898  0.00  0.00    +0.000 A 
ATOM     13  F   UNL     1      54.237  -0.894  17.500  0.00  0.00    +0.000 F 
ATOM     14  C   UNL     1      52.684   0.882  17.514  0.00  0.00    +0.000 A 
ENDBRANCH   5   8
ENDBRANCH   1   2
BRANCH   1  15
ATOM     15  N   UNL     1      47.339   5.197  15.118  0.00  0.00    +0.000 N 
ATOM     16  H   UNL     1      47.457   6.194  15.280  0.00  0.00    +0.000 HD
BRANCH  15  20
ATOM     17  C   UNL     1      45.048   4.158  11.731  0.00  0.00    +0.000 A 
ATOM     18  C   UNL     1      45.135   5.497  12.119  0.00  0.00    +0.000 A 
ATOM     19  C   UNL     1      45.907   5.856  13.230  0.00  0.00    +0.000 A 
ATOM     20  C   UNL     1      46.629   4.902  13.957  0.00  0.00    +0.000 A 
ATOM     21  C   UNL     1      46.511   3.561  13.567  0.00  0.00    +0.000 A 
ATOM     22  C   UNL     1      45.726   3.186  12.469  0.00  0.00    +0.000 A 
BRANCH  17  24
ATOM     23  N   UNL     1      44.236   4.538   9.472  0.00  0.00    +0.000 N 
ATOM     24  C   UNL     1      44.220   3.733  10.575  0.00  0.00    +0.000 C 
ATOM     25  O   UNL     1      43.577   2.693  10.588  0.00  0.00    +0.000 OA
ATOM     26  H   UNL     1      43.755   4.186   8.653  0.00  0.00    +0.000 HD
ATOM     27  H   UNL     1      44.939   5.251   9.331  0.00  0.00    +0.000 HD
ENDBRANCH  17  24
ENDBRANCH  15  20
ENDBRANCH   1  15
TORSDOF 5
ENDMDL
MODEL 7
REMARK VINA RESULT:    -6.331      2.439      3.152
REMARK INTER + INTRA:          -9.196
REMARK INTER:                  -8.374
REMARK INTRA:                  -0.822
REMARK UNBOUND:                -1.015
REMARK  Name = 
REMARK  5 active torsions:
REMARK  status: ('A' for Active; 'I' for Inactive)
REMARK    1  A    between atoms: C_2  and  C_4
REMARK    2  A    between atoms: C_7  and  N_8
REMARK    3  A    between atoms: N_8  and  C_9
REMARK    4  A    between atoms: C_9  and  C_10
REMARK    5  A    between atoms: C_13  and  C_14
REMARK                            x       y       z     vdW  Elec       q    Type
REMARK                         _______ _______ _______ _____ _____    ______ ____
ROOT
ATOM      1  C   UNL     1      45.096   5.302  13.109  0.00  0.00    +0.000 C 
ENDROOT
BRANCH   1   2
ATOM      2  C   UNL     1      46.149   6.323  12.764  0.00  0.00    +0.000 A 
ATOM      3  C   UNL     1      45.789   7.619  12.387  0.00  0.00    +0.000 A 
ATOM      4  C   UNL     1      46.770   8.561  12.056  0.00  0.00    +0.000 A 
ATOM      5  C   UNL     1      48.138   8.235  12.068  0.00  0.00    +0.000 A 
ATOM      6  C   UNL     1      48.481   6.924  12.442  0.00  0.00    +0.000 A 
ATOM      7  C   UNL     1      47.505   5.981  12.784  0.00  0.00    +0.000 A 
BRANCH   5   8
ATOM      8  C   UNL     1      49.175   9.219  11.672  0.00  0.00    +0.000 A 
ATOM      9  C   UNL     1      48.858  10.570  11.428  0.00  0.00    +0.000 A 
ATOM     10  C   UNL     1      49.843  11.511  11.101  0.00  0.00    +0.000 A 
ATOM     11  C   UNL     1      51.171  11.114  10.995  0.00  0.00    +0.000 A 
ATOM     12  C   UNL     1      51.499   9.785  11.214  0.00  0.00    +0.000 A 
ATOM     13  F   UNL     1      52.777   9.394  11.109  0.00  0.00    +0.000 F 
ATOM     14  C   UNL     1      50.526   8.847  11.551  0.00  0.00    +0.000 A 
ENDBRANCH   5   8
ENDBRANCH   1   2
BRANCH   1  15
ATOM     15  N   UNL     1      44.213   5.106  11.973  0.00  0.00    +0.000 N 
ATOM     16  H   UNL     1      43.259   4.854  12.223  0.00  0.00    +0.000 HD
BRANCH  15  20
ATOM     17  C   UNL     1      45.806   3.323   8.497  0.00  0.00    +0.000 A 
ATOM     18  C   UNL     1      45.214   2.519   9.474  0.00  0.00    +0.000 A 
ATOM     19  C   UNL     1      44.665   3.100  10.623  0.00  0.00    +0.000 A 
ATOM     20  C   UNL     1      44.666   4.488  10.811  0.00  0.00    +0.000 A 
ATOM     21  C   UNL     1      45.285   5.277   9.832  0.00  0.00    +0.000 A 
ATOM     22  C   UNL     1      45.856   4.705   8.687  0.00  0.00    +0.000 A 
BRANCH  17  24
ATOM     23  N   UNL     1      46.753   3.612   6.277  0.00  0.00    +0.000 N 
ATOM     24  C   UNL     1      46.422   2.743   7.278  0.00  0.00    +0.000 C 
ATOM     25  O   UNL     1      46.659   1.548   7.180  0.00  0.00    +0.000 OA
ATOM     26  H   UNL     1      47.268   3.222   5.498  0.00  0.00    +0.000 HD
ATOM     27  H   UNL     1      46.810   4.611   6.423  0.00  0.00    +0.000 HD
ENDBRANCH  17  24
ENDBRANCH  15  20
ENDBRANCH   1  15
TORSDOF 5
ENDMDL
MODEL 8
REMARK VINA RESULT:    -6.015      4.777      8.438
REMARK INTER + INTRA:          -8.788
REMARK INTER:                  -7.693
REMARK INTRA:                  -1.094
REMARK UNBOUND:                -1.015
REMARK  Name = 
REMARK  5 active torsions:
REMARK  status: ('A' for Active; 'I' for Inactive)
REMARK    1  A    between atoms: C_2  and  C_4
REMARK    2  A    between atoms: C_7  and  N_8
REMARK    3  A    between atoms: N_8  and  C_9
REMARK    4  A    between atoms: C_9  and  C_10
REMARK    5  A    between atoms: C_13  and  C_14
REMARK                            x       y       z     vdW  Elec       q    Type
REMARK                         _______ _______ _______ _____ _____    ______ ____
ROOT
ATOM      1  C   UNL     1      48.490   9.925  13.588  0.00  0.00    +0.000 C 
ENDROOT
BRANCH   1   2
ATOM      2  C   UNL     1      47.706   8.804  12.956  0.00  0.00    +0.000 A 
ATOM      3  C   UNL     1      46.369   8.586  13.298  0.00  0.00    +0.000 A 
ATOM      4  C   UNL     1      45.649   7.537  12.717  0.00  0.00    +0.000 A 
ATOM      5  C   UNL     1      46.243   6.657  11.795  0.00  0.00    +0.000 A 
ATOM      6  C   UNL     1      47.592   6.887  11.468  0.00  0.00    +0.000 A 
ATOM      7  C   UNL     1      48.314   7.941  12.038  0.00  0.00    +0.000 A 
BRANCH   5   8
ATOM      8  C   UNL     1      45.494   5.516  11.214  0.00  0.00    +0.000 A 
ATOM      9  C   UNL     1      45.515   5.244   9.832  0.00  0.00    +0.000 A 
ATOM     10  C   UNL     1      44.847   4.140   9.288  0.00  0.00    +0.000 A 
ATOM     11  C   UNL     1      44.125   3.290  10.118  0.00  0.00    +0.000 A 
ATOM     12  C   UNL     1      44.078   3.553  11.478  0.00  0.00    +0.000 A 
ATOM     13  F   UNL     1      43.380   2.740  12.284  0.00  0.00    +0.000 F 
ATOM     14  C   UNL     1      44.750   4.642  12.027  0.00  0.00    +0.000 A 
ENDBRANCH   5   8
ENDBRANCH   1   2
BRANCH   1  15
ATOM     15  N   UNL     1      49.542   9.377  14.425  0.00  0.00    +0.000 N 
ATOM     16  H   UNL     1      50.380   9.102  13.918  0.00  0.00    +0.000 HD
BRANCH  15  20
ATOM     17  C   UNL     1      48.402   6.915  17.656  0.00  0.00    +0.000 A 
ATOM     18  C   UNL     1      49.038   6.348  16.549  0.00  0.00    +0.000 A 
ATOM     19  C   UNL     1      49.438   7.157  15.479  0.00  0.00    +0.000 A 
ATOM     20  C   UNL     1      49.242   8.544  15.499  0.00  0.00    +0.000 A 
ATOM     21  C   UNL     1      48.581   9.091  16.607  0.00  0.00    +0.000 A 
ATOM     22  C   UNL     1      48.159   8.290  17.675  0.00  0.00    +0.000 A 
BRANCH  17  24
ATOM     23  N   UNL     1      46.714   5.497  18.680  0.00  0.00    +0.000 N 
ATOM     24  C   UNL     1      47.940   6.088  18.798  0.00  0.00    +0.000 C 
ATOM     25  O   UNL     1      48.635   5.908  19.788  0.00  0.00    +0.000 OA
ATOM     26  H   UNL     1      46.456   4.851  19.415  0.00  0.00    +0.000 HD
ATOM     27  H   UNL     1      46.236   5.413  17.793  0.00  0.00    +0.000 HD
ENDBRANCH  17  24
ENDBRANCH  15  20
ENDBRANCH   1  15
TORSDOF 5
ENDMDL
MODEL 9
REMARK VINA RESULT:    -5.973      5.435      7.489
REMARK INTER + INTRA:          -8.734
REMARK INTER:                  -8.036
REMARK INTRA:                  -0.699
REMARK UNBOUND:                -1.015
REMARK  Name = 
REMARK  5 active torsions:
REMARK  status: ('A' for Active; 'I' for Inactive)
REMARK    1  A    between atoms: C_2  and  C_4
REMARK    2  A    between atoms: C_7  and  N_8
REMARK    3  A    between atoms: N_8  and  C_9
REMARK    4  A    between atoms: C_9  and  C_10
REMARK    5  A    between atoms: C_13  and  C_14
REMARK                            x       y       z     vdW  Elec       q    Type
REMARK                         _______ _______ _______ _____ _____    ______ ____
ROOT
ATOM      1  C   UNL     1      47.233   3.890  16.440  0.00  0.00    +0.000 C 
ENDROOT
BRANCH   1   2
ATOM      2  C   UNL     1      48.608   3.441  16.865  0.00  0.00    +0.000 A 
ATOM      3  C   UNL     1      49.491   4.333  17.479  0.00  0.00    +0.000 A 
ATOM      4  C   UNL     1      50.771   3.915  17.861  0.00  0.00    +0.000 A 
ATOM      5  C   UNL     1      51.219   2.603  17.624  0.00  0.00    +0.000 A 
ATOM      6  C   UNL     1      50.319   1.722  16.999  0.00  0.00    +0.000 A 
ATOM      7  C   UNL     1      49.035   2.131  16.623  0.00  0.00    +0.000 A 
BRANCH   5   8
ATOM      8  C   UNL     1      52.591   2.172  17.987  0.00  0.00    +0.000 A 
ATOM      9  C   UNL     1      53.441   2.986  18.762  0.00  0.00    +0.000 A 
ATOM     10  C   UNL     1      54.719   2.562  19.146  0.00  0.00    +0.000 A 
ATOM     11  C   UNL     1      55.183   1.314  18.746  0.00  0.00    +0.000 A 
ATOM     12  C   UNL     1      54.368   0.507  17.967  0.00  0.00    +0.000 A 
ATOM     13  F   UNL     1      54.811  -0.695  17.574  0.00  0.00    +0.000 F 
ATOM     14  C   UNL     1      53.091   0.919  17.592  0.00  0.00    +0.000 A 
ENDBRANCH   5   8
ENDBRANCH   1   2
BRANCH   1  15
ATOM     15  N   UNL     1      47.070   3.684  15.013  0.00  0.00    +0.000 N 
ATOM     16  H   UNL     1      47.763   3.067  14.596  0.00  0.00    +0.000 HD
BRANCH  15  20
ATOM     17  C   UNL     1      45.700   6.881  12.626  0.00  0.00    +0.000 A 
ATOM     18  C   UNL     1      46.968   6.951  13.207  0.00  0.00    +0.000 A 
ATOM     19  C   UNL     1      47.441   5.888  13.986  0.00  0.00    +0.000 A 
ATOM     20  C   UNL     1      46.680   4.728  14.177  0.00  0.00    +0.000 A 
ATOM     21  C   UNL     1      45.402   4.687  13.606  0.00  0.00    +0.000 A 
ATOM     22  C   UNL     1      44.909   5.751  12.842  0.00  0.00    +0.000 A 
BRANCH  17  24
ATOM     23  N   UNL     1      43.935   7.798  11.228  0.00  0.00    +0.000 N 
ATOM     24  C   UNL     1      45.152   7.998  11.816  0.00  0.00    +0.000 C 
ATOM     25  O   UNL     1      45.739   9.064  11.705  0.00  0.00    +0.000 OA
ATOM     26  H   UNL     1      43.523   8.600  10.768  0.00  0.00    +0.000 HD
ATOM     27  H   UNL     1      43.317   7.047  11.502  0.00  0.00    +0.000 HD
ENDBRANCH  17  24
ENDBRANCH  15  20
ENDBRANCH   1  15
TORSDOF 5
ENDMDL
