MODEL 1
REMARK VINA RESULT:    -7.917      0.000      0.000
REMARK INTER + INTRA:          -9.729
REMARK INTER:                  -9.306
REMARK INTRA:                  -0.423
REMARK UNBOUND:                -0.423
REMARK  Name = 
REMARK  3 active torsions:
REMARK  status: ('A' for Active; 'I' for Inactive)
REMARK    1  A    between atoms: C_2  and  C_4
REMARK    2  A    between atoms: N_8  and  C_9
REMARK    3  A    between atoms: C_9  and  C_10
REMARK                            x       y       z     vdW  Elec       q    Type
REMARK                         _______ _______ _______ _____ _____    ______ ____
ROOT
ATOM      1  C   UNL     1      46.221   2.054   7.885  0.00  0.00    +0.000 A 
ATOM      2  C   UNL     1      46.242   3.353   7.398  0.00  0.00    +0.000 A 
ATOM      3  C   UNL     1      45.433   4.312   8.008  0.00  0.00    +0.000 A 
ATOM      4  C   UNL     1      44.645   3.964   9.106  0.00  0.00    +0.000 A 
ATOM      5  N   UNL     1      43.913   4.993   9.711  0.00  0.00    +0.000 N 
ATOM      6  N   UNL     1      44.606   2.701   9.573  0.00  0.00    +0.000 NA
ATOM      7  C   UNL     1      45.373   1.769   8.944  0.00  0.00    +0.000 A 
ATOM      8  H   UNL     1      43.266   5.386   9.035  0.00  0.00    +0.000 HD
ENDROOT
BRANCH   1  10
ATOM      9  N   UNL     1      46.760  -0.306   7.664  0.00  0.00    +0.000 N 
ATOM     10  C   UNL     1      47.070   0.982   7.320  0.00  0.00    +0.000 C 
ATOM     11  O   UNL     1      47.987   1.231   6.551  0.00  0.00    +0.000 OA
ATOM     12  H   UNL     1      47.279  -1.036   7.193  0.00  0.00    +0.000 HD
ATOM     13  H   UNL     1      45.874  -0.557   8.083  0.00  0.00    +0.000 HD
ENDBRANCH   1  10
BRANCH   5  14
ATOM     14  C   UNL     1      43.318   4.711  11.012  0.00  0.00    +0.000 C 
BRANCH  14  15
ATOM     15  C   UNL     1      44.196   5.273  12.155  0.00  0.00    +0.000 C 
ATOM     16  C   UNL     1      44.971   6.529  11.713  0.00  0.00    +0.000 C 
ATOM     17  C   UNL     1      45.859   7.074  12.829  0.00  0.00    +0.000 C 
ATOM     18  C   UNL     1      46.807   6.002  13.356  0.00  0.00    +0.000 C 
ATOM     19  C   UNL     1      46.038   4.779  13.842  0.00  0.00    +0.000 C 
ATOM     20  C   UNL     1      45.139   4.210  12.746  0.00  0.00    +0.000 C 
ENDBRANCH  14  15
ENDBRANCH   5  14
TORSDOF 3
ENDMDL
MODEL 2
REMARK VINA RESULT:    -7.507      2.909      6.464
REMARK INTER + INTRA:          -9.247
REMARK INTER:                  -8.940
REMARK INTRA:                  -0.307
REMARK UNBOUND:                -0.423
REMARK  Name = 
REMARK  3 active torsions:
REMARK  status: ('A' for Active; 'I' for Inactive)
REMARK    1  A    between atoms: C_2  and  C_4
REMARK    2  A    between atoms: N_8  and  C_9
REMARK    3  A    between atoms: C_9  and  C_10
REMARK                            x       y       z     vdW  Elec       q    Type
REMARK                         _______ _______ _______ _____ _____    ______ ____
ROOT
ATOM      1  C   UNL     1      45.496   6.625  12.493  0.00  0.00    +0.000 A 
ATOM      2  C   UNL     1      45.931   5.541  13.242  0.00  0.00    +0.000 A 
ATOM      3  C   UNL     1      45.682   4.254  12.767  0.00  0.00    +0.000 A 
ATOM      4  C   UNL     1      45.032   4.074  11.545  0.00  0.00    +0.000 A 
ATOM      5  N   UNL     1      44.878   2.757  11.097  0.00  0.00    +0.000 N 
ATOM      6  N   UNL     1      44.591   5.121  10.821  0.00  0.00    +0.000 NA
ATOM      7  C   UNL     1      44.809   6.370  11.316  0.00  0.00    +0.000 A 
ATOM      8  H   UNL     1      44.325   2.236  11.770  0.00  0.00    +0.000 HD
ENDROOT
BRANCH   1  10
ATOM      9  N   UNL     1      44.785   8.948  12.593  0.00  0.00    +0.000 N 
ATOM     10  C   UNL     1      45.745   8.024  12.904  0.00  0.00    +0.000 C 
ATOM     11  O   UNL     1      46.750   8.339  13.528  0.00  0.00    +0.000 OA
ATOM     12  H   UNL     1      44.915   9.879  12.967  0.00  0.00    +0.000 HD
ATOM     13  H   UNL     1      43.850   8.683  12.310  0.00  0.00    +0.000 HD
ENDBRANCH   1  10
BRANCH   5  14
ATOM     14  C   UNL     1      44.465   2.567   9.712  0.00  0.00    +0.000 C 
BRANCH  14  15
ATOM     15  C   UNL     1      45.688   2.573   8.765  0.00  0.00    +0.000 C 
ATOM     16  C   UNL     1      45.516   3.589   7.620  0.00  0.00    +0.000 C 
ATOM     17  C   UNL     1      46.708   3.582   6.666  0.00  0.00    +0.000 C 
ATOM     18  C   UNL     1      46.975   2.183   6.122  0.00  0.00    +0.000 C 
ATOM     19  C   UNL     1      47.198   1.187   7.255  0.00  0.00    +0.000 C 
ATOM     20  C   UNL     1      46.019   1.170   8.226  0.00  0.00    +0.000 C 
ENDBRANCH  14  15
ENDBRANCH   5  14
TORSDOF 3
ENDMDL
MODEL 3
REMARK VINA RESULT:    -7.506      2.884      6.351
REMARK INTER + INTRA:          -9.246
REMARK INTER:                  -8.933
REMARK INTRA:                  -0.313
REMARK UNBOUND:                -0.423
REMARK  Name = 
REMARK  3 active torsions:
REMARK  status: ('A' for Active; 'I' for Inactive)
REMARK    1  A    between atoms: C_2  and  C_4
REMARK    2  A    between atoms: N_8  and  C_9
REMARK    3  A    between atoms: C_9  and  C_10
REMARK                            x       y       z     vdW  Elec       q    Type
REMARK                         _______ _______ _______ _____ _____    ______ ____
ROOT
ATOM      1  C   UNL     1      46.557   5.474  12.976  0.00  0.00    +0.000 A 
ATOM      2  C   UNL     1      45.992   4.236  13.245  0.00  0.00    +0.000 A 
ATOM      3  C   UNL     1      45.238   3.612  12.252  0.00  0.00    +0.000 A 
ATOM      4  C   UNL     1      45.088   4.219  11.004  0.00  0.00    +0.000 A 
ATOM      5  N   UNL     1      44.377   3.503  10.033  0.00  0.00    +0.000 N 
ATOM      6  N   UNL     1      45.618   5.429  10.741  0.00  0.00    +0.000 NA
ATOM      7  C   UNL     1      46.320   6.042  11.733  0.00  0.00    +0.000 A 
ATOM      8  H   UNL     1      43.432   3.338  10.363  0.00  0.00    +0.000 HD
ENDROOT
BRANCH   1  10
ATOM      9  N   UNL     1      47.301   7.558  13.984  0.00  0.00    +0.000 N 
ATOM     10  C   UNL     1      47.398   6.193  13.958  0.00  0.00    +0.000 C 
ATOM     11  O   UNL     1      48.123   5.594  14.740  0.00  0.00    +0.000 OA
ATOM     12  H   UNL     1      47.800   8.032  14.726  0.00  0.00    +0.000 HD
ATOM     13  H   UNL     1      46.542   8.056  13.537  0.00  0.00    +0.000 HD
ENDBRANCH   1  10
BRANCH   5  14
ATOM     14  C   UNL     1      44.455   3.986   8.660  0.00  0.00    +0.000 C 
BRANCH  14  15
ATOM     15  C   UNL     1      45.254   3.003   7.772  0.00  0.00    +0.000 C 
ATOM     16  C   UNL     1      45.815   1.825   8.590  0.00  0.00    +0.000 C 
ATOM     17  C   UNL     1      46.627   0.865   7.724  0.00  0.00    +0.000 C 
ATOM     18  C   UNL     1      47.739   1.595   6.979  0.00  0.00    +0.000 C 
ATOM     19  C   UNL     1      47.178   2.728   6.128  0.00  0.00    +0.000 C 
ATOM     20  C   UNL     1      46.361   3.708   6.967  0.00  0.00    +0.000 C 
ENDBRANCH  14  15
ENDBRANCH   5  14
TORSDOF 3
ENDMDL
MODEL 4
REMARK VINA RESULT:    -6.461      3.299      6.247
REMARK INTER + INTRA:          -8.017
REMARK INTER:                  -7.575
REMARK INTRA:                  -0.442
REMARK UNBOUND:                -0.423
REMARK  Name = 
REMARK  3 active torsions:
REMARK  status: ('A' for Active; 'I' for Inactive)
REMARK    1  A    between atoms: C_2  and  C_4
REMARK    2  A    between atoms: N_8  and  C_9
REMARK    3  A    between atoms: C_9  and  C_10
REMARK                            x       y       z     vdW  Elec       q    Type
REMARK                         _______ _______ _______ _____ _____    ______ ____
ROOT
ATOM      1  C   UNL     1      47.583   6.548  13.007  0.00  0.00    +0.000 A 
ATOM      2  C   UNL     1      47.162   5.375  13.618  0.00  0.00    +0.000 A 
ATOM      3  C   UNL     1      46.054   4.707  13.098  0.00  0.00    +0.000 A 
ATOM      4  C   UNL     1      45.408   5.203  11.965  0.00  0.00    +0.000 A 
ATOM      5  N   UNL     1      44.347   4.444  11.457  0.00  0.00    +0.000 N 
ATOM      6  N   UNL     1      45.799   6.350  11.377  0.00  0.00    +0.000 NA
ATOM      7  C   UNL     1      46.859   7.011  11.918  0.00  0.00    +0.000 A 
ATOM      8  H   UNL     1      43.622   4.366  12.163  0.00  0.00    +0.000 HD
ENDROOT
BRANCH   1  10
ATOM      9  N   UNL     1      49.920   7.164  12.749  0.00  0.00    +0.000 N 
ATOM     10  C   UNL     1      48.766   7.304  13.471  0.00  0.00    +0.000 C 
ATOM     11  O   UNL     1      48.710   8.051  14.438  0.00  0.00    +0.000 OA
ATOM     12  H   UNL     1      50.693   7.762  13.012  0.00  0.00    +0.000 HD
ATOM     13  H   UNL     1      49.933   6.763  11.820  0.00  0.00    +0.000 HD
ENDBRANCH   1  10
BRANCH   5  14
ATOM     14  C   UNL     1      43.853   4.791  10.130  0.00  0.00    +0.000 C 
BRANCH  14  15
ATOM     15  C   UNL     1      44.402   3.815   9.063  0.00  0.00    +0.000 C 
ATOM     16  C   UNL     1      44.729   2.436   9.667  0.00  0.00    +0.000 C 
ATOM     17  C   UNL     1      45.295   1.476   8.623  0.00  0.00    +0.000 C 
ATOM     18  C   UNL     1      46.512   2.072   7.924  0.00  0.00    +0.000 C 
ATOM     19  C   UNL     1      46.176   3.412   7.281  0.00  0.00    +0.000 C 
ATOM     20  C   UNL     1      45.608   4.396   8.302  0.00  0.00    +0.000 C 
ENDBRANCH  14  15
ENDBRANCH   5  14
TORSDOF 3
ENDMDL
MODEL 5
REMARK VINA RESULT:    -6.006      4.386      6.206
REMARK INTER + INTRA:          -7.482
REMARK INTER:                  -7.201
REMARK INTRA:                  -0.281
REMARK UNBOUND:                -0.423
REMARK  Name = 
REMARK  3 active torsions:
REMARK  status: ('A' for Active; 'I' for Inactive)
REMARK    1  A    between atoms: C_2  and  C_4
REMARK    2  A    between atoms: N_8  and  C_9
REMARK    3  A    between atoms: C_9  and  C_10
REMARK                            x       y       z     vdW  Elec       q    Type
REMARK                         _______ _______ _______ _____ _____    ______ ____
ROOT
ATOM      1  C   UNL     1      45.547   5.136  11.804  0.00  0.00    +0.000 A 
ATOM      2  C   UNL     1      46.531   6.055  12.139  0.00  0.00    +0.000 A 
ATOM      3  C   UNL     1      47.123   5.974  13.399  0.00  0.00    +0.000 A 
ATOM      4  C   UNL     1      46.745   4.964  14.285  0.00  0.00    +0.000 A 
ATOM      5  N   UNL     1      47.431   4.901  15.504  0.00  0.00    +0.000 N 
ATOM      6  N   UNL     1      45.778   4.080  13.973  0.00  0.00    +0.000 NA
ATOM      7  C   UNL     1      45.183   4.194  12.755  0.00  0.00    +0.000 A 
ATOM      8  H   UNL     1      47.290   5.767  16.014  0.00  0.00    +0.000 HD
ENDROOT
BRANCH   1  10
ATOM      9  N   UNL     1      45.659   5.451   9.396  0.00  0.00    +0.000 N 
ATOM     10  C   UNL     1      44.888   5.128  10.479  0.00  0.00    +0.000 C 
ATOM     11  O   UNL     1      43.714   4.811  10.350  0.00  0.00    +0.000 OA
ATOM     12  H   UNL     1      45.228   5.343   8.486  0.00  0.00    +0.000 HD
ATOM     13  H   UNL     1      46.670   5.470   9.436  0.00  0.00    +0.000 HD
ENDBRANCH   1  10
BRANCH   5  14
ATOM     14  C   UNL     1      47.252   3.699  16.309  0.00  0.00    +0.000 C 
BRANCH  14  15
ATOM     15  C   UNL     1      48.516   3.401  17.148  0.00  0.00    +0.000 C 
ATOM     16  C   UNL     1      49.402   4.651  17.306  0.00  0.00    +0.000 C 
ATOM     17  C   UNL     1      50.665   4.358  18.112  0.00  0.00    +0.000 C 
ATOM     18  C   UNL     1      51.452   3.200  17.507  0.00  0.00    +0.000 C 
ATOM     19  C   UNL     1      50.591   1.947  17.400  0.00  0.00    +0.000 C 
ATOM     20  C   UNL     1      49.319   2.209  16.596  0.00  0.00    +0.000 C 
ENDBRANCH  14  15
ENDBRANCH   5  14
TORSDOF 3
ENDMDL
MODEL 6
REMARK VINA RESULT:    -5.887      3.918      5.567
REMARK INTER + INTRA:          -7.342
REMARK INTER:                  -7.138
REMARK INTRA:                  -0.204
REMARK UNBOUND:                -0.423
REMARK  Name = 
REMARK  3 active torsions:
REMARK  status: ('A' for Active; 'I' for Inactive)
REMARK    1  A    between atoms: C_2  and  C_4
REMARK    2  A    between atoms: N_8  and  C_9
REMARK    3  A    between atoms: C_9  and  C_10
REMARK                            x       y       z     vdW  Elec       q    Type
REMARK                         _______ _______ _______ _____ _____    ______ ____
ROOT
ATOM      1  C   UNL     1      45.063   4.139  11.130  0.00  0.00    +0.000 A 
ATOM      2  C   UNL     1      45.588   5.411  11.311  0.00  0.00    +0.000 A 
ATOM      3  C   UNL     1      46.167   5.729  12.540  0.00  0.00    +0.000 A 
ATOM      4  C   UNL     1      46.237   4.767  13.549  0.00  0.00    +0.000 A 
ATOM      5  N   UNL     1      46.893   5.135  14.729  0.00  0.00    +0.000 N 
ATOM      6  N   UNL     1      45.713   3.537  13.387  0.00  0.00    +0.000 NA
ATOM      7  C   UNL     1      45.119   3.253  12.195  0.00  0.00    +0.000 A 
ATOM      8  H   UNL     1      46.412   5.924  15.149  0.00  0.00    +0.000 HD
ENDROOT
BRANCH   1  10
ATOM      9  N   UNL     1      44.495   4.594   8.810  0.00  0.00    +0.000 N 
ATOM     10  C   UNL     1      44.461   3.705   9.850  0.00  0.00    +0.000 C 
ATOM     11  O   UNL     1      43.984   2.587   9.714  0.00  0.00    +0.000 OA
ATOM     12  H   UNL     1      44.174   4.252   7.913  0.00  0.00    +0.000 HD
ATOM     13  H   UNL     1      45.093   5.410   8.814  0.00  0.00    +0.000 HD
ENDBRANCH   1  10
BRANCH   5  14
ATOM     14  C   UNL     1      47.222   4.069  15.669  0.00  0.00    +0.000 C 
BRANCH  14  15
ATOM     15  C   UNL     1      48.069   4.611  16.845  0.00  0.00    +0.000 C 
ATOM     16  C   UNL     1      49.133   3.593  17.296  0.00  0.00    +0.000 C 
ATOM     17  C   UNL     1      49.956   4.111  18.473  0.00  0.00    +0.000 C 
ATOM     18  C   UNL     1      49.060   4.520  19.638  0.00  0.00    +0.000 C 
ATOM     19  C   UNL     1      48.040   5.567  19.204  0.00  0.00    +0.000 C 
ATOM     20  C   UNL     1      47.200   5.077  18.027  0.00  0.00    +0.000 C 
ENDBRANCH  14  15
ENDBRANCH   5  14
TORSDOF 3
ENDMDL
MODEL 7
REMARK VINA RESULT:    -5.697      5.104      7.609
REMARK INTER + INTRA:          -7.119
REMARK INTER:                  -6.884
REMARK INTRA:                  -0.235
REMARK UNBOUND:                -0.423
REMARK  Name = 
REMARK  3 active torsions:
REMARK  status: ('A' for Active; 'I' for Inactive)
REMARK    1  A    between atoms: C_2  and  C_4
REMARK    2  A    between atoms: N_8  and  C_9
REMARK    3  A    between atoms: C_9  and  C_10
REMARK                            x       y       z     vdW  Elec       q    Type
REMARK                         _______ _______ _______ _____ _____    ______ ____
ROOT
ATOM      1  C   UNL     1      48.356   4.519  17.323  0.00  0.00    +0.000 A 
ATOM      2  C   UNL     1      48.744   5.659  16.634  0.00  0.00    +0.000 A 
ATOM      3  C   UNL     1      48.144   5.938  15.406  0.00  0.00    +0.000 A 
ATOM      4  C   UNL     1      47.153   5.093  14.905  0.00  0.00    +0.000 A 
ATOM      5  N   UNL     1      46.547   5.472  13.702  0.00  0.00    +0.000 N 
ATOM      6  N   UNL     1      46.784   3.975  15.559  0.00  0.00    +0.000 NA
ATOM      7  C   UNL     1      47.404   3.697  16.739  0.00  0.00    +0.000 A 
ATOM      8  H   UNL     1      47.249   5.517  12.971  0.00  0.00    +0.000 HD
ENDROOT
BRANCH   1  10
ATOM      9  N   UNL     1      48.346   3.104  19.300  0.00  0.00    +0.000 N 
ATOM     10  C   UNL     1      48.914   4.163  18.646  0.00  0.00    +0.000 C 
ATOM     11  O   UNL     1      49.867   4.765  19.121  0.00  0.00    +0.000 OA
ATOM     12  H   UNL     1      48.800   2.804  20.154  0.00  0.00    +0.000 HD
ATOM     13  H   UNL     1      47.739   2.441  18.834  0.00  0.00    +0.000 HD
ENDBRANCH   1  10
BRANCH   5  14
ATOM     14  C   UNL     1      45.330   4.766  13.316  0.00  0.00    +0.000 C 
BRANCH  14  15
ATOM     15  C   UNL     1      45.413   4.281  11.850  0.00  0.00    +0.000 C 
ATOM     16  C   UNL     1      45.451   5.461  10.861  0.00  0.00    +0.000 C 
ATOM     17  C   UNL     1      45.507   4.988   9.410  0.00  0.00    +0.000 C 
ATOM     18  C   UNL     1      44.355   4.042   9.091  0.00  0.00    +0.000 C 
ATOM     19  C   UNL     1      44.348   2.846  10.036  0.00  0.00    +0.000 C 
ATOM     20  C   UNL     1      44.291   3.287  11.497  0.00  0.00    +0.000 C 
ENDBRANCH  14  15
ENDBRANCH   5  14
TORSDOF 3
ENDMDL
MODEL 8
REMARK VINA RESULT:    -5.496      5.787      8.323
REMARK INTER + INTRA:          -6.882
REMARK INTER:                  -6.640
REMARK INTRA:                  -0.243
REMARK UNBOUND:                -0.423
REMARK  Name = 
REMARK  3 active torsions:
REMARK  status: ('A' for Active; 'I' for Inactive)
REMARK    1  A    between atoms: C_2  and  C_4
REMARK    2  A    between atoms: N_8  and  C_9
REMARK    3  A    between atoms: C_9  and  C_10
REMARK                            x       y       z     vdW  Elec       q    Type
REMARK                         _______ _______ _______ _____ _____    ______ ____
ROOT
ATOM      1  C   UNL     1      49.054   4.515  18.180  0.00  0.00    +0.000 A 
ATOM      2  C   UNL     1      48.088   3.520  18.135  0.00  0.00    +0.000 A 
ATOM      3  C   UNL     1      47.260   3.438  17.014  0.00  0.00    +0.000 A 
ATOM      4  C   UNL     1      47.432   4.329  15.953  0.00  0.00    +0.000 A 
ATOM      5  N   UNL     1      46.613   4.143  14.833  0.00  0.00    +0.000 N 
ATOM      6  N   UNL     1      48.355   5.308  15.998  0.00  0.00    +0.000 NA
ATOM      7  C   UNL     1      49.130   5.399  17.113  0.00  0.00    +0.000 A 
ATOM      8  H   UNL     1      45.641   4.243  15.107  0.00  0.00    +0.000 HD
ENDROOT
BRANCH   1  10
ATOM      9  N   UNL     1      49.547   4.271  20.548  0.00  0.00    +0.000 N 
ATOM     10  C   UNL     1      49.994   4.656  19.313  0.00  0.00    +0.000 C 
ATOM     11  O   UNL     1      51.136   5.065  19.150  0.00  0.00    +0.000 OA
ATOM     12  H   UNL     1      50.229   4.274  21.296  0.00  0.00    +0.000 HD
ATOM     13  H   UNL     1      48.718   3.705  20.672  0.00  0.00    +0.000 HD
ENDBRANCH   1  10
BRANCH   5  14
ATOM     14  C   UNL     1      46.968   4.871  13.620  0.00  0.00    +0.000 C 
BRANCH  14  15
ATOM     15  C   UNL     1      45.826   4.801  12.580  0.00  0.00    +0.000 C 
ATOM     16  C   UNL     1      44.756   5.880  12.835  0.00  0.00    +0.000 C 
ATOM     17  C   UNL     1      43.613   5.801  11.826  0.00  0.00    +0.000 C 
ATOM     18  C   UNL     1      42.992   4.408  11.801  0.00  0.00    +0.000 C 
ATOM     19  C   UNL     1      44.041   3.345  11.496  0.00  0.00    +0.000 C 
ATOM     20  C   UNL     1      45.199   3.398  12.490  0.00  0.00    +0.000 C 
ENDBRANCH  14  15
ENDBRANCH   5  14
TORSDOF 3
ENDMDL
MODEL 9
REMARK VINA RESULT:    -5.353      3.567      5.288
REMARK INTER + INTRA:          -6.715
REMARK INTER:                  -6.410
REMARK INTRA:                  -0.305
REMARK UNBOUND:                -0.423
REMARK  Name = 
REMARK  3 active torsions:
REMARK  status: ('A' for Active; 'I' for Inactive)
REMARK    1  A    between atoms: C_2  and  C_4
REMARK    2  A    between atoms: N_8  and  C_9
REMARK    3  A    between atoms: C_9  and  C_10
REMARK                            x       y       z     vdW  Elec       q    Type
REMARK                         _______ _______ _______ _____ _____    ______ ____
ROOT
ATOM      1  C   UNL     1      44.802   4.000  11.630  0.00  0.00    +0.000 A 
ATOM      2  C   UNL     1      45.370   3.871  12.890  0.00  0.00    +0.000 A 
ATOM      3  C   UNL     1      45.994   4.981  13.461  0.00  0.00    +0.000 A 
ATOM      4  C   UNL     1      46.012   6.199  12.780  0.00  0.00    +0.000 A 
ATOM      5  N   UNL     1      46.593   7.286  13.444  0.00  0.00    +0.000 N 
ATOM      6  N   UNL     1      45.478   6.326  11.550  0.00  0.00    +0.000 NA
ATOM      7  C   UNL     1      44.906   5.226  10.990  0.00  0.00    +0.000 A 
ATOM      8  H   UNL     1      47.566   7.078  13.640  0.00  0.00    +0.000 HD
ENDROOT
BRANCH   1  10
ATOM      9  N   UNL     1      44.699   2.323   9.873  0.00  0.00    +0.000 N 
ATOM     10  C   UNL     1      44.093   2.886  10.963  0.00  0.00    +0.000 C 
ATOM     11  O   UNL     1      43.027   2.460  11.387  0.00  0.00    +0.000 OA
ATOM     12  H   UNL     1      44.259   1.498   9.487  0.00  0.00    +0.000 HD
ATOM     13  H   UNL     1      45.675   2.478   9.655  0.00  0.00    +0.000 HD
ENDBRANCH   1  10
BRANCH   5  14
ATOM     14  C   UNL     1      46.368   8.610  12.877  0.00  0.00    +0.000 C 
BRANCH  14  15
ATOM     15  C   UNL     1      47.707   9.355  12.663  0.00  0.00    +0.000 C 
ATOM     16  C   UNL     1      47.485  10.785  12.134  0.00  0.00    +0.000 C 
ATOM     17  C   UNL     1      48.804  11.516  11.897  0.00  0.00    +0.000 C 
ATOM     18  C   UNL     1      49.718  10.724  10.968  0.00  0.00    +0.000 C 
ATOM     19  C   UNL     1      49.981   9.326  11.517  0.00  0.00    +0.000 C 
ATOM     20  C   UNL     1      48.678   8.567  11.764  0.00  0.00    +0.000 C 
ENDBRANCH  14  15
ENDBRANCH   5  14
TORSDOF 3
ENDMDL
