MODEL 1
REMARK VINA RESULT:    -8.058      0.000      0.000
REMARK INTER + INTRA:         -12.597
REMARK INTER:                 -11.355
REMARK INTRA:                  -1.241
REMARK UNBOUND:                -1.241
REMARK  Name = 
REMARK  8 active torsions:
REMARK  status: ('A' for Active; 'I' for Inactive)
REMARK    1  A    between atoms: C_1  and  C_2
REMARK    2  A    between atoms: C_2  and  N_3
REMARK    3  A    between atoms: C_2  and  C_25
REMARK    4  A    between atoms: N_3  and  C_4
REMARK    5  A    between atoms: C_4  and  C_5
REMARK    6  A    between atoms: C_8  and  C_9
REMARK    7  A    between atoms: C_9  and  N_10
REMARK    8  A    between atoms: C_11  and  C_13
REMARK                            x       y       z     vdW  Elec       q    Type
REMARK                         _______ _______ _______ _____ _____    ______ ____
ROOT
ATOM      1  C   UNL     1      44.803   5.998  11.597  0.00  0.00    +0.000 C 
ATOM      2  C   UNL     1      44.390   7.459  11.853  0.00  0.00    +0.000 C 
ATOM      3  C   UNL     1      45.334   8.159  12.832  0.00  0.00    +0.000 C 
ATOM      4  C   UNL     1      46.797   8.083  12.370  0.00  0.00    +0.000 C 
ATOM      5  C   UNL     1      47.201   6.629  12.108  0.00  0.00    +0.000 C 
ATOM      6  C   UNL     1      46.263   5.934  11.129  0.00  0.00    +0.000 C 
ENDROOT
BRANCH   1   7
ATOM      7  C   UNL     1      43.837   5.345  10.587  0.00  0.00    +0.000 C 
BRANCH   7   8
ATOM      8  N   UNL     1      44.546   4.855   9.407  0.00  0.00    +0.000 NA
ATOM      9  H   UNL     1      44.325   5.423   8.584  0.00  0.00    +0.000 HD
BRANCH   8  11
ATOM     10  C   UNL     1      44.247   2.542  10.272  0.00  0.00    +0.000 C 
ATOM     11  C   UNL     1      44.234   3.461   9.047  0.00  0.00    +0.000 C 
BRANCH  11  12
ATOM     12  C   UNL     1      45.226   2.947   7.941  0.00  0.00    +0.000 C 
ATOM     13  C   UNL     1      46.072   1.744   8.404  0.00  0.00    +0.000 C 
ATOM     14  C   UNL     1      47.005   1.260   7.298  0.00  0.00    +0.000 C 
ATOM     15  C   UNL     1      47.844   2.410   6.755  0.00  0.00    +0.000 C 
ATOM     16  C   UNL     1      46.968   3.602   6.375  0.00  0.00    +0.000 C 
ATOM     17  N   UNL     1      46.129   4.038   7.496  0.00  0.00    +0.000 NA
ATOM     18  H   UNL     1      45.569   4.837   7.200  0.00  0.00    +0.000 HD
ENDBRANCH  11  12
ENDBRANCH   8  11
ENDBRANCH   7   8
ENDBRANCH   1   7
BRANCH   4  19
ATOM     19  C   UNL     1      47.764   8.688  13.401  0.00  0.00    +0.000 C 
BRANCH  19  20
ATOM     20  N   UNL     1      47.926   7.865  14.576  0.00  0.00    +0.000 N 
ATOM     21  C   UNL     1      49.123   7.283  14.911  0.00  0.00    +0.000 C 
ATOM     22  O   UNL     1      50.134   7.429  14.230  0.00  0.00    +0.000 OA
ATOM     23  H   UNL     1      47.086   7.622  15.091  0.00  0.00    +0.000 HD
BRANCH  21  24
ATOM     24  C   UNL     1      49.149   6.523  16.165  0.00  0.00    +0.000 A 
ATOM     25  C   UNL     1      49.969   6.948  17.201  0.00  0.00    +0.000 A 
ATOM     26  S   UNL     1      49.860   5.983  18.601  0.00  0.00    +0.000 S 
ATOM     27  C   UNL     1      48.749   4.932  17.854  0.00  0.00    +0.000 A 
ATOM     28  N   UNL     1      48.261   3.849  18.518  0.00  0.00    +0.000 NA
ATOM     29  C   UNL     1      47.456   3.118  17.823  0.00  0.00    +0.000 A 
ATOM     30  N   UNL     1      47.087   3.374  16.527  0.00  0.00    +0.000 N 
ATOM     31  C   UNL     1      47.508   4.489  15.833  0.00  0.00    +0.000 A 
ATOM     32  O   UNL     1      47.080   4.739  14.713  0.00  0.00    +0.000 OA
ATOM     33  C   UNL     1      48.445   5.325  16.562  0.00  0.00    +0.000 A 
ATOM     34  H   UNL     1      46.435   2.770  16.050  0.00  0.00    +0.000 HD
ENDBRANCH  21  24
ENDBRANCH  19  20
ENDBRANCH   4  19
TORSDOF 7
ENDMDL
MODEL 2
REMARK VINA RESULT:    -7.677      1.686      2.115
REMARK INTER + INTRA:         -12.060
REMARK INTER:                 -10.811
REMARK INTRA:                  -1.249
REMARK UNBOUND:                -1.241
REMARK  Name = 
REMARK  8 active torsions:
REMARK  status: ('A' for Active; 'I' for Inactive)
REMARK    1  A    between atoms: C_1  and  C_2
REMARK    2  A    between atoms: C_2  and  N_3
REMARK    3  A    between atoms: C_2  and  C_25
REMARK    4  A    between atoms: N_3  and  C_4
REMARK    5  A    between atoms: C_4  and  C_5
REMARK    6  A    between atoms: C_8  and  C_9
REMARK    7  A    between atoms: C_9  and  N_10
REMARK    8  A    between atoms: C_11  and  C_13
REMARK                            x       y       z     vdW  Elec       q    Type
REMARK                         _______ _______ _______ _____ _____    ______ ____
ROOT
ATOM      1  C   UNL     1      44.783   5.839  11.845  0.00  0.00    +0.000 C 
ATOM      2  C   UNL     1      45.943   6.241  10.916  0.00  0.00    +0.000 C 
ATOM      3  C   UNL     1      47.071   6.941  11.676  0.00  0.00    +0.000 C 
ATOM      4  C   UNL     1      47.585   6.092  12.849  0.00  0.00    +0.000 C 
ATOM      5  C   UNL     1      46.426   5.687  13.765  0.00  0.00    +0.000 C 
ATOM      6  C   UNL     1      45.306   4.985  13.008  0.00  0.00    +0.000 C 
ENDROOT
BRANCH   1   7
ATOM      7  C   UNL     1      43.687   5.116  11.037  0.00  0.00    +0.000 C 
BRANCH   7   8
ATOM      8  N   UNL     1      44.171   4.709   9.719  0.00  0.00    +0.000 NA
ATOM      9  H   UNL     1      43.595   5.114   8.975  0.00  0.00    +0.000 HD
BRANCH   8  11
ATOM     10  C   UNL     1      43.968   2.479  10.801  0.00  0.00    +0.000 C 
ATOM     11  C   UNL     1      44.175   3.254   9.497  0.00  0.00    +0.000 C 
BRANCH  11  12
ATOM     12  C   UNL     1      45.503   2.814   8.780  0.00  0.00    +0.000 C 
ATOM     13  C   UNL     1      45.799   3.632   7.507  0.00  0.00    +0.000 C 
ATOM     14  C   UNL     1      47.105   3.192   6.852  0.00  0.00    +0.000 C 
ATOM     15  C   UNL     1      47.111   1.687   6.613  0.00  0.00    +0.000 C 
ATOM     16  C   UNL     1      46.746   0.924   7.885  0.00  0.00    +0.000 C 
ATOM     17  N   UNL     1      45.462   1.370   8.435  0.00  0.00    +0.000 NA
ATOM     18  H   UNL     1      45.256   0.831   9.275  0.00  0.00    +0.000 HD
ENDBRANCH  11  12
ENDBRANCH   8  11
ENDBRANCH   7   8
ENDBRANCH   1   7
BRANCH   4  19
ATOM     19  C   UNL     1      48.642   6.834  13.683  0.00  0.00    +0.000 C 
BRANCH  19  20
ATOM     20  N   UNL     1      48.443   6.688  15.106  0.00  0.00    +0.000 N 
ATOM     21  C   UNL     1      49.040   7.515  16.024  0.00  0.00    +0.000 C 
ATOM     22  O   UNL     1      49.783   8.434  15.690  0.00  0.00    +0.000 OA
ATOM     23  H   UNL     1      47.937   5.867  15.422  0.00  0.00    +0.000 HD
BRANCH  21  24
ATOM     24  C   UNL     1      48.696   7.283  17.431  0.00  0.00    +0.000 A 
ATOM     25  C   UNL     1      48.233   8.340  18.202  0.00  0.00    +0.000 A 
ATOM     26  S   UNL     1      47.844   7.903  19.802  0.00  0.00    +0.000 S 
ATOM     27  C   UNL     1      48.326   6.293  19.535  0.00  0.00    +0.000 A 
ATOM     28  N   UNL     1      48.267   5.374  20.536  0.00  0.00    +0.000 NA
ATOM     29  C   UNL     1      48.696   4.202  20.209  0.00  0.00    +0.000 A 
ATOM     30  N   UNL     1      49.173   3.861  18.969  0.00  0.00    +0.000 N 
ATOM     31  C   UNL     1      49.198   4.741  17.906  0.00  0.00    +0.000 A 
ATOM     32  O   UNL     1      49.536   4.376  16.788  0.00  0.00    +0.000 OA
ATOM     33  C   UNL     1      48.756   6.085  18.236  0.00  0.00    +0.000 A 
ATOM     34  H   UNL     1      49.474   2.918  18.775  0.00  0.00    +0.000 HD
ENDBRANCH  21  24
ENDBRANCH  19  20
ENDBRANCH   4  19
TORSDOF 7
ENDMDL
MODEL 3
REMARK VINA RESULT:    -7.431      2.348      3.020
REMARK INTER + INTRA:         -11.714
REMARK INTER:                 -10.535
REMARK INTRA:                  -1.178
REMARK UNBOUND:                -1.241
REMARK  Name = 
REMARK  8 active torsions:
REMARK  status: ('A' for Active; 'I' for Inactive)
REMARK    1  A    between atoms: C_1  and  C_2
REMARK    2  A    between atoms: C_2  and  N_3
REMARK    3  A    between atoms: C_2  and  C_25
REMARK    4  A    between atoms: N_3  and  C_4
REMARK    5  A    between atoms: C_4  and  C_5
REMARK    6  A    between atoms: C_8  and  C_9
REMARK    7  A    between atoms: C_9  and  N_10
REMARK    8  A    between atoms: C_11  and  C_13
REMARK                            x       y       z     vdW  Elec       q    Type
REMARK                         _______ _______ _______ _____ _____    ______ ____
ROOT
ATOM      1  C   UNL     1      45.041   6.241  12.476  0.00  0.00    +0.000 C 
ATOM      2  C   UNL     1      45.858   7.415  11.907  0.00  0.00    +0.000 C 
ATOM      3  C   UNL     1      46.994   7.831  12.843  0.00  0.00    +0.000 C 
ATOM      4  C   UNL     1      47.912   6.649  13.189  0.00  0.00    +0.000 C 
ATOM      5  C   UNL     1      47.094   5.480  13.747  0.00  0.00    +0.000 C 
ATOM      6  C   UNL     1      45.966   5.064  12.811  0.00  0.00    +0.000 C 
ENDROOT
BRANCH   1   7
ATOM      7  C   UNL     1      43.926   5.845  11.487  0.00  0.00    +0.000 C 
BRANCH   7   8
ATOM      8  N   UNL     1      44.478   5.307  10.245  0.00  0.00    +0.000 NA
ATOM      9  H   UNL     1      44.356   5.967   9.472  0.00  0.00    +0.000 HD
BRANCH   8  11
ATOM     10  C   UNL     1      43.681   3.067  10.978  0.00  0.00    +0.000 C 
ATOM     11  C   UNL     1      43.868   4.039   9.810  0.00  0.00    +0.000 C 
BRANCH  11  12
ATOM     12  C   UNL     1      44.722   3.388   8.661  0.00  0.00    +0.000 C 
ATOM     13  C   UNL     1      45.412   2.078   9.093  0.00  0.00    +0.000 C 
ATOM     14  C   UNL     1      46.212   1.466   7.947  0.00  0.00    +0.000 C 
ATOM     15  C   UNL     1      47.177   2.485   7.354  0.00  0.00    +0.000 C 
ATOM     16  C   UNL     1      46.459   3.787   7.006  0.00  0.00    +0.000 C 
ATOM     17  N   UNL     1      45.746   4.339   8.162  0.00  0.00    +0.000 NA
ATOM     18  H   UNL     1      45.291   5.209   7.887  0.00  0.00    +0.000 HD
ENDBRANCH  11  12
ENDBRANCH   8  11
ENDBRANCH   7   8
ENDBRANCH   1   7
BRANCH   4  19
ATOM     19  C   UNL     1      48.991   7.033  14.215  0.00  0.00    +0.000 C 
BRANCH  19  20
ATOM     20  N   UNL     1      48.496   7.068  15.570  0.00  0.00    +0.000 N 
ATOM     21  C   UNL     1      49.168   6.490  16.618  0.00  0.00    +0.000 C 
ATOM     22  O   UNL     1      50.237   5.906  16.466  0.00  0.00    +0.000 OA
ATOM     23  H   UNL     1      47.559   7.433  15.712  0.00  0.00    +0.000 HD
BRANCH  21  24
ATOM     24  C   UNL     1      48.571   6.659  17.947  0.00  0.00    +0.000 A 
ATOM     25  C   UNL     1      48.407   5.549  18.765  0.00  0.00    +0.000 A 
ATOM     26  S   UNL     1      47.734   5.914  20.288  0.00  0.00    +0.000 S 
ATOM     27  C   UNL     1      47.594   7.563  19.890  0.00  0.00    +0.000 A 
ATOM     28  N   UNL     1      47.058   8.448  20.772  0.00  0.00    +0.000 NA
ATOM     29  C   UNL     1      46.978   9.658  20.329  0.00  0.00    +0.000 A 
ATOM     30  N   UNL     1      47.392  10.066  19.087  0.00  0.00    +0.000 N 
ATOM     31  C   UNL     1      47.995   9.218  18.181  0.00  0.00    +0.000 A 
ATOM     32  O   UNL     1      48.443   9.637  17.121  0.00  0.00    +0.000 OA
ATOM     33  C   UNL     1      48.076   7.837  18.621  0.00  0.00    +0.000 A 
ATOM     34  H   UNL     1      47.319  11.035  18.813  0.00  0.00    +0.000 HD
ENDBRANCH  21  24
ENDBRANCH  19  20
ENDBRANCH   4  19
TORSDOF 7
ENDMDL
MODEL 4
REMARK VINA RESULT:    -7.318      1.949      2.321
REMARK INTER + INTRA:         -11.553
REMARK INTER:                 -10.529
REMARK INTRA:                  -1.025
REMARK UNBOUND:                -1.241
REMARK  Name = 
REMARK  8 active torsions:
REMARK  status: ('A' for Active; 'I' for Inactive)
REMARK    1  A    between atoms: C_1  and  C_2
REMARK    2  A    between atoms: C_2  and  N_3
REMARK    3  A    between atoms: C_2  and  C_25
REMARK    4  A    between atoms: N_3  and  C_4
REMARK    5  A    between atoms: C_4  and  C_5
REMARK    6  A    between atoms: C_8  and  C_9
REMARK    7  A    between atoms: C_9  and  N_10
REMARK    8  A    between atoms: C_11  and  C_13
REMARK                            x       y       z     vdW  Elec       q    Type
REMARK                         _______ _______ _______ _____ _____    ______ ____
ROOT
ATOM      1  C   UNL     1      46.078   6.800  11.800  0.00  0.00    +0.000 C 
ATOM      2  C   UNL     1      46.846   5.713  12.573  0.00  0.00    +0.000 C 
ATOM      3  C   UNL     1      48.038   6.287  13.341  0.00  0.00    +0.000 C 
ATOM      4  C   UNL     1      47.617   7.427  14.282  0.00  0.00    +0.000 C 
ATOM      5  C   UNL     1      46.845   8.502  13.511  0.00  0.00    +0.000 C 
ATOM      6  C   UNL     1      45.656   7.928  12.751  0.00  0.00    +0.000 C 
ENDROOT
BRANCH   1   7
ATOM      7  C   UNL     1      44.875   6.175  11.066  0.00  0.00    +0.000 C 
BRANCH   7   8
ATOM      8  N   UNL     1      45.296   5.440   9.875  0.00  0.00    +0.000 NA
ATOM      9  H   UNL     1      45.403   6.069   9.074  0.00  0.00    +0.000 HD
BRANCH   8  11
ATOM     10  C   UNL     1      43.836   3.580  10.645  0.00  0.00    +0.000 C 
ATOM     11  C   UNL     1      44.363   4.382   9.452  0.00  0.00    +0.000 C 
BRANCH  11  12
ATOM     12  C   UNL     1      45.047   3.442   8.394  0.00  0.00    +0.000 C 
ATOM     13  C   UNL     1      45.648   2.168   9.021  0.00  0.00    +0.000 C 
ATOM     14  C   UNL     1      46.282   1.271   7.960  0.00  0.00    +0.000 C 
ATOM     15  C   UNL     1      47.280   2.053   7.115  0.00  0.00    +0.000 C 
ATOM     16  C   UNL     1      46.658   3.338   6.574  0.00  0.00    +0.000 C 
ATOM     17  N   UNL     1      46.106   4.168   7.649  0.00  0.00    +0.000 NA
ATOM     18  H   UNL     1      45.710   5.016   7.244  0.00  0.00    +0.000 HD
ENDBRANCH  11  12
ENDBRANCH   8  11
ENDBRANCH   7   8
ENDBRANCH   1   7
BRANCH   4  19
ATOM     19  C   UNL     1      48.823   8.083  14.975  0.00  0.00    +0.000 C 
BRANCH  19  20
ATOM     20  N   UNL     1      49.732   7.124  15.556  0.00  0.00    +0.000 N 
ATOM     21  C   UNL     1      49.588   6.652  16.837  0.00  0.00    +0.000 C 
ATOM     22  O   UNL     1      48.673   7.017  17.570  0.00  0.00    +0.000 OA
ATOM     23  H   UNL     1      50.566   6.895  15.026  0.00  0.00    +0.000 HD
BRANCH  21  24
ATOM     24  C   UNL     1      50.554   5.636  17.269  0.00  0.00    +0.000 A 
ATOM     25  C   UNL     1      51.772   6.038  17.800  0.00  0.00    +0.000 A 
ATOM     26  S   UNL     1      52.768   4.743  18.287  0.00  0.00    +0.000 S 
ATOM     27  C   UNL     1      51.625   3.597  17.759  0.00  0.00    +0.000 A 
ATOM     28  N   UNL     1      51.875   2.265  17.869  0.00  0.00    +0.000 NA
ATOM     29  C   UNL     1      50.941   1.508  17.398  0.00  0.00    +0.000 A 
ATOM     30  N   UNL     1      49.776   1.961  16.835  0.00  0.00    +0.000 N 
ATOM     31  C   UNL     1      49.451   3.300  16.756  0.00  0.00    +0.000 A 
ATOM     32  O   UNL     1      48.360   3.664  16.339  0.00  0.00    +0.000 OA
ATOM     33  C   UNL     1      50.489   4.193  17.241  0.00  0.00    +0.000 A 
ATOM     34  H   UNL     1      49.077   1.311  16.506  0.00  0.00    +0.000 HD
ENDBRANCH  21  24
ENDBRANCH  19  20
ENDBRANCH   4  19
TORSDOF 7
ENDMDL
MODEL 5
REMARK VINA RESULT:    -7.241      2.770      7.944
REMARK INTER + INTRA:         -11.446
REMARK INTER:                  -9.829
REMARK INTRA:                  -1.617
REMARK UNBOUND:                -1.241
REMARK  Name = 
REMARK  8 active torsions:
REMARK  status: ('A' for Active; 'I' for Inactive)
REMARK    1  A    between atoms: C_1  and  C_2
REMARK    2  A    between atoms: C_2  and  N_3
REMARK    3  A    between atoms: C_2  and  C_25
REMARK    4  A    between atoms: N_3  and  C_4
REMARK    5  A    between atoms: C_4  and  C_5
REMARK    6  A    between atoms: C_8  and  C_9
REMARK    7  A    between atoms: C_9  and  N_10
REMARK    8  A    between atoms: C_11  and  C_13
REMARK                            x       y       z     vdW  Elec       q    Type
REMARK                         _______ _______ _______ _____ _____    ______ ____
ROOT
ATOM      1  C   UNL     1      49.093   8.205  15.773  0.00  0.00    +0.000 C 
ATOM      2  C   UNL     1      49.848   7.259  14.822  0.00  0.00    +0.000 C 
ATOM      3  C   UNL     1      49.086   7.031  13.515  0.00  0.00    +0.000 C 
ATOM      4  C   UNL     1      48.750   8.355  12.810  0.00  0.00    +0.000 C 
ATOM      5  C   UNL     1      48.008   9.297  13.763  0.00  0.00    +0.000 C 
ATOM      6  C   UNL     1      48.770   9.526  15.062  0.00  0.00    +0.000 C 
ENDROOT
BRANCH   1   7
ATOM      7  C   UNL     1      49.912   8.420  17.062  0.00  0.00    +0.000 C 
BRANCH   7   8
ATOM      8  N   UNL     1      49.698   7.339  18.021  0.00  0.00    +0.000 NA
ATOM      9  H   UNL     1      50.310   6.543  17.821  0.00  0.00    +0.000 HD
BRANCH   8  11
ATOM     10  C   UNL     1      47.534   7.331  19.248  0.00  0.00    +0.000 C 
ATOM     11  C   UNL     1      48.323   6.811  18.043  0.00  0.00    +0.000 C 
BRANCH  11  12
ATOM     12  C   UNL     1      48.340   5.240  18.012  0.00  0.00    +0.000 C 
ATOM     13  C   UNL     1      49.685   4.662  17.526  0.00  0.00    +0.000 C 
ATOM     14  C   UNL     1      49.670   3.136  17.530  0.00  0.00    +0.000 C 
ATOM     15  C   UNL     1      48.473   2.604  16.753  0.00  0.00    +0.000 C 
ATOM     16  C   UNL     1      47.175   3.255  17.224  0.00  0.00    +0.000 C 
ATOM     17  N   UNL     1      47.245   4.718  17.155  0.00  0.00    +0.000 NA
ATOM     18  H   UNL     1      46.358   5.108  17.470  0.00  0.00    +0.000 HD
ENDBRANCH  11  12
ENDBRANCH   8  11
ENDBRANCH   7   8
ENDBRANCH   1   7
BRANCH   4  19
ATOM     19  C   UNL     1      47.891   8.143  11.553  0.00  0.00    +0.000 C 
BRANCH  19  20
ATOM     20  N   UNL     1      47.103   6.934  11.605  0.00  0.00    +0.000 N 
ATOM     21  C   UNL     1      45.733   6.947  11.672  0.00  0.00    +0.000 C 
ATOM     22  O   UNL     1      45.089   7.992  11.690  0.00  0.00    +0.000 OA
ATOM     23  H   UNL     1      47.605   6.058  11.716  0.00  0.00    +0.000 HD
BRANCH  21  24
ATOM     24  C   UNL     1      45.067   5.639  11.658  0.00  0.00    +0.000 A 
ATOM     25  C   UNL     1      44.402   5.203  12.796  0.00  0.00    +0.000 A 
ATOM     26  S   UNL     1      43.652   3.684  12.610  0.00  0.00    +0.000 S 
ATOM     27  C   UNL     1      44.231   3.534  11.016  0.00  0.00    +0.000 A 
ATOM     28  N   UNL     1      43.959   2.424  10.279  0.00  0.00    +0.000 NA
ATOM     29  C   UNL     1      44.488   2.424   9.102  0.00  0.00    +0.000 A 
ATOM     30  N   UNL     1      45.258   3.437   8.591  0.00  0.00    +0.000 N 
ATOM     31  C   UNL     1      45.512   4.607   9.276  0.00  0.00    +0.000 A 
ATOM     32  O   UNL     1      46.120   5.531   8.751  0.00  0.00    +0.000 OA
ATOM     33  C   UNL     1      44.966   4.638  10.622  0.00  0.00    +0.000 A 
ATOM     34  H   UNL     1      45.623   3.381   7.651  0.00  0.00    +0.000 HD
ENDBRANCH  21  24
ENDBRANCH  19  20
ENDBRANCH   4  19
TORSDOF 7
ENDMDL
MODEL 6
REMARK VINA RESULT:    -6.733      2.553      3.476
REMARK INTER + INTRA:         -10.730
REMARK INTER:                  -9.643
REMARK INTRA:                  -1.087
REMARK UNBOUND:                -1.241
REMARK  Name = 
REMARK  8 active torsions:
REMARK  status: ('A' for Active; 'I' for Inactive)
REMARK    1  A    between atoms: C_1  and  C_2
REMARK    2  A    between atoms: C_2  and  N_3
REMARK    3  A    between atoms: C_2  and  C_25
REMARK    4  A    between atoms: N_3  and  C_4
REMARK    5  A    between atoms: C_4  and  C_5
REMARK    6  A    between atoms: C_8  and  C_9
REMARK    7  A    between atoms: C_9  and  N_10
REMARK    8  A    between atoms: C_11  and  C_13
REMARK                            x       y       z     vdW  Elec       q    Type
REMARK                         _______ _______ _______ _____ _____    ______ ____
ROOT
ATOM      1  C   UNL     1      46.134   6.857  11.687  0.00  0.00    +0.000 C 
ATOM      2  C   UNL     1      46.907   5.780  12.470  0.00  0.00    +0.000 C 
ATOM      3  C   UNL     1      48.093   6.368  13.237  0.00  0.00    +0.000 C 
ATOM      4  C   UNL     1      47.662   7.511  14.169  0.00  0.00    +0.000 C 
ATOM      5  C   UNL     1      46.885   8.576  13.388  0.00  0.00    +0.000 C 
ATOM      6  C   UNL     1      45.702   7.989  12.628  0.00  0.00    +0.000 C 
ENDROOT
BRANCH   1   7
ATOM      7  C   UNL     1      44.937   6.218  10.954  0.00  0.00    +0.000 C 
BRANCH   7   8
ATOM      8  N   UNL     1      45.369   5.455   9.785  0.00  0.00    +0.000 NA
ATOM      9  H   UNL     1      45.497   6.066   8.974  0.00  0.00    +0.000 HD
BRANCH   8  11
ATOM     10  C   UNL     1      43.877   3.624  10.566  0.00  0.00    +0.000 C 
ATOM     11  C   UNL     1      44.430   4.400   9.368  0.00  0.00    +0.000 C 
BRANCH  11  12
ATOM     12  C   UNL     1      45.117   3.434   8.335  0.00  0.00    +0.000 C 
ATOM     13  C   UNL     1      45.723   2.179   8.996  0.00  0.00    +0.000 C 
ATOM     14  C   UNL     1      46.360   1.257   7.961  0.00  0.00    +0.000 C 
ATOM     15  C   UNL     1      47.356   2.019   7.095  0.00  0.00    +0.000 C 
ATOM     16  C   UNL     1      46.730   3.287   6.520  0.00  0.00    +0.000 C 
ATOM     17  N   UNL     1      46.175   4.144   7.572  0.00  0.00    +0.000 NA
ATOM     18  H   UNL     1      45.776   4.979   7.144  0.00  0.00    +0.000 HD
ENDBRANCH  11  12
ENDBRANCH   8  11
ENDBRANCH   7   8
ENDBRANCH   1   7
BRANCH   4  19
ATOM     19  C   UNL     1      48.861   8.180  14.860  0.00  0.00    +0.000 C 
BRANCH  19  20
ATOM     20  N   UNL     1      49.807   7.230  15.396  0.00  0.00    +0.000 N 
ATOM     21  C   UNL     1      49.723   6.746  16.677  0.00  0.00    +0.000 C 
ATOM     22  O   UNL     1      48.833   7.091  17.450  0.00  0.00    +0.000 OA
ATOM     23  H   UNL     1      50.622   7.018  14.830  0.00  0.00    +0.000 HD
BRANCH  21  24
ATOM     24  C   UNL     1      50.720   5.741  17.060  0.00  0.00    +0.000 A 
ATOM     25  C   UNL     1      50.296   4.506  17.533  0.00  0.00    +0.000 A 
ATOM     26  S   UNL     1      51.571   3.438  17.901  0.00  0.00    +0.000 S 
ATOM     27  C   UNL     1      52.739   4.606  17.488  0.00  0.00    +0.000 A 
ATOM     28  N   UNL     1      54.066   4.333  17.602  0.00  0.00    +0.000 NA
ATOM     29  C   UNL     1      54.841   5.317  17.290  0.00  0.00    +0.000 A 
ATOM     30  N   UNL     1      54.409   6.549  16.867  0.00  0.00    +0.000 N 
ATOM     31  C   UNL     1      53.077   6.854  16.679  0.00  0.00    +0.000 A 
ATOM     32  O   UNL     1      52.733   7.929  16.205  0.00  0.00    +0.000 OA
ATOM     33  C   UNL     1      52.164   5.787  17.051  0.00  0.00    +0.000 A 
ATOM     34  H   UNL     1      55.072   7.268  16.619  0.00  0.00    +0.000 HD
ENDBRANCH  21  24
ENDBRANCH  19  20
ENDBRANCH   4  19
TORSDOF 7
ENDMDL
MODEL 7
REMARK VINA RESULT:    -6.726      2.110      2.620
REMARK INTER + INTRA:         -10.719
REMARK INTER:                  -9.399
REMARK INTRA:                  -1.321
REMARK UNBOUND:                -1.241
REMARK  Name = 
REMARK  8 active torsions:
REMARK  status: ('A' for Active; 'I' for Inactive)
REMARK    1  A    between atoms: C_1  and  C_2
REMARK    2  A    between atoms: C_2  and  N_3
REMARK    3  A    between atoms: C_2  and  C_25
REMARK    4  A    between atoms: N_3  and  C_4
REMARK    5  A    between atoms: C_4  and  C_5
REMARK    6  A    between atoms: C_8  and  C_9
REMARK    7  A    between atoms: C_9  and  N_10
REMARK    8  A    between atoms: C_11  and  C_13
REMARK                            x       y       z     vdW  Elec       q    Type
REMARK                         _______ _______ _______ _____ _____    ______ ____
ROOT
ATOM      1  C   UNL     1      46.225   6.330  12.230  0.00  0.00    +0.000 C 
ATOM      2  C   UNL     1      45.231   7.502  12.321  0.00  0.00    +0.000 C 
ATOM      3  C   UNL     1      45.873   8.753  12.925  0.00  0.00    +0.000 C 
ATOM      4  C   UNL     1      47.139   9.173  12.160  0.00  0.00    +0.000 C 
ATOM      5  C   UNL     1      48.120   8.000  12.064  0.00  0.00    +0.000 C 
ATOM      6  C   UNL     1      47.480   6.757  11.459  0.00  0.00    +0.000 C 
ENDROOT
BRANCH   1   7
ATOM      7  C   UNL     1      45.538   5.104  11.594  0.00  0.00    +0.000 C 
BRANCH   7   8
ATOM      8  N   UNL     1      45.018   5.411  10.264  0.00  0.00    +0.000 NA
ATOM      9  H   UNL     1      44.484   6.284  10.270  0.00  0.00    +0.000 HD
BRANCH   8  11
ATOM     10  C   UNL     1      43.565   3.464  10.801  0.00  0.00    +0.000 C 
ATOM     11  C   UNL     1      44.124   4.380   9.708  0.00  0.00    +0.000 C 
BRANCH  11  12
ATOM     12  C   UNL     1      44.868   3.551   8.599  0.00  0.00    +0.000 C 
ATOM     13  C   UNL     1      45.498   2.252   9.140  0.00  0.00    +0.000 C 
ATOM     14  C   UNL     1      46.191   1.465   8.031  0.00  0.00    +0.000 C 
ATOM     15  C   UNL     1      47.182   2.345   7.281  0.00  0.00    +0.000 C 
ATOM     16  C   UNL     1      46.531   3.648   6.825  0.00  0.00    +0.000 C 
ATOM     17  N   UNL     1      45.921   4.370   7.947  0.00  0.00    +0.000 NA
ATOM     18  H   UNL     1      45.506   5.234   7.599  0.00  0.00    +0.000 HD
ENDBRANCH  11  12
ENDBRANCH   8  11
ENDBRANCH   7   8
ENDBRANCH   1   7
BRANCH   4  19
ATOM     19  C   UNL     1      47.850  10.362  12.825  0.00  0.00    +0.000 C 
BRANCH  19  20
ATOM     20  N   UNL     1      48.211  10.109  14.199  0.00  0.00    +0.000 N 
ATOM     21  C   UNL     1      49.506  10.185  14.649  0.00  0.00    +0.000 C 
ATOM     22  O   UNL     1      50.440  10.475  13.907  0.00  0.00    +0.000 OA
ATOM     23  H   UNL     1      47.486   9.748  14.810  0.00  0.00    +0.000 HD
BRANCH  21  24
ATOM     24  C   UNL     1      49.711   9.960  16.084  0.00  0.00    +0.000 A 
ATOM     25  C   UNL     1      50.227  10.984  16.866  0.00  0.00    +0.000 A 
ATOM     26  S   UNL     1      50.372  10.580  18.515  0.00  0.00    +0.000 S 
ATOM     27  C   UNL     1      49.795   9.004  18.235  0.00  0.00    +0.000 A 
ATOM     28  N   UNL     1      49.692   8.109  19.253  0.00  0.00    +0.000 NA
ATOM     29  C   UNL     1      49.275   6.941  18.896  0.00  0.00    +0.000 A 
ATOM     30  N   UNL     1      48.944   6.587  17.613  0.00  0.00    +0.000 N 
ATOM     31  C   UNL     1      48.975   7.475  16.557  0.00  0.00    +0.000 A 
ATOM     32  O   UNL     1      48.577   7.154  15.445  0.00  0.00    +0.000 OA
ATOM     33  C   UNL     1      49.473   8.795  16.905  0.00  0.00    +0.000 A 
ATOM     34  H   UNL     1      48.603   5.660  17.407  0.00  0.00    +0.000 HD
ENDBRANCH  21  24
ENDBRANCH  19  20
ENDBRANCH   4  19
TORSDOF 7
ENDMDL
MODEL 8
REMARK VINA RESULT:    -6.589      3.215      8.085
REMARK INTER + INTRA:         -10.527
REMARK INTER:                  -9.124
REMARK INTRA:                  -1.403
REMARK UNBOUND:                -1.241
REMARK  Name = 
REMARK  8 active torsions:
REMARK  status: ('A' for Active; 'I' for Inactive)
REMARK    1  A    between atoms: C_1  and  C_2
REMARK    2  A    between atoms: C_2  and  N_3
REMARK    3  A    between atoms: C_2  and  C_25
REMARK    4  A    between atoms: N_3  and  C_4
REMARK    5  A    between atoms: C_4  and  C_5
REMARK    6  A    between atoms: C_8  and  C_9
REMARK    7  A    between atoms: C_9  and  N_10
REMARK    8  A    between atoms: C_11  and  C_13
REMARK                            x       y       z     vdW  Elec       q    Type
REMARK                         _______ _______ _______ _____ _____    ______ ____
ROOT
ATOM      1  C   UNL     1      49.536   7.913  16.358  0.00  0.00    +0.000 C 
ATOM      2  C   UNL     1      49.051   6.594  15.730  0.00  0.00    +0.000 C 
ATOM      3  C   UNL     1      48.266   6.828  14.438  0.00  0.00    +0.000 C 
ATOM      4  C   UNL     1      49.071   7.649  13.419  0.00  0.00    +0.000 C 
ATOM      5  C   UNL     1      49.559   8.956  14.051  0.00  0.00    +0.000 C 
ATOM      6  C   UNL     1      50.345   8.722  15.335  0.00  0.00    +0.000 C 
ENDROOT
BRANCH   1   7
ATOM      7  C   UNL     1      50.342   7.622  17.640  0.00  0.00    +0.000 C 
BRANCH   7   8
ATOM      8  N   UNL     1      49.598   6.761  18.557  0.00  0.00    +0.000 NA
ATOM      9  H   UNL     1      49.250   7.292  19.359  0.00  0.00    +0.000 HD
BRANCH   8  11
ATOM     10  C   UNL     1      51.863   5.748  18.738  0.00  0.00    +0.000 C 
ATOM     11  C   UNL     1      50.380   5.641  19.107  0.00  0.00    +0.000 C 
BRANCH  11  12
ATOM     12  C   UNL     1      49.776   4.268  18.635  0.00  0.00    +0.000 C 
ATOM     13  C   UNL     1      50.621   3.583  17.542  0.00  0.00    +0.000 C 
ATOM     14  C   UNL     1      50.015   2.245  17.126  0.00  0.00    +0.000 C 
ATOM     15  C   UNL     1      48.551   2.410  16.738  0.00  0.00    +0.000 C 
ATOM     16  C   UNL     1      47.773   3.153  17.821  0.00  0.00    +0.000 C 
ATOM     17  N   UNL     1      48.387   4.446  18.141  0.00  0.00    +0.000 NA
ATOM     18  H   UNL     1      47.832   4.908  18.860  0.00  0.00    +0.000 HD
ENDBRANCH  11  12
ENDBRANCH   8  11
ENDBRANCH   7   8
ENDBRANCH   1   7
BRANCH   4  19
ATOM     19  C   UNL     1      48.249   7.982  12.163  0.00  0.00    +0.000 C 
BRANCH  19  20
ATOM     20  N   UNL     1      47.519   6.848  11.649  0.00  0.00    +0.000 N 
ATOM     21  C   UNL     1      46.171   6.891  11.394  0.00  0.00    +0.000 C 
ATOM     22  O   UNL     1      45.501   7.902  11.587  0.00  0.00    +0.000 OA
ATOM     23  H   UNL     1      48.014   5.963  11.595  0.00  0.00    +0.000 HD
BRANCH  21  24
ATOM     24  C   UNL     1      45.578   5.680  10.817  0.00  0.00    +0.000 A 
ATOM     25  C   UNL     1      45.711   5.439   9.457  0.00  0.00    +0.000 A 
ATOM     26  S   UNL     1      45.000   3.976   8.947  0.00  0.00    +0.000 S 
ATOM     27  C   UNL     1      44.446   3.636  10.520  0.00  0.00    +0.000 A 
ATOM     28  N   UNL     1      43.725   2.512  10.776  0.00  0.00    +0.000 NA
ATOM     29  C   UNL     1      43.337   2.395  12.002  0.00  0.00    +0.000 A 
ATOM     30  N   UNL     1      43.612   3.297  12.998  0.00  0.00    +0.000 N 
ATOM     31  C   UNL     1      44.389   4.420  12.801  0.00  0.00    +0.000 A 
ATOM     32  O   UNL     1      44.697   5.150  13.735  0.00  0.00    +0.000 OA
ATOM     33  C   UNL     1      44.819   4.613  11.428  0.00  0.00    +0.000 A 
ATOM     34  H   UNL     1      43.295   3.132  13.942  0.00  0.00    +0.000 HD
ENDBRANCH  21  24
ENDBRANCH  19  20
ENDBRANCH   4  19
TORSDOF 7
ENDMDL
MODEL 9
REMARK VINA RESULT:    -6.346      2.286      3.054
REMARK INTER + INTRA:         -10.185
REMARK INTER:                  -9.288
REMARK INTRA:                  -0.897
REMARK UNBOUND:                -1.241
REMARK  Name = 
REMARK  8 active torsions:
REMARK  status: ('A' for Active; 'I' for Inactive)
REMARK    1  A    between atoms: C_1  and  C_2
REMARK    2  A    between atoms: C_2  and  N_3
REMARK    3  A    between atoms: C_2  and  C_25
REMARK    4  A    between atoms: N_3  and  C_4
REMARK    5  A    between atoms: C_4  and  C_5
REMARK    6  A    between atoms: C_8  and  C_9
REMARK    7  A    between atoms: C_9  and  N_10
REMARK    8  A    between atoms: C_11  and  C_13
REMARK                            x       y       z     vdW  Elec       q    Type
REMARK                         _______ _______ _______ _____ _____    ______ ____
ROOT
ATOM      1  C   UNL     1      45.020   4.640  11.651  0.00  0.00    +0.000 C 
ATOM      2  C   UNL     1      45.689   4.788  13.029  0.00  0.00    +0.000 C 
ATOM      3  C   UNL     1      46.356   6.154  13.200  0.00  0.00    +0.000 C 
ATOM      4  C   UNL     1      45.372   7.308  12.948  0.00  0.00    +0.000 C 
ATOM      5  C   UNL     1      44.702   7.150  11.579  0.00  0.00    +0.000 C 
ATOM      6  C   UNL     1      44.035   5.791  11.412  0.00  0.00    +0.000 C 
ENDROOT
BRANCH   1   7
ATOM      7  C   UNL     1      44.343   3.259  11.539  0.00  0.00    +0.000 C 
BRANCH   7   8
ATOM      8  N   UNL     1      44.725   2.572  10.307  0.00  0.00    +0.000 NA
ATOM      9  H   UNL     1      45.483   1.905  10.478  0.00  0.00    +0.000 HD
BRANCH   8  11
ATOM     10  C   UNL     1      44.033   3.958   8.360  0.00  0.00    +0.000 C 
ATOM     11  C   UNL     1      45.191   3.466   9.233  0.00  0.00    +0.000 C 
BRANCH  11  12
ATOM     12  C   UNL     1      46.291   2.752   8.367  0.00  0.00    +0.000 C 
ATOM     13  C   UNL     1      46.414   3.340   6.946  0.00  0.00    +0.000 C 
ATOM     14  C   UNL     1      47.506   2.637   6.145  0.00  0.00    +0.000 C 
ATOM     15  C   UNL     1      47.298   1.128   6.153  0.00  0.00    +0.000 C 
ATOM     16  C   UNL     1      47.114   0.604   7.575  0.00  0.00    +0.000 C 
ATOM     17  N   UNL     1      46.024   1.295   8.271  0.00  0.00    +0.000 NA
ATOM     18  H   UNL     1      45.932   0.909   9.211  0.00  0.00    +0.000 HD
ENDBRANCH  11  12
ENDBRANCH   8  11
ENDBRANCH   7   8
ENDBRANCH   1   7
BRANCH   4  19
ATOM     19  C   UNL     1      46.059   8.681  13.009  0.00  0.00    +0.000 C 
BRANCH  19  20
ATOM     20  N   UNL     1      46.987   8.800  14.109  0.00  0.00    +0.000 N 
ATOM     21  C   UNL     1      48.223   9.381  13.973  0.00  0.00    +0.000 C 
ATOM     22  O   UNL     1      48.617   9.838  12.904  0.00  0.00    +0.000 OA
ATOM     23  H   UNL     1      46.746   8.325  14.973  0.00  0.00    +0.000 HD
BRANCH  21  24
ATOM     24  C   UNL     1      49.032   9.484  15.193  0.00  0.00    +0.000 A 
ATOM     25  C   UNL     1      49.283  10.735  15.739  0.00  0.00    +0.000 A 
ATOM     26  S   UNL     1      50.205  10.685  17.171  0.00  0.00    +0.000 S 
ATOM     27  C   UNL     1      50.342   8.991  17.086  0.00  0.00    +0.000 A 
ATOM     28  N   UNL     1      51.047   8.302  18.024  0.00  0.00    +0.000 NA
ATOM     29  C   UNL     1      51.101   7.029  17.820  0.00  0.00    +0.000 A 
ATOM     30  N   UNL     1      50.508   6.379  16.767  0.00  0.00    +0.000 N 
ATOM     31  C   UNL     1      49.735   7.026  15.825  0.00  0.00    +0.000 A 
ATOM     32  O   UNL     1      49.139   6.401  14.957  0.00  0.00    +0.000 OA
ATOM     33  C   UNL     1      49.674   8.467  15.993  0.00  0.00    +0.000 A 
ATOM     34  H   UNL     1      50.573   5.376  16.681  0.00  0.00    +0.000 HD
ENDBRANCH  21  24
ENDBRANCH  19  20
ENDBRANCH   4  19
TORSDOF 7
ENDMDL
