MODEL 1
REMARK VINA RESULT:    -8.461      0.000      0.000
REMARK INTER + INTRA:         -12.485
REMARK INTER:                 -11.428
REMARK INTRA:                  -1.057
REMARK UNBOUND:                -1.057
REMARK  Name = 
REMARK  6 active torsions:
REMARK  status: ('A' for Active; 'I' for Inactive)
REMARK    1  A    between atoms: C_2  and  C_25
REMARK    2  A    between atoms: N_3  and  C_4
REMARK    3  A    between atoms: C_4  and  C_5
REMARK    4  A    between atoms: C_8  and  C_9
REMARK    5  A    between atoms: C_9  and  N_10
REMARK    6  A    between atoms: C_11  and  C_13
REMARK                            x       y       z     vdW  Elec       q    Type
REMARK                         _______ _______ _______ _____ _____    ______ ____
ROOT
ATOM      1  C   UNL     1      45.023   6.287  11.202  0.00  0.00    +0.000 A 
ATOM      2  C   UNL     1      44.577   7.501  11.742  0.00  0.00    +0.000 A 
ATOM      3  C   UNL     1      45.383   8.226  12.626  0.00  0.00    +0.000 A 
ATOM      4  C   UNL     1      46.658   7.761  12.972  0.00  0.00    +0.000 A 
ATOM      5  C   UNL     1      47.094   6.536  12.447  0.00  0.00    +0.000 A 
ATOM      6  C   UNL     1      46.289   5.812  11.565  0.00  0.00    +0.000 A 
ENDROOT
BRANCH   1   7
ATOM      7  C   UNL     1      44.161   5.511  10.244  0.00  0.00    +0.000 C 
BRANCH   7  10
ATOM      8  O   UNL     1      44.182   2.723  10.049  0.00  0.00    +0.000 OA
ATOM      9  C   UNL     1      44.876   3.375   9.275  0.00  0.00    +0.000 C 
ATOM     10  N   UNL     1      44.940   4.754   9.299  0.00  0.00    +0.000 N 
ATOM     11  H   UNL     1      45.535   5.211   8.615  0.00  0.00    +0.000 HD
BRANCH   9  12
ATOM     12  C   UNL     1      45.710   2.704   8.227  0.00  0.00    +0.000 A 
ATOM     13  C   UNL     1      46.066   3.416   7.086  0.00  0.00    +0.000 A 
ATOM     14  C   UNL     1      46.848   2.780   6.127  0.00  0.00    +0.000 A 
ATOM     15  C   UNL     1      47.243   1.464   6.338  0.00  0.00    +0.000 A 
ATOM     16  C   UNL     1      46.841   0.831   7.506  0.00  0.00    +0.000 A 
ATOM     17  N   UNL     1      46.083   1.416   8.464  0.00  0.00    +0.000 NA
ENDBRANCH   9  12
ENDBRANCH   7  10
ENDBRANCH   1   7
BRANCH   4  18
ATOM     18  C   UNL     1      47.533   8.531  13.927  0.00  0.00    +0.000 C 
BRANCH  18  19
ATOM     19  N   UNL     1      47.883   7.722  15.065  0.00  0.00    +0.000 N 
ATOM     20  C   UNL     1      49.120   7.144  15.188  0.00  0.00    +0.000 C 
ATOM     21  O   UNL     1      50.011   7.324  14.364  0.00  0.00    +0.000 OA
ATOM     22  H   UNL     1      47.111   7.366  15.621  0.00  0.00    +0.000 HD
BRANCH  20  23
ATOM     23  C   UNL     1      49.344   6.347  16.402  0.00  0.00    +0.000 A 
ATOM     24  C   UNL     1      50.328   6.725  17.306  0.00  0.00    +0.000 A 
ATOM     25  S   UNL     1      50.393   5.739  18.697  0.00  0.00    +0.000 S 
ATOM     26  C   UNL     1      49.148   4.735  18.111  0.00  0.00    +0.000 A 
ATOM     27  N   UNL     1      48.715   3.663  18.829  0.00  0.00    +0.000 NA
ATOM     28  C   UNL     1      47.786   2.976  18.253  0.00  0.00    +0.000 A 
ATOM     29  N   UNL     1      47.253   3.261  17.024  0.00  0.00    +0.000 N 
ATOM     30  C   UNL     1      47.645   4.341  16.274  0.00  0.00    +0.000 A 
ATOM     31  O   UNL     1      47.129   4.580  15.186  0.00  0.00    +0.000 OA
ATOM     32  C   UNL     1      48.685   5.153  16.877  0.00  0.00    +0.000 A 
ATOM     33  H   UNL     1      46.528   2.682  16.626  0.00  0.00    +0.000 HD
ENDBRANCH  20  23
ENDBRANCH  18  19
ENDBRANCH   4  18
TORSDOF 6
ENDMDL
MODEL 2
REMARK VINA RESULT:    -7.959      1.827      2.183
REMARK INTER + INTRA:         -11.807
REMARK INTER:                 -10.846
REMARK INTRA:                  -0.961
REMARK UNBOUND:                -1.057
REMARK  Name = 
REMARK  6 active torsions:
REMARK  status: ('A' for Active; 'I' for Inactive)
REMARK    1  A    between atoms: C_2  and  C_25
REMARK    2  A    between atoms: N_3  and  C_4
REMARK    3  A    between atoms: C_4  and  C_5
REMARK    4  A    between atoms: C_8  and  C_9
REMARK    5  A    between atoms: C_9  and  N_10
REMARK    6  A    between atoms: C_11  and  C_13
REMARK                            x       y       z     vdW  Elec       q    Type
REMARK                         _______ _______ _______ _____ _____    ______ ____
ROOT
ATOM      1  C   UNL     1      44.793   4.976  11.973  0.00  0.00    +0.000 A 
ATOM      2  C   UNL     1      44.250   6.197  11.550  0.00  0.00    +0.000 A 
ATOM      3  C   UNL     1      44.823   7.408  11.951  0.00  0.00    +0.000 A 
ATOM      4  C   UNL     1      45.962   7.422  12.766  0.00  0.00    +0.000 A 
ATOM      5  C   UNL     1      46.491   6.201  13.205  0.00  0.00    +0.000 A 
ATOM      6  C   UNL     1      45.919   4.991  12.805  0.00  0.00    +0.000 A 
ENDROOT
BRANCH   1   7
ATOM      7  C   UNL     1      44.183   3.672  11.535  0.00  0.00    +0.000 C 
BRANCH   7  10
ATOM      8  O   UNL     1      44.066   4.184   8.790  0.00  0.00    +0.000 OA
ATOM      9  C   UNL     1      44.853   3.336   9.200  0.00  0.00    +0.000 C 
ATOM     10  N   UNL     1      44.977   3.007  10.535  0.00  0.00    +0.000 N 
ATOM     11  H   UNL     1      45.660   2.298  10.785  0.00  0.00    +0.000 HD
BRANCH   9  12
ATOM     12  C   UNL     1      45.754   2.594   8.262  0.00  0.00    +0.000 A 
ATOM     13  C   UNL     1      46.301   3.266   7.174  0.00  0.00    +0.000 A 
ATOM     14  C   UNL     1      47.142   2.563   6.317  0.00  0.00    +0.000 A 
ATOM     15  C   UNL     1      47.404   1.221   6.573  0.00  0.00    +0.000 A 
ATOM     16  C   UNL     1      46.813   0.631   7.682  0.00  0.00    +0.000 A 
ATOM     17  N   UNL     1      45.992   1.282   8.541  0.00  0.00    +0.000 NA
ENDBRANCH   9  12
ENDBRANCH   7  10
ENDBRANCH   1   7
BRANCH   4  18
ATOM     18  C   UNL     1      46.585   8.721  13.208  0.00  0.00    +0.000 C 
BRANCH  18  19
ATOM     19  N   UNL     1      47.063   8.624  14.563  0.00  0.00    +0.000 N 
ATOM     20  C   UNL     1      48.275   9.140  14.941  0.00  0.00    +0.000 C 
ATOM     21  O   UNL     1      48.995   9.757  14.160  0.00  0.00    +0.000 OA
ATOM     22  H   UNL     1      46.615   7.927  15.151  0.00  0.00    +0.000 HD
BRANCH  20  23
ATOM     23  C   UNL     1      48.637   8.974  16.355  0.00  0.00    +0.000 A 
ATOM     24  C   UNL     1      48.702  10.083  17.187  0.00  0.00    +0.000 A 
ATOM     25  S   UNL     1      49.052   9.699  18.812  0.00  0.00    +0.000 S 
ATOM     26  C   UNL     1      49.188   8.041  18.448  0.00  0.00    +0.000 A 
ATOM     27  N   UNL     1      49.492   7.133  19.415  0.00  0.00    +0.000 NA
ATOM     28  C   UNL     1      49.590   5.917  18.994  0.00  0.00    +0.000 A 
ATOM     29  N   UNL     1      49.415   5.526  17.692  0.00  0.00    +0.000 N 
ATOM     30  C   UNL     1      49.090   6.403  16.688  0.00  0.00    +0.000 A 
ATOM     31  O   UNL     1      48.918   6.014  15.536  0.00  0.00    +0.000 OA
ATOM     32  C   UNL     1      48.961   7.785  17.108  0.00  0.00    +0.000 A 
ATOM     33  H   UNL     1      49.507   4.557  17.425  0.00  0.00    +0.000 HD
ENDBRANCH  20  23
ENDBRANCH  18  19
ENDBRANCH   4  18
TORSDOF 6
ENDMDL
MODEL 3
REMARK VINA RESULT:    -7.813      1.834      2.190
REMARK INTER + INTRA:         -11.611
REMARK INTER:                 -10.645
REMARK INTRA:                  -0.966
REMARK UNBOUND:                -1.057
REMARK  Name = 
REMARK  6 active torsions:
REMARK  status: ('A' for Active; 'I' for Inactive)
REMARK    1  A    between atoms: C_2  and  C_25
REMARK    2  A    between atoms: N_3  and  C_4
REMARK    3  A    between atoms: C_4  and  C_5
REMARK    4  A    between atoms: C_8  and  C_9
REMARK    5  A    between atoms: C_9  and  N_10
REMARK    6  A    between atoms: C_11  and  C_13
REMARK                            x       y       z     vdW  Elec       q    Type
REMARK                         _______ _______ _______ _____ _____    ______ ____
ROOT
ATOM      1  C   UNL     1      45.253   6.232  11.409  0.00  0.00    +0.000 A 
ATOM      2  C   UNL     1      44.996   7.541  11.842  0.00  0.00    +0.000 A 
ATOM      3  C   UNL     1      45.856   8.173  12.746  0.00  0.00    +0.000 A 
ATOM      4  C   UNL     1      47.000   7.518  13.218  0.00  0.00    +0.000 A 
ATOM      5  C   UNL     1      47.245   6.203  12.800  0.00  0.00    +0.000 A 
ATOM      6  C   UNL     1      46.386   5.571  11.898  0.00  0.00    +0.000 A 
ENDROOT
BRANCH   1   7
ATOM      7  C   UNL     1      44.334   5.554  10.430  0.00  0.00    +0.000 C 
BRANCH   7  10
ATOM      8  O   UNL     1      44.248   2.772  10.178  0.00  0.00    +0.000 OA
ATOM      9  C   UNL     1      44.940   3.415   9.395  0.00  0.00    +0.000 C 
ATOM     10  N   UNL     1      45.054   4.790   9.445  0.00  0.00    +0.000 N 
ATOM     11  H   UNL     1      45.642   5.240   8.751  0.00  0.00    +0.000 HD
BRANCH   9  12
ATOM     12  C   UNL     1      45.714   2.738   8.307  0.00  0.00    +0.000 A 
ATOM     13  C   UNL     1      46.032   3.452   7.157  0.00  0.00    +0.000 A 
ATOM     14  C   UNL     1      46.760   2.809   6.159  0.00  0.00    +0.000 A 
ATOM     15  C   UNL     1      47.139   1.484   6.343  0.00  0.00    +0.000 A 
ATOM     16  C   UNL     1      46.777   0.849   7.523  0.00  0.00    +0.000 A 
ATOM     17  N   UNL     1      46.073   1.441   8.518  0.00  0.00    +0.000 NA
ENDBRANCH   9  12
ENDBRANCH   7  10
ENDBRANCH   1   7
BRANCH   4  18
ATOM     18  C   UNL     1      47.932   8.189  14.195  0.00  0.00    +0.000 C 
BRANCH  18  19
ATOM     19  N   UNL     1      47.898   7.524  15.472  0.00  0.00    +0.000 N 
ATOM     20  C   UNL     1      48.956   6.780  15.927  0.00  0.00    +0.000 C 
ATOM     21  O   UNL     1      50.005   6.682  15.298  0.00  0.00    +0.000 OA
ATOM     22  H   UNL     1      46.982   7.389  15.887  0.00  0.00    +0.000 HD
BRANCH  20  23
ATOM     23  C   UNL     1      48.789   6.159  17.248  0.00  0.00    +0.000 A 
ATOM     24  C   UNL     1      49.062   4.808  17.417  0.00  0.00    +0.000 A 
ATOM     25  S   UNL     1      48.898   4.275  19.029  0.00  0.00    +0.000 S 
ATOM     26  C   UNL     1      48.400   5.818  19.548  0.00  0.00    +0.000 A 
ATOM     27  N   UNL     1      48.083   6.053  20.850  0.00  0.00    +0.000 NA
ATOM     28  C   UNL     1      47.695   7.259  21.097  0.00  0.00    +0.000 A 
ATOM     29  N   UNL     1      47.592   8.252  20.159  0.00  0.00    +0.000 N 
ATOM     30  C   UNL     1      47.918   8.067  18.838  0.00  0.00    +0.000 A 
ATOM     31  O   UNL     1      47.837   8.986  18.029  0.00  0.00    +0.000 OA
ATOM     32  C   UNL     1      48.367   6.728  18.507  0.00  0.00    +0.000 A 
ATOM     33  H   UNL     1      47.280   9.177  20.415  0.00  0.00    +0.000 HD
ENDBRANCH  20  23
ENDBRANCH  18  19
ENDBRANCH   4  18
TORSDOF 6
ENDMDL
MODEL 4
REMARK VINA RESULT:    -7.251      3.490      4.362
REMARK INTER + INTRA:         -10.852
REMARK INTER:                  -9.926
REMARK INTRA:                  -0.926
REMARK UNBOUND:                -1.057
REMARK  Name = 
REMARK  6 active torsions:
REMARK  status: ('A' for Active; 'I' for Inactive)
REMARK    1  A    between atoms: C_2  and  C_25
REMARK    2  A    between atoms: N_3  and  C_4
REMARK    3  A    between atoms: C_4  and  C_5
REMARK    4  A    between atoms: C_8  and  C_9
REMARK    5  A    between atoms: C_9  and  N_10
REMARK    6  A    between atoms: C_11  and  C_13
REMARK                            x       y       z     vdW  Elec       q    Type
REMARK                         _______ _______ _______ _____ _____    ______ ____
ROOT
ATOM      1  C   UNL     1      44.855   4.856  12.022  0.00  0.00    +0.000 A 
ATOM      2  C   UNL     1      44.210   5.968  11.462  0.00  0.00    +0.000 A 
ATOM      3  C   UNL     1      44.603   7.266  11.804  0.00  0.00    +0.000 A 
ATOM      4  C   UNL     1      45.661   7.478  12.696  0.00  0.00    +0.000 A 
ATOM      5  C   UNL     1      46.292   6.366  13.271  0.00  0.00    +0.000 A 
ATOM      6  C   UNL     1      45.900   5.069  12.930  0.00  0.00    +0.000 A 
ENDROOT
BRANCH   1   7
ATOM      7  C   UNL     1      44.441   3.459  11.648  0.00  0.00    +0.000 C 
BRANCH   7  10
ATOM      8  O   UNL     1      43.993   3.948   8.933  0.00  0.00    +0.000 OA
ATOM      9  C   UNL     1      44.934   3.231   9.257  0.00  0.00    +0.000 C 
ATOM     10  N   UNL     1      45.231   2.924  10.570  0.00  0.00    +0.000 N 
ATOM     11  H   UNL     1      46.035   2.330  10.746  0.00  0.00    +0.000 HD
BRANCH   9  12
ATOM     12  C   UNL     1      45.848   2.637   8.229  0.00  0.00    +0.000 A 
ATOM     13  C   UNL     1      46.333   3.445   7.206  0.00  0.00    +0.000 A 
ATOM     14  C   UNL     1      47.187   2.879   6.265  0.00  0.00    +0.000 A 
ATOM     15  C   UNL     1      47.522   1.533   6.375  0.00  0.00    +0.000 A 
ATOM     16  C   UNL     1      46.989   0.803   7.429  0.00  0.00    +0.000 A 
ATOM     17  N   UNL     1      46.158   1.318   8.366  0.00  0.00    +0.000 NA
ENDBRANCH   9  12
ENDBRANCH   7  10
ENDBRANCH   1   7
BRANCH   4  18
ATOM     18  C   UNL     1      46.090   8.872  13.075  0.00  0.00    +0.000 C 
BRANCH  18  19
ATOM     19  N   UNL     1      47.496   9.059  12.827  0.00  0.00    +0.000 N 
ATOM     20  C   UNL     1      48.401   9.179  13.849  0.00  0.00    +0.000 C 
ATOM     21  O   UNL     1      48.072   9.082  15.028  0.00  0.00    +0.000 OA
ATOM     22  H   UNL     1      47.752   9.379  11.897  0.00  0.00    +0.000 HD
BRANCH  20  23
ATOM     23  C   UNL     1      49.805   9.361  13.454  0.00  0.00    +0.000 A 
ATOM     24  C   UNL     1      50.585  10.314  14.094  0.00  0.00    +0.000 A 
ATOM     25  S   UNL     1      52.208  10.331  13.570  0.00  0.00    +0.000 S 
ATOM     26  C   UNL     1      51.910   9.106  12.426  0.00  0.00    +0.000 A 
ATOM     27  N   UNL     1      52.901   8.648  11.614  0.00  0.00    +0.000 NA
ATOM     28  C   UNL     1      52.528   7.739  10.777  0.00  0.00    +0.000 A 
ATOM     29  N   UNL     1      51.253   7.247  10.676  0.00  0.00    +0.000 N 
ATOM     30  C   UNL     1      50.227   7.666  11.486  0.00  0.00    +0.000 A 
ATOM     31  O   UNL     1      49.102   7.186  11.383  0.00  0.00    +0.000 OA
ATOM     32  C   UNL     1      50.593   8.685  12.451  0.00  0.00    +0.000 A 
ATOM     33  H   UNL     1      51.024   6.536   9.997  0.00  0.00    +0.000 HD
ENDBRANCH  20  23
ENDBRANCH  18  19
ENDBRANCH   4  18
TORSDOF 6
ENDMDL
MODEL 5
REMARK VINA RESULT:    -6.879      3.417      4.645
REMARK INTER + INTRA:         -10.349
REMARK INTER:                  -9.266
REMARK INTRA:                  -1.083
REMARK UNBOUND:                -1.057
REMARK  Name = 
REMARK  6 active torsions:
REMARK  status: ('A' for Active; 'I' for Inactive)
REMARK    1  A    between atoms: C_2  and  C_25
REMARK    2  A    between atoms: N_3  and  C_4
REMARK    3  A    between atoms: C_4  and  C_5
REMARK    4  A    between atoms: C_8  and  C_9
REMARK    5  A    between atoms: C_9  and  N_10
REMARK    6  A    between atoms: C_11  and  C_13
REMARK                            x       y       z     vdW  Elec       q    Type
REMARK                         _______ _______ _______ _____ _____    ______ ____
ROOT
ATOM      1  C   UNL     1      45.132   5.044  11.942  0.00  0.00    +0.000 A 
ATOM      2  C   UNL     1      45.137   6.324  11.370  0.00  0.00    +0.000 A 
ATOM      3  C   UNL     1      45.890   7.356  11.939  0.00  0.00    +0.000 A 
ATOM      4  C   UNL     1      46.669   7.124  13.079  0.00  0.00    +0.000 A 
ATOM      5  C   UNL     1      46.647   5.850  13.663  0.00  0.00    +0.000 A 
ATOM      6  C   UNL     1      45.895   4.819  13.095  0.00  0.00    +0.000 A 
ENDROOT
BRANCH   1   7
ATOM      7  C   UNL     1      44.330   3.930  11.326  0.00  0.00    +0.000 C 
BRANCH   7  10
ATOM      8  O   UNL     1      44.175   4.325   8.564  0.00  0.00    +0.000 OA
ATOM      9  C   UNL     1      44.942   3.470   8.997  0.00  0.00    +0.000 C 
ATOM     10  N   UNL     1      45.081   3.195  10.343  0.00  0.00    +0.000 N 
ATOM     11  H   UNL     1      45.746   2.476  10.611  0.00  0.00    +0.000 HD
BRANCH   9  12
ATOM     12  C   UNL     1      45.799   2.657   8.076  0.00  0.00    +0.000 A 
ATOM     13  C   UNL     1      46.281   3.241   6.909  0.00  0.00    +0.000 A 
ATOM     14  C   UNL     1      47.083   2.474   6.069  0.00  0.00    +0.000 A 
ATOM     15  C   UNL     1      47.371   1.159   6.420  0.00  0.00    +0.000 A 
ATOM     16  C   UNL     1      46.844   0.659   7.604  0.00  0.00    +0.000 A 
ATOM     17  N   UNL     1      46.064   1.374   8.448  0.00  0.00    +0.000 NA
ENDBRANCH   9  12
ENDBRANCH   7  10
ENDBRANCH   1   7
BRANCH   4  18
ATOM     18  C   UNL     1      47.481   8.230  13.703  0.00  0.00    +0.000 C 
BRANCH  18  19
ATOM     19  N   UNL     1      48.877   8.080  13.385  0.00  0.00    +0.000 N 
ATOM     20  C   UNL     1      49.441   8.693  12.297  0.00  0.00    +0.000 C 
ATOM     21  O   UNL     1      48.801   9.443  11.565  0.00  0.00    +0.000 OA
ATOM     22  H   UNL     1      49.357   7.295  13.816  0.00  0.00    +0.000 HD
BRANCH  20  23
ATOM     23  C   UNL     1      50.877   8.458  12.092  0.00  0.00    +0.000 A 
ATOM     24  C   UNL     1      51.328   7.941  10.886  0.00  0.00    +0.000 A 
ATOM     25  S   UNL     1      53.026   7.812  10.790  0.00  0.00    +0.000 S 
ATOM     26  C   UNL     1      53.215   8.390  12.381  0.00  0.00    +0.000 A 
ATOM     27  N   UNL     1      54.450   8.516  12.939  0.00  0.00    +0.000 NA
ATOM     28  C   UNL     1      54.443   8.939  14.159  0.00  0.00    +0.000 A 
ATOM     29  N   UNL     1      53.314   9.243  14.873  0.00  0.00    +0.000 N 
ATOM     30  C   UNL     1      52.050   9.148  14.345  0.00  0.00    +0.000 A 
ATOM     31  O   UNL     1      51.061   9.452  15.006  0.00  0.00    +0.000 OA
ATOM     32  C   UNL     1      52.000   8.683  12.972  0.00  0.00    +0.000 A 
ATOM     33  H   UNL     1      53.375   9.568  15.826  0.00  0.00    +0.000 HD
ENDBRANCH  20  23
ENDBRANCH  18  19
ENDBRANCH   4  18
TORSDOF 6
ENDMDL
MODEL 6
REMARK VINA RESULT:    -6.878      3.496      4.684
REMARK INTER + INTRA:         -10.348
REMARK INTER:                  -9.395
REMARK INTRA:                  -0.953
REMARK UNBOUND:                -1.057
REMARK  Name = 
REMARK  6 active torsions:
REMARK  status: ('A' for Active; 'I' for Inactive)
REMARK    1  A    between atoms: C_2  and  C_25
REMARK    2  A    between atoms: N_3  and  C_4
REMARK    3  A    between atoms: C_4  and  C_5
REMARK    4  A    between atoms: C_8  and  C_9
REMARK    5  A    between atoms: C_9  and  N_10
REMARK    6  A    between atoms: C_11  and  C_13
REMARK                            x       y       z     vdW  Elec       q    Type
REMARK                         _______ _______ _______ _____ _____    ______ ____
ROOT
ATOM      1  C   UNL     1      47.208   6.113  13.938  0.00  0.00    +0.000 A 
ATOM      2  C   UNL     1      46.695   4.872  14.339  0.00  0.00    +0.000 A 
ATOM      3  C   UNL     1      47.158   4.252  15.504  0.00  0.00    +0.000 A 
ATOM      4  C   UNL     1      48.129   4.869  16.302  0.00  0.00    +0.000 A 
ATOM      5  C   UNL     1      48.656   6.101  15.890  0.00  0.00    +0.000 A 
ATOM      6  C   UNL     1      48.194   6.720  14.726  0.00  0.00    +0.000 A 
ENDROOT
BRANCH   1   7
ATOM      7  C   UNL     1      46.705   6.786  12.691  0.00  0.00    +0.000 C 
BRANCH   7  10
ATOM      8  O   UNL     1      44.314   6.346  11.312  0.00  0.00    +0.000 OA
ATOM      9  C   UNL     1      45.314   5.720  10.975  0.00  0.00    +0.000 C 
ATOM     10  N   UNL     1      46.537   5.861  11.600  0.00  0.00    +0.000 N 
ATOM     11  H   UNL     1      47.313   5.308  11.250  0.00  0.00    +0.000 HD
BRANCH   9  12
ATOM     12  C   UNL     1      45.276   4.748   9.836  0.00  0.00    +0.000 A 
ATOM     13  C   UNL     1      44.530   3.581   9.967  0.00  0.00    +0.000 A 
ATOM     14  C   UNL     1      44.498   2.694   8.895  0.00  0.00    +0.000 A 
ATOM     15  C   UNL     1      45.211   2.999   7.740  0.00  0.00    +0.000 A 
ATOM     16  C   UNL     1      45.929   4.186   7.699  0.00  0.00    +0.000 A 
ATOM     17  N   UNL     1      45.981   5.076   8.718  0.00  0.00    +0.000 NA
ENDBRANCH   9  12
ENDBRANCH   7  10
ENDBRANCH   1   7
BRANCH   4  18
ATOM     18  C   UNL     1      48.637   4.209  17.557  0.00  0.00    +0.000 C 
BRANCH  18  19
ATOM     19  N   UNL     1      50.030   3.866  17.425  0.00  0.00    +0.000 N 
ATOM     20  C   UNL     1      50.935   4.126  18.421  0.00  0.00    +0.000 C 
ATOM     21  O   UNL     1      50.602   4.617  19.496  0.00  0.00    +0.000 OA
ATOM     22  H   UNL     1      50.365   3.692  16.483  0.00  0.00    +0.000 HD
BRANCH  20  23
ATOM     23  C   UNL     1      52.323   3.721  18.156  0.00  0.00    +0.000 A 
ATOM     24  C   UNL     1      53.347   4.653  18.257  0.00  0.00    +0.000 A 
ATOM     25  S   UNL     1      54.899   3.992  18.001  0.00  0.00    +0.000 S 
ATOM     26  C   UNL     1      54.251   2.449  17.688  0.00  0.00    +0.000 A 
ATOM     27  N   UNL     1      55.059   1.398  17.380  0.00  0.00    +0.000 NA
ATOM     28  C   UNL     1      54.433   0.296  17.140  0.00  0.00    +0.000 A 
ATOM     29  N   UNL     1      53.071   0.148  17.177  0.00  0.00    +0.000 N 
ATOM     30  C   UNL     1      52.219   1.174  17.500  0.00  0.00    +0.000 A 
ATOM     31  O   UNL     1      51.005   1.000  17.547  0.00  0.00    +0.000 OA
ATOM     32  C   UNL     1      52.872   2.438  17.786  0.00  0.00    +0.000 A 
ATOM     33  H   UNL     1      52.641  -0.743  16.976  0.00  0.00    +0.000 HD
ENDBRANCH  20  23
ENDBRANCH  18  19
ENDBRANCH   4  18
TORSDOF 6
ENDMDL
MODEL 7
REMARK VINA RESULT:    -6.822      3.884      8.672
REMARK INTER + INTRA:         -10.272
REMARK INTER:                  -9.270
REMARK INTRA:                  -1.002
REMARK UNBOUND:                -1.057
REMARK  Name = 
REMARK  6 active torsions:
REMARK  status: ('A' for Active; 'I' for Inactive)
REMARK    1  A    between atoms: C_2  and  C_25
REMARK    2  A    between atoms: N_3  and  C_4
REMARK    3  A    between atoms: C_4  and  C_5
REMARK    4  A    between atoms: C_8  and  C_9
REMARK    5  A    between atoms: C_9  and  N_10
REMARK    6  A    between atoms: C_11  and  C_13
REMARK                            x       y       z     vdW  Elec       q    Type
REMARK                         _______ _______ _______ _____ _____    ______ ____
ROOT
ATOM      1  C   UNL     1      48.891   4.742  17.270  0.00  0.00    +0.000 A 
ATOM      2  C   UNL     1      49.549   5.925  16.904  0.00  0.00    +0.000 A 
ATOM      3  C   UNL     1      49.180   6.616  15.745  0.00  0.00    +0.000 A 
ATOM      4  C   UNL     1      48.134   6.149  14.940  0.00  0.00    +0.000 A 
ATOM      5  C   UNL     1      47.491   4.955  15.296  0.00  0.00    +0.000 A 
ATOM      6  C   UNL     1      47.859   4.265  16.454  0.00  0.00    +0.000 A 
ENDROOT
BRANCH   1   7
ATOM      7  C   UNL     1      49.280   4.003  18.521  0.00  0.00    +0.000 C 
BRANCH   7  10
ATOM      8  O   UNL     1      50.117   1.760  17.079  0.00  0.00    +0.000 OA
ATOM      9  C   UNL     1      50.949   2.396  17.719  0.00  0.00    +0.000 C 
ATOM     10  N   UNL     1      50.632   3.511  18.468  0.00  0.00    +0.000 N 
ATOM     11  H   UNL     1      51.387   3.981  18.959  0.00  0.00    +0.000 HD
BRANCH   9  12
ATOM     12  C   UNL     1      52.394   2.002  17.721  0.00  0.00    +0.000 A 
ATOM     13  C   UNL     1      53.353   2.944  18.079  0.00  0.00    +0.000 A 
ATOM     14  C   UNL     1      54.690   2.557  18.083  0.00  0.00    +0.000 A 
ATOM     15  C   UNL     1      55.020   1.254  17.729  0.00  0.00    +0.000 A 
ATOM     16  C   UNL     1      53.997   0.381  17.384  0.00  0.00    +0.000 A 
ATOM     17  N   UNL     1      52.685   0.718  17.371  0.00  0.00    +0.000 NA
ENDBRANCH   9  12
ENDBRANCH   7  10
ENDBRANCH   1   7
BRANCH   4  18
ATOM     18  C   UNL     1      47.731   6.883  13.687  0.00  0.00    +0.000 C 
BRANCH  18  19
ATOM     19  N   UNL     1      47.075   5.994  12.763  0.00  0.00    +0.000 N 
ATOM     20  C   UNL     1      46.157   6.448  11.852  0.00  0.00    +0.000 C 
ATOM     21  O   UNL     1      45.882   7.639  11.739  0.00  0.00    +0.000 OA
ATOM     22  H   UNL     1      47.099   5.005  12.994  0.00  0.00    +0.000 HD
BRANCH  20  23
ATOM     23  C   UNL     1      45.567   5.434  10.967  0.00  0.00    +0.000 A 
ATOM     24  C   UNL     1      45.706   5.551   9.591  0.00  0.00    +0.000 A 
ATOM     25  S   UNL     1      45.035   4.245   8.723  0.00  0.00    +0.000 S 
ATOM     26  C   UNL     1      44.483   3.505  10.154  0.00  0.00    +0.000 A 
ATOM     27  N   UNL     1      43.799   2.329  10.117  0.00  0.00    +0.000 NA
ATOM     28  C   UNL     1      43.417   1.898  11.272  0.00  0.00    +0.000 A 
ATOM     29  N   UNL     1      43.655   2.536  12.461  0.00  0.00    +0.000 N 
ATOM     30  C   UNL     1      44.355   3.713  12.548  0.00  0.00    +0.000 A 
ATOM     31  O   UNL     1      44.570   4.246  13.633  0.00  0.00    +0.000 OA
ATOM     32  C   UNL     1      44.813   4.241  11.277  0.00  0.00    +0.000 A 
ATOM     33  H   UNL     1      43.328   2.146  13.333  0.00  0.00    +0.000 HD
ENDBRANCH  20  23
ENDBRANCH  18  19
ENDBRANCH   4  18
TORSDOF 6
ENDMDL
MODEL 8
REMARK VINA RESULT:    -6.675      3.324      5.124
REMARK INTER + INTRA:         -10.074
REMARK INTER:                  -9.295
REMARK INTRA:                  -0.779
REMARK UNBOUND:                -1.057
REMARK  Name = 
REMARK  6 active torsions:
REMARK  status: ('A' for Active; 'I' for Inactive)
REMARK    1  A    between atoms: C_2  and  C_25
REMARK    2  A    between atoms: N_3  and  C_4
REMARK    3  A    between atoms: C_4  and  C_5
REMARK    4  A    between atoms: C_8  and  C_9
REMARK    5  A    between atoms: C_9  and  N_10
REMARK    6  A    between atoms: C_11  and  C_13
REMARK                            x       y       z     vdW  Elec       q    Type
REMARK                         _______ _______ _______ _____ _____    ______ ____
ROOT
ATOM      1  C   UNL     1      47.441   5.703  14.485  0.00  0.00    +0.000 A 
ATOM      2  C   UNL     1      46.879   4.438  14.711  0.00  0.00    +0.000 A 
ATOM      3  C   UNL     1      47.172   3.727  15.879  0.00  0.00    +0.000 A 
ATOM      4  C   UNL     1      48.016   4.274  16.854  0.00  0.00    +0.000 A 
ATOM      5  C   UNL     1      48.593   5.530  16.618  0.00  0.00    +0.000 A 
ATOM      6  C   UNL     1      48.300   6.240  15.451  0.00  0.00    +0.000 A 
ENDROOT
BRANCH   1   7
ATOM      7  C   UNL     1      47.120   6.474  13.234  0.00  0.00    +0.000 C 
BRANCH   7  10
ATOM      8  O   UNL     1      44.538   6.134  12.218  0.00  0.00    +0.000 OA
ATOM      9  C   UNL     1      45.463   5.517  11.700  0.00  0.00    +0.000 C 
ATOM     10  N   UNL     1      46.770   5.611  12.136  0.00  0.00    +0.000 N 
ATOM     11  H   UNL     1      47.473   5.071  11.641  0.00  0.00    +0.000 HD
BRANCH   9  12
ATOM     12  C   UNL     1      45.233   4.609  10.531  0.00  0.00    +0.000 A 
ATOM     13  C   UNL     1      44.669   3.356  10.748  0.00  0.00    +0.000 A 
ATOM     14  C   UNL     1      44.454   2.529   9.649  0.00  0.00    +0.000 A 
ATOM     15  C   UNL     1      44.810   2.978   8.382  0.00  0.00    +0.000 A 
ATOM     16  C   UNL     1      45.368   4.244   8.260  0.00  0.00    +0.000 A 
ATOM     17  N   UNL     1      45.589   5.079   9.303  0.00  0.00    +0.000 NA
ENDBRANCH   9  12
ENDBRANCH   7  10
ENDBRANCH   1   7
BRANCH   4  18
ATOM     18  C   UNL     1      48.341   3.515  18.114  0.00  0.00    +0.000 C 
BRANCH  18  19
ATOM     19  N   UNL     1      49.757   3.270  18.212  0.00  0.00    +0.000 N 
ATOM     20  C   UNL     1      50.392   2.369  17.398  0.00  0.00    +0.000 C 
ATOM     21  O   UNL     1      49.802   1.760  16.510  0.00  0.00    +0.000 OA
ATOM     22  H   UNL     1      50.208   3.566  19.072  0.00  0.00    +0.000 HD
BRANCH  20  23
ATOM     23  C   UNL     1      51.839   2.220  17.602  0.00  0.00    +0.000 A 
ATOM     24  C   UNL     1      52.394   0.953  17.728  0.00  0.00    +0.000 A 
ATOM     25  S   UNL     1      54.093   0.963  17.873  0.00  0.00    +0.000 S 
ATOM     26  C   UNL     1      54.143   2.664  17.831  0.00  0.00    +0.000 A 
ATOM     27  N   UNL     1      55.324   3.334  17.924  0.00  0.00    +0.000 NA
ATOM     28  C   UNL     1      55.210   4.620  17.906  0.00  0.00    +0.000 A 
ATOM     29  N   UNL     1      54.024   5.297  17.806  0.00  0.00    +0.000 N 
ATOM     30  C   UNL     1      52.812   4.664  17.691  0.00  0.00    +0.000 A 
ATOM     31  O   UNL     1      51.769   5.303  17.579  0.00  0.00    +0.000 OA
ATOM     32  C   UNL     1      52.881   3.215  17.700  0.00  0.00    +0.000 A 
ATOM     33  H   UNL     1      54.002   6.306  17.799  0.00  0.00    +0.000 HD
ENDBRANCH  20  23
ENDBRANCH  18  19
ENDBRANCH   4  18
TORSDOF 6
ENDMDL
MODEL 9
REMARK VINA RESULT:    -6.571      6.030      8.445
REMARK INTER + INTRA:          -9.933
REMARK INTER:                  -8.932
REMARK INTRA:                  -1.001
REMARK UNBOUND:                -1.057
REMARK  Name = 
REMARK  6 active torsions:
REMARK  status: ('A' for Active; 'I' for Inactive)
REMARK    1  A    between atoms: C_2  and  C_25
REMARK    2  A    between atoms: N_3  and  C_4
REMARK    3  A    between atoms: C_4  and  C_5
REMARK    4  A    between atoms: C_8  and  C_9
REMARK    5  A    between atoms: C_9  and  N_10
REMARK    6  A    between atoms: C_11  and  C_13
REMARK                            x       y       z     vdW  Elec       q    Type
REMARK                         _______ _______ _______ _____ _____    ______ ____
ROOT
ATOM      1  C   UNL     1      48.837   3.388  17.130  0.00  0.00    +0.000 A 
ATOM      2  C   UNL     1      49.399   2.133  16.857  0.00  0.00    +0.000 A 
ATOM      3  C   UNL     1      50.738   1.870  17.162  0.00  0.00    +0.000 A 
ATOM      4  C   UNL     1      51.537   2.850  17.765  0.00  0.00    +0.000 A 
ATOM      5  C   UNL     1      50.980   4.111  18.020  0.00  0.00    +0.000 A 
ATOM      6  C   UNL     1      49.642   4.374  17.715  0.00  0.00    +0.000 A 
ENDROOT
BRANCH   1   7
ATOM      7  C   UNL     1      47.394   3.670  16.812  0.00  0.00    +0.000 C 
BRANCH   7  10
ATOM      8  O   UNL     1      47.129   3.072  14.095  0.00  0.00    +0.000 OA
ATOM      9  C   UNL     1      47.114   4.248  14.445  0.00  0.00    +0.000 C 
ATOM     10  N   UNL     1      47.246   4.643  15.761  0.00  0.00    +0.000 N 
ATOM     11  H   UNL     1      47.213   5.638  15.961  0.00  0.00    +0.000 HD
BRANCH   9  12
ATOM     12  C   UNL     1      46.937   5.353  13.450  0.00  0.00    +0.000 A 
ATOM     13  C   UNL     1      45.671   5.604  12.934  0.00  0.00    +0.000 A 
ATOM     14  C   UNL     1      45.524   6.641  12.017  0.00  0.00    +0.000 A 
ATOM     15  C   UNL     1      46.641   7.382  11.647  0.00  0.00    +0.000 A 
ATOM     16  C   UNL     1      47.867   7.059  12.212  0.00  0.00    +0.000 A 
ATOM     17  N   UNL     1      48.050   6.062  13.109  0.00  0.00    +0.000 NA
ENDBRANCH   9  12
ENDBRANCH   7  10
ENDBRANCH   1   7
BRANCH   4  18
ATOM     18  C   UNL     1      52.982   2.579  18.095  0.00  0.00    +0.000 C 
BRANCH  18  19
ATOM     19  N   UNL     1      53.300   1.189  17.895  0.00  0.00    +0.000 N 
ATOM     20  C   UNL     1      54.211   0.535  18.682  0.00  0.00    +0.000 C 
ATOM     21  O   UNL     1      54.768   1.082  19.629  0.00  0.00    +0.000 OA
ATOM     22  H   UNL     1      53.047   0.793  16.994  0.00  0.00    +0.000 HD
BRANCH  20  23
ATOM     23  C   UNL     1      54.437  -0.883  18.370  0.00  0.00    +0.000 A 
ATOM     24  C   UNL     1      54.169  -1.853  19.326  0.00  0.00    +0.000 A 
ATOM     25  S   UNL     1      54.406  -3.447  18.768  0.00  0.00    +0.000 S 
ATOM     26  C   UNL     1      54.932  -2.895  17.245  0.00  0.00    +0.000 A 
ATOM     27  N   UNL     1      55.310  -3.769  16.274  0.00  0.00    +0.000 NA
ATOM     28  C   UNL     1      55.712  -3.212  15.181  0.00  0.00    +0.000 A 
ATOM     29  N   UNL     1      55.774  -1.859  14.972  0.00  0.00    +0.000 N 
ATOM     30  C   UNL     1      55.386  -0.941  15.916  0.00  0.00    +0.000 A 
ATOM     31  O   UNL     1      55.433   0.264  15.686  0.00  0.00    +0.000 OA
ATOM     32  C   UNL     1      54.919  -1.514  17.164  0.00  0.00    +0.000 A 
ATOM     33  H   UNL     1      56.100  -1.485  14.093  0.00  0.00    +0.000 HD
ENDBRANCH  20  23
ENDBRANCH  18  19
ENDBRANCH   4  18
TORSDOF 6
ENDMDL
