MODEL 1
REMARK VINA RESULT:    -8.482      0.000      0.000
REMARK INTER + INTRA:         -11.602
REMARK INTER:                 -10.962
REMARK INTRA:                  -0.641
REMARK UNBOUND:                -0.641
REMARK  Name = 
REMARK  6 active torsions:
REMARK  status: ('A' for Active; 'I' for Inactive)
REMARK    1  A    between atoms: C_1  and  C_2
REMARK    2  A    between atoms: N_7  and  C_8
REMARK    3  A    between atoms: C_8  and  C_9
REMARK    4  A    between atoms: C_12  and  C_13
REMARK    5  A    between atoms: C_13  and  N_14
REMARK    6  A    between atoms: C_15  and  C_17
REMARK                            x       y       z     vdW  Elec       q    Type
REMARK                         _______ _______ _______ _____ _____    ______ ____
ROOT
ATOM      1  C   UNL     1      44.941   5.121  11.189  0.00  0.00    +0.000 A 
ATOM      2  C   UNL     1      45.260   4.500  12.405  0.00  0.00    +0.000 A 
ATOM      3  C   UNL     1      46.260   5.023  13.235  0.00  0.00    +0.000 A 
ATOM      4  C   UNL     1      46.948   6.190  12.878  0.00  0.00    +0.000 A 
ATOM      5  C   UNL     1      46.635   6.807  11.660  0.00  0.00    +0.000 A 
ATOM      6  C   UNL     1      45.635   6.286  10.831  0.00  0.00    +0.000 A 
ENDROOT
BRANCH   1   7
ATOM      7  C   UNL     1      43.865   4.552  10.285  0.00  0.00    +0.000 C 
BRANCH   7  14
ATOM      8  C   UNL     1      46.809   0.024   7.590  0.00  0.00    +0.000 C 
ATOM      9  C   UNL     1      46.404   1.456   7.773  0.00  0.00    +0.000 A 
ATOM     10  C   UNL     1      46.849   2.433   6.912  0.00  0.00    +0.000 A 
ATOM     11  C   UNL     1      46.377   3.698   7.157  0.00  0.00    +0.000 A 
ATOM     12  N   UNL     1      45.515   3.996   8.149  0.00  0.00    +0.000 NA
ATOM     13  C   UNL     1      45.121   2.986   8.936  0.00  0.00    +0.000 A 
ATOM     14  N   UNL     1      44.183   3.192   9.926  0.00  0.00    +0.000 N 
ATOM     15  N   UNL     1      45.564   1.726   8.799  0.00  0.00    +0.000 NA
ATOM     16  H   UNL     1      44.282   2.506  10.661  0.00  0.00    +0.000 HD
ENDBRANCH   7  14
ENDBRANCH   1   7
BRANCH   4  17
ATOM     17  C   UNL     1      48.010   6.768  13.779  0.00  0.00    +0.000 C 
BRANCH  17  18
ATOM     18  N   UNL     1      47.874   6.311  15.138  0.00  0.00    +0.000 N 
ATOM     19  C   UNL     1      48.967   6.235  15.970  0.00  0.00    +0.000 C 
ATOM     20  O   UNL     1      50.080   6.612  15.611  0.00  0.00    +0.000 OA
ATOM     21  H   UNL     1      47.030   5.793  15.371  0.00  0.00    +0.000 HD
BRANCH  19  22
ATOM     22  C   UNL     1      48.735   5.726  17.327  0.00  0.00    +0.000 A 
ATOM     23  C   UNL     1      48.927   4.378  17.597  0.00  0.00    +0.000 A 
ATOM     24  S   UNL     1      48.656   3.958  19.227  0.00  0.00    +0.000 S 
ATOM     25  C   UNL     1      48.223   5.555  19.622  0.00  0.00    +0.000 A 
ATOM     26  N   UNL     1      47.849   5.883  20.888  0.00  0.00    +0.000 NA
ATOM     27  C   UNL     1      47.516   7.122  21.040  0.00  0.00    +0.000 A 
ATOM     28  N   UNL     1      47.528   8.062  20.041  0.00  0.00    +0.000 N 
ATOM     29  C   UNL     1      47.929   7.783  18.756  0.00  0.00    +0.000 A 
ATOM     30  O   UNL     1      47.971   8.658  17.898  0.00  0.00    +0.000 OA
ATOM     31  C   UNL     1      48.302   6.400  18.530  0.00  0.00    +0.000 A 
ATOM     32  H   UNL     1      47.262   9.017  20.227  0.00  0.00    +0.000 HD
ENDBRANCH  19  22
ENDBRANCH  17  18
ENDBRANCH   4  17
TORSDOF 5
ENDMDL
MODEL 2
REMARK VINA RESULT:    -8.445      1.303      2.066
REMARK INTER + INTRA:         -11.555
REMARK INTER:                 -11.036
REMARK INTRA:                  -0.519
REMARK UNBOUND:                -0.641
REMARK  Name = 
REMARK  6 active torsions:
REMARK  status: ('A' for Active; 'I' for Inactive)
REMARK    1  A    between atoms: C_1  and  C_2
REMARK    2  A    between atoms: N_7  and  C_8
REMARK    3  A    between atoms: C_8  and  C_9
REMARK    4  A    between atoms: C_12  and  C_13
REMARK    5  A    between atoms: C_13  and  N_14
REMARK    6  A    between atoms: C_15  and  C_17
REMARK                            x       y       z     vdW  Elec       q    Type
REMARK                         _______ _______ _______ _____ _____    ______ ____
ROOT
ATOM      1  C   UNL     1      45.236   5.125  11.479  0.00  0.00    +0.000 A 
ATOM      2  C   UNL     1      45.976   6.225  11.021  0.00  0.00    +0.000 A 
ATOM      3  C   UNL     1      47.044   6.732  11.773  0.00  0.00    +0.000 A 
ATOM      4  C   UNL     1      47.410   6.137  12.987  0.00  0.00    +0.000 A 
ATOM      5  C   UNL     1      46.666   5.044  13.450  0.00  0.00    +0.000 A 
ATOM      6  C   UNL     1      45.599   4.536  12.699  0.00  0.00    +0.000 A 
ENDROOT
BRANCH   1   7
ATOM      7  C   UNL     1      44.073   4.582  10.672  0.00  0.00    +0.000 C 
BRANCH   7  14
ATOM      8  C   UNL     1      46.780   0.148   7.597  0.00  0.00    +0.000 C 
ATOM      9  C   UNL     1      46.401   1.574   7.865  0.00  0.00    +0.000 A 
ATOM     10  C   UNL     1      46.792   2.582   7.013  0.00  0.00    +0.000 A 
ATOM     11  C   UNL     1      46.349   3.840   7.342  0.00  0.00    +0.000 A 
ATOM     12  N   UNL     1      45.563   4.102   8.403  0.00  0.00    +0.000 NA
ATOM     13  C   UNL     1      45.217   3.063   9.176  0.00  0.00    +0.000 A 
ATOM     14  N   UNL     1      44.353   3.235  10.238  0.00  0.00    +0.000 N 
ATOM     15  N   UNL     1      45.638   1.807   8.959  0.00  0.00    +0.000 NA
ATOM     16  H   UNL     1      44.498   2.520  10.936  0.00  0.00    +0.000 HD
ENDBRANCH   7  14
ENDBRANCH   1   7
BRANCH   4  17
ATOM     17  C   UNL     1      48.572   6.667  13.788  0.00  0.00    +0.000 C 
BRANCH  17  18
ATOM     18  N   UNL     1      48.230   6.867  15.171  0.00  0.00    +0.000 N 
ATOM     19  C   UNL     1      49.139   6.602  16.170  0.00  0.00    +0.000 C 
ATOM     20  O   UNL     1      50.289   6.249  15.919  0.00  0.00    +0.000 OA
ATOM     21  H   UNL     1      47.240   6.933  15.400  0.00  0.00    +0.000 HD
BRANCH  19  22
ATOM     22  C   UNL     1      48.687   6.804  17.551  0.00  0.00    +0.000 A 
ATOM     23  C   UNL     1      48.266   8.064  17.958  0.00  0.00    +0.000 A 
ATOM     24  S   UNL     1      47.735   8.120  19.577  0.00  0.00    +0.000 S 
ATOM     25  C   UNL     1      48.095   6.474  19.809  0.00  0.00    +0.000 A 
ATOM     26  N   UNL     1      47.890   5.878  21.015  0.00  0.00    +0.000 NA
ATOM     27  C   UNL     1      48.237   4.635  21.059  0.00  0.00    +0.000 A 
ATOM     28  N   UNL     1      48.764   3.933  20.006  0.00  0.00    +0.000 N 
ATOM     29  C   UNL     1      48.958   4.484  18.762  0.00  0.00    +0.000 A 
ATOM     30  O   UNL     1      49.390   3.816  17.829  0.00  0.00    +0.000 OA
ATOM     31  C   UNL     1      48.596   5.885  18.662  0.00  0.00    +0.000 A 
ATOM     32  H   UNL     1      49.008   2.959  20.104  0.00  0.00    +0.000 HD
ENDBRANCH  19  22
ENDBRANCH  17  18
ENDBRANCH   4  17
TORSDOF 5
ENDMDL
MODEL 3
REMARK VINA RESULT:    -7.953      1.893      2.644
REMARK INTER + INTRA:         -10.919
REMARK INTER:                  -9.922
REMARK INTRA:                  -0.997
REMARK UNBOUND:                -0.641
REMARK  Name = 
REMARK  6 active torsions:
REMARK  status: ('A' for Active; 'I' for Inactive)
REMARK    1  A    between atoms: C_1  and  C_2
REMARK    2  A    between atoms: N_7  and  C_8
REMARK    3  A    between atoms: C_8  and  C_9
REMARK    4  A    between atoms: C_12  and  C_13
REMARK    5  A    between atoms: C_13  and  N_14
REMARK    6  A    between atoms: C_15  and  C_17
REMARK                            x       y       z     vdW  Elec       q    Type
REMARK                         _______ _______ _______ _____ _____    ______ ____
ROOT
ATOM      1  C   UNL     1      45.488   6.524  11.421  0.00  0.00    +0.000 A 
ATOM      2  C   UNL     1      46.781   6.169  11.832  0.00  0.00    +0.000 A 
ATOM      3  C   UNL     1      47.492   6.972  12.734  0.00  0.00    +0.000 A 
ATOM      4  C   UNL     1      46.916   8.136  13.262  0.00  0.00    +0.000 A 
ATOM      5  C   UNL     1      45.629   8.496  12.846  0.00  0.00    +0.000 A 
ATOM      6  C   UNL     1      44.918   7.693  11.946  0.00  0.00    +0.000 A 
ENDROOT
BRANCH   1   7
ATOM      7  C   UNL     1      44.722   5.661  10.438  0.00  0.00    +0.000 C 
BRANCH   7  14
ATOM      8  C   UNL     1      47.014   2.811   5.636  0.00  0.00    +0.000 C 
ATOM      9  C   UNL     1      46.367   2.883   6.987  0.00  0.00    +0.000 A 
ATOM     10  C   UNL     1      46.074   1.737   7.692  0.00  0.00    +0.000 A 
ATOM     11  C   UNL     1      45.523   1.931   8.934  0.00  0.00    +0.000 A 
ATOM     12  N   UNL     1      45.293   3.145   9.469  0.00  0.00    +0.000 NA
ATOM     13  C   UNL     1      45.617   4.211   8.723  0.00  0.00    +0.000 A 
ATOM     14  N   UNL     1      45.484   5.487   9.227  0.00  0.00    +0.000 N 
ATOM     15  N   UNL     1      46.120   4.118   7.481  0.00  0.00    +0.000 NA
ATOM     16  H   UNL     1      45.368   6.156   8.479  0.00  0.00    +0.000 HD
ENDBRANCH   7  14
ENDBRANCH   1   7
BRANCH   4  17
ATOM     17  C   UNL     1      47.670   8.991  14.249  0.00  0.00    +0.000 C 
BRANCH  17  18
ATOM     18  N   UNL     1      47.954   8.285  15.470  0.00  0.00    +0.000 N 
ATOM     19  C   UNL     1      49.240   7.912  15.789  0.00  0.00    +0.000 C 
ATOM     20  O   UNL     1      50.196   8.221  15.081  0.00  0.00    +0.000 OA
ATOM     21  H   UNL     1      47.171   7.833  15.938  0.00  0.00    +0.000 HD
BRANCH  19  22
ATOM     22  C   UNL     1      49.426   7.166  17.039  0.00  0.00    +0.000 A 
ATOM     23  C   UNL     1      50.112   7.755  18.093  0.00  0.00    +0.000 A 
ATOM     24  S   UNL     1      50.204   6.774  19.485  0.00  0.00    +0.000 S 
ATOM     25  C   UNL     1      49.372   5.507  18.713  0.00  0.00    +0.000 A 
ATOM     26  N   UNL     1      49.130   4.335  19.360  0.00  0.00    +0.000 NA
ATOM     27  C   UNL     1      48.519   3.450  18.645  0.00  0.00    +0.000 A 
ATOM     28  N   UNL     1      48.125   3.632  17.345  0.00  0.00    +0.000 N 
ATOM     29  C   UNL     1      48.319   4.810  16.663  0.00  0.00    +0.000 A 
ATOM     30  O   UNL     1      47.912   4.956  15.515  0.00  0.00    +0.000 OA
ATOM     31  C   UNL     1      49.013   5.835  17.418  0.00  0.00    +0.000 A 
ATOM     32  H   UNL     1      47.643   2.901  16.843  0.00  0.00    +0.000 HD
ENDBRANCH  19  22
ENDBRANCH  17  18
ENDBRANCH   4  17
TORSDOF 5
ENDMDL
MODEL 4
REMARK VINA RESULT:    -7.913      5.085      9.578
REMARK INTER + INTRA:         -10.867
REMARK INTER:                 -10.168
REMARK INTRA:                  -0.699
REMARK UNBOUND:                -0.641
REMARK  Name = 
REMARK  6 active torsions:
REMARK  status: ('A' for Active; 'I' for Inactive)
REMARK    1  A    between atoms: C_1  and  C_2
REMARK    2  A    between atoms: N_7  and  C_8
REMARK    3  A    between atoms: C_8  and  C_9
REMARK    4  A    between atoms: C_12  and  C_13
REMARK    5  A    between atoms: C_13  and  N_14
REMARK    6  A    between atoms: C_15  and  C_17
REMARK                            x       y       z     vdW  Elec       q    Type
REMARK                         _______ _______ _______ _____ _____    ______ ____
ROOT
ATOM      1  C   UNL     1      51.430   3.196  17.717  0.00  0.00    +0.000 A 
ATOM      2  C   UNL     1      50.711   4.372  17.973  0.00  0.00    +0.000 A 
ATOM      3  C   UNL     1      49.336   4.441  17.715  0.00  0.00    +0.000 A 
ATOM      4  C   UNL     1      48.645   3.328  17.217  0.00  0.00    +0.000 A 
ATOM      5  C   UNL     1      49.364   2.155  16.953  0.00  0.00    +0.000 A 
ATOM      6  C   UNL     1      50.738   2.086  17.212  0.00  0.00    +0.000 A 
ENDROOT
BRANCH   1   7
ATOM      7  C   UNL     1      52.920   3.123  17.987  0.00  0.00    +0.000 C 
BRANCH   7  14
ATOM      8  C   UNL     1      55.414  -2.087  19.741  0.00  0.00    +0.000 C 
ATOM      9  C   UNL     1      54.990  -1.060  18.734  0.00  0.00    +0.000 A 
ATOM     10  C   UNL     1      55.188  -1.267  17.387  0.00  0.00    +0.000 A 
ATOM     11  C   UNL     1      54.720  -0.275  16.561  0.00  0.00    +0.000 A 
ATOM     12  N   UNL     1      54.085   0.828  17.002  0.00  0.00    +0.000 NA
ATOM     13  C   UNL     1      53.923   0.948  18.327  0.00  0.00    +0.000 A 
ATOM     14  N   UNL     1      53.217   2.009  18.854  0.00  0.00    +0.000 N 
ATOM     15  N   UNL     1      54.385   0.052  19.213  0.00  0.00    +0.000 NA
ATOM     16  H   UNL     1      53.507   2.196  19.803  0.00  0.00    +0.000 HD
ENDBRANCH   7  14
ENDBRANCH   1   7
BRANCH   4  17
ATOM     17  C   UNL     1      47.161   3.392  16.958  0.00  0.00    +0.000 C 
BRANCH  17  18
ATOM     18  N   UNL     1      46.826   4.388  15.974  0.00  0.00    +0.000 N 
ATOM     19  C   UNL     1      46.951   4.123  14.630  0.00  0.00    +0.000 C 
ATOM     20  O   UNL     1      47.288   3.016  14.218  0.00  0.00    +0.000 OA
ATOM     21  H   UNL     1      46.769   5.353  16.291  0.00  0.00    +0.000 HD
BRANCH  19  22
ATOM     22  C   UNL     1      46.617   5.212  13.704  0.00  0.00    +0.000 A 
ATOM     23  C   UNL     1      47.544   6.217  13.464  0.00  0.00    +0.000 A 
ATOM     24  S   UNL     1      47.018   7.381  12.334  0.00  0.00    +0.000 S 
ATOM     25  C   UNL     1      45.511   6.611  12.162  0.00  0.00    +0.000 A 
ATOM     26  N   UNL     1      44.558   7.121  11.337  0.00  0.00    +0.000 NA
ATOM     27  C   UNL     1      43.451   6.454  11.327  0.00  0.00    +0.000 A 
ATOM     28  N   UNL     1      43.215   5.322  12.063  0.00  0.00    +0.000 N 
ATOM     29  C   UNL     1      44.160   4.753  12.884  0.00  0.00    +0.000 A 
ATOM     30  O   UNL     1      43.931   3.714  13.494  0.00  0.00    +0.000 OA
ATOM     31  C   UNL     1      45.418   5.471  12.941  0.00  0.00    +0.000 A 
ATOM     32  H   UNL     1      42.330   4.843  12.005  0.00  0.00    +0.000 HD
ENDBRANCH  19  22
ENDBRANCH  17  18
ENDBRANCH   4  17
TORSDOF 5
ENDMDL
MODEL 5
REMARK VINA RESULT:    -7.899      2.293      2.648
REMARK INTER + INTRA:         -10.849
REMARK INTER:                 -10.121
REMARK INTRA:                  -0.728
REMARK UNBOUND:                -0.641
REMARK  Name = 
REMARK  6 active torsions:
REMARK  status: ('A' for Active; 'I' for Inactive)
REMARK    1  A    between atoms: C_1  and  C_2
REMARK    2  A    between atoms: N_7  and  C_8
REMARK    3  A    between atoms: C_8  and  C_9
REMARK    4  A    between atoms: C_12  and  C_13
REMARK    5  A    between atoms: C_13  and  N_14
REMARK    6  A    between atoms: C_15  and  C_17
REMARK                            x       y       z     vdW  Elec       q    Type
REMARK                         _______ _______ _______ _____ _____    ______ ____
ROOT
ATOM      1  C   UNL     1      44.361   4.633  11.797  0.00  0.00    +0.000 A 
ATOM      2  C   UNL     1      45.397   4.201  12.637  0.00  0.00    +0.000 A 
ATOM      3  C   UNL     1      46.329   5.113  13.151  0.00  0.00    +0.000 A 
ATOM      4  C   UNL     1      46.231   6.479  12.855  0.00  0.00    +0.000 A 
ATOM      5  C   UNL     1      45.201   6.910  12.009  0.00  0.00    +0.000 A 
ATOM      6  C   UNL     1      44.269   6.000  11.497  0.00  0.00    +0.000 A 
ENDROOT
BRANCH   1   7
ATOM      7  C   UNL     1      43.357   3.646  11.232  0.00  0.00    +0.000 C 
BRANCH   7  14
ATOM      8  C   UNL     1      47.029   0.617   7.521  0.00  0.00    +0.000 C 
ATOM      9  C   UNL     1      46.204   1.795   7.945  0.00  0.00    +0.000 A 
ATOM     10  C   UNL     1      46.089   2.904   7.138  0.00  0.00    +0.000 A 
ATOM     11  C   UNL     1      45.273   3.901   7.615  0.00  0.00    +0.000 A 
ATOM     12  N   UNL     1      44.597   3.822   8.777  0.00  0.00    +0.000 NA
ATOM     13  C   UNL     1      44.755   2.703   9.499  0.00  0.00    +0.000 A 
ATOM     14  N   UNL     1      44.040   2.511  10.662  0.00  0.00    +0.000 N 
ATOM     15  N   UNL     1      45.565   1.696   9.134  0.00  0.00    +0.000 NA
ATOM     16  H   UNL     1      44.525   1.875  11.279  0.00  0.00    +0.000 HD
ENDBRANCH   7  14
ENDBRANCH   1   7
BRANCH   4  17
ATOM     17  C   UNL     1      47.219   7.466  13.423  0.00  0.00    +0.000 C 
BRANCH  17  18
ATOM     18  N   UNL     1      48.229   6.822  14.221  0.00  0.00    +0.000 N 
ATOM     19  C   UNL     1      48.804   7.469  15.291  0.00  0.00    +0.000 C 
ATOM     20  O   UNL     1      48.434   8.587  15.644  0.00  0.00    +0.000 OA
ATOM     21  H   UNL     1      48.696   6.014  13.816  0.00  0.00    +0.000 HD
BRANCH  19  22
ATOM     22  C   UNL     1      49.848   6.744  16.024  0.00  0.00    +0.000 A 
ATOM     23  C   UNL     1      51.133   7.267  16.083  0.00  0.00    +0.000 A 
ATOM     24  S   UNL     1      52.214   6.326  17.007  0.00  0.00    +0.000 S 
ATOM     25  C   UNL     1      51.017   5.159  17.319  0.00  0.00    +0.000 A 
ATOM     26  N   UNL     1      51.299   4.051  18.056  0.00  0.00    +0.000 NA
ATOM     27  C   UNL     1      50.307   3.234  18.187  0.00  0.00    +0.000 A 
ATOM     28  N   UNL     1      49.059   3.428  17.653  0.00  0.00    +0.000 N 
ATOM     29  C   UNL     1      48.721   4.547  16.931  0.00  0.00    +0.000 A 
ATOM     30  O   UNL     1      47.582   4.711  16.506  0.00  0.00    +0.000 OA
ATOM     31  C   UNL     1      49.804   5.492  16.743  0.00  0.00    +0.000 A 
ATOM     32  H   UNL     1      48.324   2.753  17.800  0.00  0.00    +0.000 HD
ENDBRANCH  19  22
ENDBRANCH  17  18
ENDBRANCH   4  17
TORSDOF 5
ENDMDL
MODEL 6
REMARK VINA RESULT:    -7.667      5.129      9.195
REMARK INTER + INTRA:         -10.549
REMARK INTER:                  -9.553
REMARK INTRA:                  -0.996
REMARK UNBOUND:                -0.641
REMARK  Name = 
REMARK  6 active torsions:
REMARK  status: ('A' for Active; 'I' for Inactive)
REMARK    1  A    between atoms: C_1  and  C_2
REMARK    2  A    between atoms: N_7  and  C_8
REMARK    3  A    between atoms: C_8  and  C_9
REMARK    4  A    between atoms: C_12  and  C_13
REMARK    5  A    between atoms: C_13  and  N_14
REMARK    6  A    between atoms: C_15  and  C_17
REMARK                            x       y       z     vdW  Elec       q    Type
REMARK                         _______ _______ _______ _____ _____    ______ ____
ROOT
ATOM      1  C   UNL     1      51.435   2.775  17.643  0.00  0.00    +0.000 A 
ATOM      2  C   UNL     1      50.937   4.051  17.941  0.00  0.00    +0.000 A 
ATOM      3  C   UNL     1      49.597   4.373  17.690  0.00  0.00    +0.000 A 
ATOM      4  C   UNL     1      48.720   3.419  17.156  0.00  0.00    +0.000 A 
ATOM      5  C   UNL     1      49.219   2.147  16.851  0.00  0.00    +0.000 A 
ATOM      6  C   UNL     1      50.557   1.825  17.102  0.00  0.00    +0.000 A 
ENDROOT
BRANCH   1   7
ATOM      7  C   UNL     1      52.888   2.428  17.905  0.00  0.00    +0.000 C 
BRANCH   7  14
ATOM      8  C   UNL     1      54.843  -3.129  19.221  0.00  0.00    +0.000 C 
ATOM      9  C   UNL     1      54.648  -1.938  18.332  0.00  0.00    +0.000 A 
ATOM     10  C   UNL     1      55.087  -1.950  17.027  0.00  0.00    +0.000 A 
ATOM     11  C   UNL     1      54.814  -0.817  16.300  0.00  0.00    +0.000 A 
ATOM     12  N   UNL     1      54.143   0.243  16.790  0.00  0.00    +0.000 NA
ATOM     13  C   UNL     1      53.739   0.170  18.067  0.00  0.00    +0.000 A 
ATOM     14  N   UNL     1      52.981   1.180  18.621  0.00  0.00    +0.000 N 
ATOM     15  N   UNL     1      53.999  -0.877  18.866  0.00  0.00    +0.000 NA
ATOM     16  H   UNL     1      53.095   1.202  19.625  0.00  0.00    +0.000 HD
ENDBRANCH   7  14
ENDBRANCH   1   7
BRANCH   4  17
ATOM     17  C   UNL     1      47.272   3.756  16.904  0.00  0.00    +0.000 C 
BRANCH  17  18
ATOM     18  N   UNL     1      47.116   4.714  15.842  0.00  0.00    +0.000 N 
ATOM     19  C   UNL     1      47.164   4.322  14.524  0.00  0.00    +0.000 C 
ATOM     20  O   UNL     1      47.274   3.140  14.205  0.00  0.00    +0.000 OA
ATOM     21  H   UNL     1      47.252   5.695  16.078  0.00  0.00    +0.000 HD
BRANCH  19  22
ATOM     22  C   UNL     1      47.028   5.376  13.511  0.00  0.00    +0.000 A 
ATOM     23  C   UNL     1      46.011   5.295  12.569  0.00  0.00    +0.000 A 
ATOM     24  S   UNL     1      45.966   6.617  11.493  0.00  0.00    +0.000 S 
ATOM     25  C   UNL     1      47.336   7.321  12.216  0.00  0.00    +0.000 A 
ATOM     26  N   UNL     1      47.849   8.490  11.746  0.00  0.00    +0.000 NA
ATOM     27  C   UNL     1      48.908   8.893  12.367  0.00  0.00    +0.000 A 
ATOM     28  N   UNL     1      49.495   8.236  13.417  0.00  0.00    +0.000 N 
ATOM     29  C   UNL     1      48.992   7.071  13.946  0.00  0.00    +0.000 A 
ATOM     30  O   UNL     1      49.516   6.533  14.916  0.00  0.00    +0.000 OA
ATOM     31  C   UNL     1      47.809   6.568  13.275  0.00  0.00    +0.000 A 
ATOM     32  H   UNL     1      50.318   8.609  13.865  0.00  0.00    +0.000 HD
ENDBRANCH  19  22
ENDBRANCH  17  18
ENDBRANCH   4  17
TORSDOF 5
ENDMDL
MODEL 7
REMARK VINA RESULT:    -7.595      2.598      3.836
REMARK INTER + INTRA:         -10.456
REMARK INTER:                  -9.579
REMARK INTRA:                  -0.877
REMARK UNBOUND:                -0.641
REMARK  Name = 
REMARK  6 active torsions:
REMARK  status: ('A' for Active; 'I' for Inactive)
REMARK    1  A    between atoms: C_1  and  C_2
REMARK    2  A    between atoms: N_7  and  C_8
REMARK    3  A    between atoms: C_8  and  C_9
REMARK    4  A    between atoms: C_12  and  C_13
REMARK    5  A    between atoms: C_13  and  N_14
REMARK    6  A    between atoms: C_15  and  C_17
REMARK                            x       y       z     vdW  Elec       q    Type
REMARK                         _______ _______ _______ _____ _____    ______ ____
ROOT
ATOM      1  C   UNL     1      46.099   6.709  12.519  0.00  0.00    +0.000 A 
ATOM      2  C   UNL     1      46.259   8.075  12.792  0.00  0.00    +0.000 A 
ATOM      3  C   UNL     1      47.199   8.512  13.735  0.00  0.00    +0.000 A 
ATOM      4  C   UNL     1      48.014   7.594  14.409  0.00  0.00    +0.000 A 
ATOM      5  C   UNL     1      47.850   6.228  14.144  0.00  0.00    +0.000 A 
ATOM      6  C   UNL     1      46.912   5.792  13.201  0.00  0.00    +0.000 A 
ENDROOT
BRANCH   1   7
ATOM      7  C   UNL     1      45.076   6.234  11.506  0.00  0.00    +0.000 C 
BRANCH   7  14
ATOM      8  C   UNL     1      46.332   3.279   6.395  0.00  0.00    +0.000 C 
ATOM      9  C   UNL     1      45.785   3.407   7.785  0.00  0.00    +0.000 A 
ATOM     10  C   UNL     1      45.231   2.324   8.430  0.00  0.00    +0.000 A 
ATOM     11  C   UNL     1      44.803   2.555   9.714  0.00  0.00    +0.000 A 
ATOM     12  N   UNL     1      44.924   3.741  10.341  0.00  0.00    +0.000 NA
ATOM     13  C   UNL     1      45.485   4.742   9.647  0.00  0.00    +0.000 A 
ATOM     14  N   UNL     1      45.714   5.965  10.241  0.00  0.00    +0.000 N 
ATOM     15  N   UNL     1      45.892   4.621   8.374  0.00  0.00    +0.000 NA
ATOM     16  H   UNL     1      45.746   6.699   9.548  0.00  0.00    +0.000 HD
ENDBRANCH   7  14
ENDBRANCH   1   7
BRANCH   4  17
ATOM     17  C   UNL     1      49.042   8.062  15.409  0.00  0.00    +0.000 C 
BRANCH  17  18
ATOM     18  N   UNL     1      49.942   7.007  15.794  0.00  0.00    +0.000 N 
ATOM     19  C   UNL     1      49.994   6.561  17.094  0.00  0.00    +0.000 C 
ATOM     20  O   UNL     1      49.235   6.996  17.957  0.00  0.00    +0.000 OA
ATOM     21  H   UNL     1      50.716   6.804  15.164  0.00  0.00    +0.000 HD
BRANCH  19  22
ATOM     22  C   UNL     1      50.968   5.506  17.397  0.00  0.00    +0.000 A 
ATOM     23  C   UNL     1      52.250   5.851  17.803  0.00  0.00    +0.000 A 
ATOM     24  S   UNL     1      53.242   4.510  18.156  0.00  0.00    +0.000 S 
ATOM     25  C   UNL     1      52.010   3.417  17.730  0.00  0.00    +0.000 A 
ATOM     26  N   UNL     1      52.219   2.074  17.786  0.00  0.00    +0.000 NA
ATOM     27  C   UNL     1      51.210   1.364  17.404  0.00  0.00    +0.000 A 
ATOM     28  N   UNL     1      50.011   1.875  16.977  0.00  0.00    +0.000 N 
ATOM     29  C   UNL     1      49.745   3.222  16.935  0.00  0.00    +0.000 A 
ATOM     30  O   UNL     1      48.646   3.645  16.591  0.00  0.00    +0.000 OA
ATOM     31  C   UNL     1      50.852   4.067  17.343  0.00  0.00    +0.000 A 
ATOM     32  H   UNL     1      49.259   1.263  16.699  0.00  0.00    +0.000 HD
ENDBRANCH  19  22
ENDBRANCH  17  18
ENDBRANCH   4  17
TORSDOF 5
ENDMDL
MODEL 8
REMARK VINA RESULT:    -7.514      1.878      2.727
REMARK INTER + INTRA:         -10.351
REMARK INTER:                  -9.792
REMARK INTRA:                  -0.559
REMARK UNBOUND:                -0.641
REMARK  Name = 
REMARK  6 active torsions:
REMARK  status: ('A' for Active; 'I' for Inactive)
REMARK    1  A    between atoms: C_1  and  C_2
REMARK    2  A    between atoms: N_7  and  C_8
REMARK    3  A    between atoms: C_8  and  C_9
REMARK    4  A    between atoms: C_12  and  C_13
REMARK    5  A    between atoms: C_13  and  N_14
REMARK    6  A    between atoms: C_15  and  C_17
REMARK                            x       y       z     vdW  Elec       q    Type
REMARK                         _______ _______ _______ _____ _____    ______ ____
ROOT
ATOM      1  C   UNL     1      45.309   5.083  11.627  0.00  0.00    +0.000 A 
ATOM      2  C   UNL     1      46.349   5.931  12.035  0.00  0.00    +0.000 A 
ATOM      3  C   UNL     1      47.060   5.674  13.214  0.00  0.00    +0.000 A 
ATOM      4  C   UNL     1      46.763   4.553  13.999  0.00  0.00    +0.000 A 
ATOM      5  C   UNL     1      45.719   3.710  13.598  0.00  0.00    +0.000 A 
ATOM      6  C   UNL     1      45.008   3.965  12.419  0.00  0.00    +0.000 A 
ENDROOT
BRANCH   1   7
ATOM      7  C   UNL     1      44.531   5.365  10.356  0.00  0.00    +0.000 C 
BRANCH   7  14
ATOM      8  C   UNL     1      47.316   2.844   5.631  0.00  0.00    +0.000 C 
ATOM      9  C   UNL     1      46.554   2.824   6.922  0.00  0.00    +0.000 A 
ATOM     10  C   UNL     1      46.235   1.633   7.537  0.00  0.00    +0.000 A 
ATOM     11  C   UNL     1      45.572   1.744   8.734  0.00  0.00    +0.000 A 
ATOM     12  N   UNL     1      45.260   2.921   9.310  0.00  0.00    +0.000 NA
ATOM     13  C   UNL     1      45.616   4.034   8.652  0.00  0.00    +0.000 A 
ATOM     14  N   UNL     1      45.401   5.277   9.209  0.00  0.00    +0.000 N 
ATOM     15  N   UNL     1      46.227   4.023   7.457  0.00  0.00    +0.000 NA
ATOM     16  H   UNL     1      45.330   5.983   8.490  0.00  0.00    +0.000 HD
ENDBRANCH   7  14
ENDBRANCH   1   7
BRANCH   4  17
ATOM     17  C   UNL     1      47.541   4.262  15.258  0.00  0.00    +0.000 C 
BRANCH  17  18
ATOM     18  N   UNL     1      47.514   5.368  16.178  0.00  0.00    +0.000 N 
ATOM     19  C   UNL     1      48.650   5.756  16.851  0.00  0.00    +0.000 C 
ATOM     20  O   UNL     1      49.737   5.220  16.645  0.00  0.00    +0.000 OA
ATOM     21  H   UNL     1      46.603   5.664  16.523  0.00  0.00    +0.000 HD
BRANCH  19  22
ATOM     22  C   UNL     1      48.517   6.872  17.794  0.00  0.00    +0.000 A 
ATOM     23  C   UNL     1      48.537   6.624  19.160  0.00  0.00    +0.000 A 
ATOM     24  S   UNL     1      48.413   8.030  20.115  0.00  0.00    +0.000 S 
ATOM     25  C   UNL     1      48.278   9.019  18.738  0.00  0.00    +0.000 A 
ATOM     26  N   UNL     1      48.119  10.365  18.858  0.00  0.00    +0.000 NA
ATOM     27  C   UNL     1      47.997  10.989  17.734  0.00  0.00    +0.000 A 
ATOM     28  N   UNL     1      48.025  10.389  16.501  0.00  0.00    +0.000 N 
ATOM     29  C   UNL     1      48.215   9.038  16.331  0.00  0.00    +0.000 A 
ATOM     30  O   UNL     1      48.280   8.540  15.212  0.00  0.00    +0.000 OA
ATOM     31  C   UNL     1      48.345   8.289  17.565  0.00  0.00    +0.000 A 
ATOM     32  H   UNL     1      47.931  10.935  15.659  0.00  0.00    +0.000 HD
ENDBRANCH  19  22
ENDBRANCH  17  18
ENDBRANCH   4  17
TORSDOF 5
ENDMDL
MODEL 9
REMARK VINA RESULT:    -7.432      3.160      4.893
REMARK INTER + INTRA:         -10.245
REMARK INTER:                  -9.324
REMARK INTRA:                  -0.921
REMARK UNBOUND:                -0.641
REMARK  Name = 
REMARK  6 active torsions:
REMARK  status: ('A' for Active; 'I' for Inactive)
REMARK    1  A    between atoms: C_1  and  C_2
REMARK    2  A    between atoms: N_7  and  C_8
REMARK    3  A    between atoms: C_8  and  C_9
REMARK    4  A    between atoms: C_12  and  C_13
REMARK    5  A    between atoms: C_13  and  N_14
REMARK    6  A    between atoms: C_15  and  C_17
REMARK                            x       y       z     vdW  Elec       q    Type
REMARK                         _______ _______ _______ _____ _____    ______ ____
ROOT
ATOM      1  C   UNL     1      44.957   4.670  11.051  0.00  0.00    +0.000 A 
ATOM      2  C   UNL     1      45.660   5.883  11.102  0.00  0.00    +0.000 A 
ATOM      3  C   UNL     1      46.413   6.227  12.232  0.00  0.00    +0.000 A 
ATOM      4  C   UNL     1      46.499   5.357  13.326  0.00  0.00    +0.000 A 
ATOM      5  C   UNL     1      45.791   4.150  13.281  0.00  0.00    +0.000 A 
ATOM      6  C   UNL     1      45.039   3.804  12.152  0.00  0.00    +0.000 A 
ENDROOT
BRANCH   1   7
ATOM      7  C   UNL     1      44.134   4.300   9.834  0.00  0.00    +0.000 C 
BRANCH   7  14
ATOM      8  C   UNL     1      47.373   2.819   4.960  0.00  0.00    +0.000 C 
ATOM      9  C   UNL     1      46.750   2.565   6.301  0.00  0.00    +0.000 A 
ATOM     10  C   UNL     1      46.935   1.365   6.950  0.00  0.00    +0.000 A 
ATOM     11  C   UNL     1      46.351   1.267   8.189  0.00  0.00    +0.000 A 
ATOM     12  N   UNL     1      45.657   2.264   8.770  0.00  0.00    +0.000 NA
ATOM     13  C   UNL     1      45.533   3.404   8.076  0.00  0.00    +0.000 A 
ATOM     14  N   UNL     1      44.903   4.499   8.631  0.00  0.00    +0.000 N 
ATOM     15  N   UNL     1      46.032   3.576   6.842  0.00  0.00    +0.000 NA
ATOM     16  H   UNL     1      44.532   5.101   7.910  0.00  0.00    +0.000 HD
ENDBRANCH   7  14
ENDBRANCH   1   7
BRANCH   4  17
ATOM     17  C   UNL     1      47.326   5.715  14.535  0.00  0.00    +0.000 C 
BRANCH  17  18
ATOM     18  N   UNL     1      48.593   6.294  14.172  0.00  0.00    +0.000 N 
ATOM     19  C   UNL     1      49.181   7.257  14.959  0.00  0.00    +0.000 C 
ATOM     20  O   UNL     1      48.686   7.610  16.027  0.00  0.00    +0.000 OA
ATOM     21  H   UNL     1      48.893   6.186  13.205  0.00  0.00    +0.000 HD
BRANCH  19  22
ATOM     22  C   UNL     1      50.456   7.812  14.489  0.00  0.00    +0.000 A 
ATOM     23  C   UNL     1      51.585   7.713  15.292  0.00  0.00    +0.000 A 
ATOM     24  S   UNL     1      52.991   8.368  14.583  0.00  0.00    +0.000 S 
ATOM     25  C   UNL     1      52.131   8.855  13.198  0.00  0.00    +0.000 A 
ATOM     26  N   UNL     1      52.756   9.512  12.184  0.00  0.00    +0.000 NA
ATOM     27  C   UNL     1      51.977   9.850  11.211  0.00  0.00    +0.000 A 
ATOM     28  N   UNL     1      50.633   9.586  11.158  0.00  0.00    +0.000 N 
ATOM     29  C   UNL     1      49.967   8.897  12.143  0.00  0.00    +0.000 A 
ATOM     30  O   UNL     1      48.772   8.638  12.043  0.00  0.00    +0.000 OA
ATOM     31  C   UNL     1      50.794   8.505  13.267  0.00  0.00    +0.000 A 
ATOM     32  H   UNL     1      50.081   9.871  10.363  0.00  0.00    +0.000 HD
ENDBRANCH  19  22
ENDBRANCH  17  18
ENDBRANCH   4  17
TORSDOF 5
ENDMDL
