MODEL 1
REMARK VINA RESULT:    -8.091      0.000      0.000
REMARK INTER + INTRA:         -10.627
REMARK INTER:                  -9.983
REMARK INTRA:                  -0.644
REMARK UNBOUND:                -0.644
REMARK  Name = 
REMARK  5 active torsions:
REMARK  status: ('A' for Active; 'I' for Inactive)
REMARK    1  A    between atoms: C_1  and  O_2
REMARK    2  A    between atoms: O_2  and  C_3
REMARK    3  A    between atoms: N_8  and  C_9
REMARK    4  A    between atoms: C_9  and  C_10
REMARK    5  A    between atoms: C_14  and  C_15
REMARK                            x       y       z     vdW  Elec       q    Type
REMARK                         _______ _______ _______ _____ _____    ______ ____
ROOT
ATOM      1  C   UNL     1      44.956   4.794  11.914  0.00  0.00    +0.000 A 
ATOM      2  N   UNL     1      45.296   3.926  12.888  0.00  0.00    +0.000 NA
ATOM      3  C   UNL     1      46.325   4.288  13.672  0.00  0.00    +0.000 A 
ATOM      4  C   UNL     1      47.022   5.464  13.521  0.00  0.00    +0.000 A 
ATOM      5  C   UNL     1      46.616   6.299  12.496  0.00  0.00    +0.000 A 
ATOM      6  N   UNL     1      45.584   5.969  11.688  0.00  0.00    +0.000 NA
ENDROOT
BRANCH   5   7
ATOM      7  C   UNL     1      47.286   7.586  12.203  0.00  0.00    +0.000 A 
ATOM      8  C   UNL     1      48.647   7.629  11.837  0.00  0.00    +0.000 A 
ATOM      9  C   UNL     1      49.305   8.840  11.589  0.00  0.00    +0.000 A 
ATOM     10  C   UNL     1      48.612  10.042  11.698  0.00  0.00    +0.000 A 
ATOM     11  C   UNL     1      47.268  10.016  12.039  0.00  0.00    +0.000 A 
ATOM     12  F   UNL     1      46.590  11.168  12.137  0.00  0.00    +0.000 F 
ATOM     13  C   UNL     1      46.606   8.814  12.284  0.00  0.00    +0.000 A 
ENDBRANCH   5   7
BRANCH   1  14
ATOM     14  C   UNL     1      43.792   4.413  11.006  0.00  0.00    +0.000 C 
BRANCH  14  20
ATOM     15  C   UNL     1      46.004   1.921   8.226  0.00  0.00    +0.000 A 
ATOM     16  C   UNL     1      46.766   2.620   7.307  0.00  0.00    +0.000 A 
ATOM     17  C   UNL     1      46.595   3.991   7.247  0.00  0.00    +0.000 A 
ATOM     18  N   UNL     1      45.735   4.683   8.028  0.00  0.00    +0.000 NA
ATOM     19  C   UNL     1      44.980   3.994   8.904  0.00  0.00    +0.000 A 
ATOM     20  N   UNL     1      44.060   4.750   9.610  0.00  0.00    +0.000 N 
ATOM     21  C   UNL     1      45.084   2.614   9.017  0.00  0.00    +0.000 A 
ATOM     22  H   UNL     1      44.285   5.731   9.457  0.00  0.00    +0.000 HD
BRANCH  15  24
ATOM     23  C   UNL     1      46.810  -0.183   7.497  0.00  0.00    +0.000 C 
ATOM     24  O   UNL     1      46.024   0.566   8.417  0.00  0.00    +0.000 OA
ENDBRANCH  15  24
ENDBRANCH  14  20
ENDBRANCH   1  14
TORSDOF 4
ENDMDL
MODEL 2
REMARK VINA RESULT:    -8.073      3.282      6.543
REMARK INTER + INTRA:         -10.605
REMARK INTER:                 -10.303
REMARK INTRA:                  -0.302
REMARK UNBOUND:                -0.644
REMARK  Name = 
REMARK  5 active torsions:
REMARK  status: ('A' for Active; 'I' for Inactive)
REMARK    1  A    between atoms: C_1  and  O_2
REMARK    2  A    between atoms: O_2  and  C_3
REMARK    3  A    between atoms: N_8  and  C_9
REMARK    4  A    between atoms: C_9  and  C_10
REMARK    5  A    between atoms: C_14  and  C_15
REMARK                            x       y       z     vdW  Elec       q    Type
REMARK                         _______ _______ _______ _____ _____    ______ ____
ROOT
ATOM      1  C   UNL     1      43.778   5.060  11.033  0.00  0.00    +0.000 A 
ATOM      2  N   UNL     1      43.127   4.231  11.873  0.00  0.00    +0.000 NA
ATOM      3  C   UNL     1      43.281   2.916  11.646  0.00  0.00    +0.000 A 
ATOM      4  C   UNL     1      44.044   2.404  10.624  0.00  0.00    +0.000 A 
ATOM      5  C   UNL     1      44.676   3.318   9.801  0.00  0.00    +0.000 A 
ATOM      6  N   UNL     1      44.546   4.649  10.000  0.00  0.00    +0.000 NA
ENDROOT
BRANCH   5   7
ATOM      7  C   UNL     1      45.512   2.911   8.649  0.00  0.00    +0.000 A 
ATOM      8  C   UNL     1      45.912   3.849   7.675  0.00  0.00    +0.000 A 
ATOM      9  C   UNL     1      46.673   3.476   6.562  0.00  0.00    +0.000 A 
ATOM     10  C   UNL     1      47.059   2.149   6.398  0.00  0.00    +0.000 A 
ATOM     11  C   UNL     1      46.689   1.216   7.356  0.00  0.00    +0.000 A 
ATOM     12  F   UNL     1      47.063  -0.063   7.211  0.00  0.00    +0.000 F 
ATOM     13  C   UNL     1      45.934   1.582   8.469  0.00  0.00    +0.000 A 
ENDBRANCH   5   7
BRANCH   1  14
ATOM     14  C   UNL     1      43.624   6.559  11.264  0.00  0.00    +0.000 C 
BRANCH  14  20
ATOM     15  C   UNL     1      47.296   6.063  13.524  0.00  0.00    +0.000 A 
ATOM     16  C   UNL     1      48.043   7.219  13.670  0.00  0.00    +0.000 A 
ATOM     17  C   UNL     1      47.653   8.327  12.940  0.00  0.00    +0.000 A 
ATOM     18  N   UNL     1      46.594   8.349  12.100  0.00  0.00    +0.000 NA
ATOM     19  C   UNL     1      45.886   7.215  11.945  0.00  0.00    +0.000 A 
ATOM     20  N   UNL     1      44.870   7.279  11.006  0.00  0.00    +0.000 N 
ATOM     21  C   UNL     1      46.220   6.055  12.633  0.00  0.00    +0.000 A 
ATOM     22  H   UNL     1      44.739   8.258  10.761  0.00  0.00    +0.000 HD
BRANCH  15  24
ATOM     23  C   UNL     1      46.797   3.753  13.668  0.00  0.00    +0.000 C 
ATOM     24  O   UNL     1      47.538   4.869  14.148  0.00  0.00    +0.000 OA
ENDBRANCH  15  24
ENDBRANCH  14  20
ENDBRANCH   1  14
TORSDOF 4
ENDMDL
MODEL 3
REMARK VINA RESULT:    -7.803      4.420      7.758
REMARK INTER + INTRA:         -10.272
REMARK INTER:                  -9.827
REMARK INTRA:                  -0.445
REMARK UNBOUND:                -0.644
REMARK  Name = 
REMARK  5 active torsions:
REMARK  status: ('A' for Active; 'I' for Inactive)
REMARK    1  A    between atoms: C_1  and  O_2
REMARK    2  A    between atoms: O_2  and  C_3
REMARK    3  A    between atoms: N_8  and  C_9
REMARK    4  A    between atoms: C_9  and  C_10
REMARK    5  A    between atoms: C_14  and  C_15
REMARK                            x       y       z     vdW  Elec       q    Type
REMARK                         _______ _______ _______ _____ _____    ______ ____
ROOT
ATOM      1  C   UNL     1      45.177   4.889  12.773  0.00  0.00    +0.000 A 
ATOM      2  N   UNL     1      43.923   5.363  12.911  0.00  0.00    +0.000 NA
ATOM      3  C   UNL     1      43.117   5.228  11.845  0.00  0.00    +0.000 A 
ATOM      4  C   UNL     1      43.510   4.651  10.661  0.00  0.00    +0.000 A 
ATOM      5  C   UNL     1      44.813   4.194  10.594  0.00  0.00    +0.000 A 
ATOM      6  N   UNL     1      45.653   4.311  11.647  0.00  0.00    +0.000 NA
ENDROOT
BRANCH   5   7
ATOM      7  C   UNL     1      45.380   3.571   9.377  0.00  0.00    +0.000 A 
ATOM      8  C   UNL     1      45.792   4.359   8.282  0.00  0.00    +0.000 A 
ATOM      9  C   UNL     1      46.298   3.784   7.110  0.00  0.00    +0.000 A 
ATOM     10  C   UNL     1      46.410   2.401   7.008  0.00  0.00    +0.000 A 
ATOM     11  C   UNL     1      46.026   1.612   8.082  0.00  0.00    +0.000 A 
ATOM     12  F   UNL     1      46.139   0.279   7.995  0.00  0.00    +0.000 F 
ATOM     13  C   UNL     1      45.525   2.177   9.253  0.00  0.00    +0.000 A 
ENDBRANCH   5   7
BRANCH   1  14
ATOM     14  C   UNL     1      46.118   5.027  13.965  0.00  0.00    +0.000 C 
BRANCH  14  20
ATOM     15  C   UNL     1      47.950   4.325  17.836  0.00  0.00    +0.000 A 
ATOM     16  C   UNL     1      48.919   3.337  17.843  0.00  0.00    +0.000 A 
ATOM     17  C   UNL     1      49.058   2.571  16.701  0.00  0.00    +0.000 A 
ATOM     18  N   UNL     1      48.310   2.727  15.586  0.00  0.00    +0.000 NA
ATOM     19  C   UNL     1      47.354   3.674  15.594  0.00  0.00    +0.000 A 
ATOM     20  N   UNL     1      46.567   3.725  14.455  0.00  0.00    +0.000 N 
ATOM     21  C   UNL     1      47.143   4.479  16.706  0.00  0.00    +0.000 A 
ATOM     22  H   UNL     1      47.013   3.147  13.746  0.00  0.00    +0.000 HD
BRANCH  15  24
ATOM     23  C   UNL     1      48.169   6.491  18.767  0.00  0.00    +0.000 C 
ATOM     24  O   UNL     1      47.657   5.167  18.874  0.00  0.00    +0.000 OA
ENDBRANCH  15  24
ENDBRANCH  14  20
ENDBRANCH   1  14
TORSDOF 4
ENDMDL
MODEL 4
REMARK VINA RESULT:    -7.728      1.419      1.657
REMARK INTER + INTRA:         -10.179
REMARK INTER:                  -9.479
REMARK INTRA:                  -0.700
REMARK UNBOUND:                -0.644
REMARK  Name = 
REMARK  5 active torsions:
REMARK  status: ('A' for Active; 'I' for Inactive)
REMARK    1  A    between atoms: C_1  and  O_2
REMARK    2  A    between atoms: O_2  and  C_3
REMARK    3  A    between atoms: N_8  and  C_9
REMARK    4  A    between atoms: C_9  and  C_10
REMARK    5  A    between atoms: C_14  and  C_15
REMARK                            x       y       z     vdW  Elec       q    Type
REMARK                         _______ _______ _______ _____ _____    ______ ____
ROOT
ATOM      1  C   UNL     1      45.078   3.587  11.891  0.00  0.00    +0.000 A 
ATOM      2  N   UNL     1      45.792   2.926  12.823  0.00  0.00    +0.000 NA
ATOM      3  C   UNL     1      46.540   3.682  13.644  0.00  0.00    +0.000 A 
ATOM      4  C   UNL     1      46.607   5.053  13.568  0.00  0.00    +0.000 A 
ATOM      5  C   UNL     1      45.849   5.658  12.582  0.00  0.00    +0.000 A 
ATOM      6  N   UNL     1      45.083   4.930  11.739  0.00  0.00    +0.000 NA
ENDROOT
BRANCH   5   7
ATOM      7  C   UNL     1      45.839   7.123  12.370  0.00  0.00    +0.000 A 
ATOM      8  C   UNL     1      46.865   7.939  12.889  0.00  0.00    +0.000 A 
ATOM      9  C   UNL     1      46.853   9.330  12.727  0.00  0.00    +0.000 A 
ATOM     10  C   UNL     1      45.812   9.939  12.033  0.00  0.00    +0.000 A 
ATOM     11  C   UNL     1      44.804   9.148  11.500  0.00  0.00    +0.000 A 
ATOM     12  F   UNL     1      43.802   9.725  10.822  0.00  0.00    +0.000 F 
ATOM     13  C   UNL     1      44.811   7.763  11.654  0.00  0.00    +0.000 A 
ENDBRANCH   5   7
BRANCH   1  14
ATOM     14  C   UNL     1      44.218   2.758  10.944  0.00  0.00    +0.000 C 
BRANCH  14  20
ATOM     15  C   UNL     1      46.812   1.786   7.602  0.00  0.00    +0.000 A 
ATOM     16  C   UNL     1      47.105   2.854   6.772  0.00  0.00    +0.000 A 
ATOM     17  C   UNL     1      46.409   4.031   6.976  0.00  0.00    +0.000 A 
ATOM     18  N   UNL     1      45.466   4.200   7.930  0.00  0.00    +0.000 NA
ATOM     19  C   UNL     1      45.169   3.151   8.719  0.00  0.00    +0.000 A 
ATOM     20  N   UNL     1      44.135   3.363   9.616  0.00  0.00    +0.000 N 
ATOM     21  C   UNL     1      45.815   1.930   8.572  0.00  0.00    +0.000 A 
ATOM     22  H   UNL     1      43.938   4.361   9.628  0.00  0.00    +0.000 HD
BRANCH  15  24
ATOM     23  C   UNL     1      46.483  -0.559   7.577  0.00  0.00    +0.000 C 
ATOM     24  O   UNL     1      47.383   0.544   7.542  0.00  0.00    +0.000 OA
ENDBRANCH  15  24
ENDBRANCH  14  20
ENDBRANCH   1  14
TORSDOF 4
ENDMDL
MODEL 5
REMARK VINA RESULT:    -7.661      3.497      6.981
REMARK INTER + INTRA:         -10.096
REMARK INTER:                  -9.444
REMARK INTRA:                  -0.653
REMARK UNBOUND:                -0.644
REMARK  Name = 
REMARK  5 active torsions:
REMARK  status: ('A' for Active; 'I' for Inactive)
REMARK    1  A    between atoms: C_1  and  O_2
REMARK    2  A    between atoms: O_2  and  C_3
REMARK    3  A    between atoms: N_8  and  C_9
REMARK    4  A    between atoms: C_9  and  C_10
REMARK    5  A    between atoms: C_14  and  C_15
REMARK                            x       y       z     vdW  Elec       q    Type
REMARK                         _______ _______ _______ _____ _____    ______ ____
ROOT
ATOM      1  C   UNL     1      44.340   5.519  11.178  0.00  0.00    +0.000 A 
ATOM      2  N   UNL     1      43.435   4.873  11.939  0.00  0.00    +0.000 NA
ATOM      3  C   UNL     1      43.234   3.576  11.651  0.00  0.00    +0.000 A 
ATOM      4  C   UNL     1      43.889   2.910  10.642  0.00  0.00    +0.000 A 
ATOM      5  C   UNL     1      44.799   3.641   9.902  0.00  0.00    +0.000 A 
ATOM      6  N   UNL     1      45.029   4.948  10.164  0.00  0.00    +0.000 NA
ENDROOT
BRANCH   5   7
ATOM      7  C   UNL     1      45.562   3.061   8.774  0.00  0.00    +0.000 A 
ATOM      8  C   UNL     1      46.035   3.874   7.723  0.00  0.00    +0.000 A 
ATOM      9  C   UNL     1      46.728   3.337   6.632  0.00  0.00    +0.000 A 
ATOM     10  C   UNL     1      46.969   1.968   6.568  0.00  0.00    +0.000 A 
ATOM     11  C   UNL     1      46.526   1.156   7.602  0.00  0.00    +0.000 A 
ATOM     12  F   UNL     1      46.761  -0.162   7.553  0.00  0.00    +0.000 F 
ATOM     13  C   UNL     1      45.839   1.684   8.693  0.00  0.00    +0.000 A 
ENDBRANCH   5   7
BRANCH   1  14
ATOM     14  C   UNL     1      44.591   6.992  11.479  0.00  0.00    +0.000 C 
BRANCH  14  20
ATOM     15  C   UNL     1      48.803   7.736  12.221  0.00  0.00    +0.000 A 
ATOM     16  C   UNL     1      49.290   7.173  13.387  0.00  0.00    +0.000 A 
ATOM     17  C   UNL     1      48.372   6.618  14.260  0.00  0.00    +0.000 A 
ATOM     18  N   UNL     1      47.038   6.594  14.044  0.00  0.00    +0.000 NA
ATOM     19  C   UNL     1      46.568   7.164  12.919  0.00  0.00    +0.000 A 
ATOM     20  N   UNL     1      45.189   7.182  12.799  0.00  0.00    +0.000 N 
ATOM     21  C   UNL     1      47.424   7.751  11.996  0.00  0.00    +0.000 A 
ATOM     22  H   UNL     1      44.810   6.568  13.517  0.00  0.00    +0.000 HD
BRANCH  15  24
ATOM     23  C   UNL     1      50.792   8.900  11.675  0.00  0.00    +0.000 C 
ATOM     24  O   UNL     1      49.553   8.342  11.250  0.00  0.00    +0.000 OA
ENDBRANCH  15  24
ENDBRANCH  14  20
ENDBRANCH   1  14
TORSDOF 4
ENDMDL
MODEL 6
REMARK VINA RESULT:    -7.641      4.147      7.628
REMARK INTER + INTRA:         -10.072
REMARK INTER:                  -9.629
REMARK INTRA:                  -0.443
REMARK UNBOUND:                -0.644
REMARK  Name = 
REMARK  5 active torsions:
REMARK  status: ('A' for Active; 'I' for Inactive)
REMARK    1  A    between atoms: C_1  and  O_2
REMARK    2  A    between atoms: O_2  and  C_3
REMARK    3  A    between atoms: N_8  and  C_9
REMARK    4  A    between atoms: C_9  and  C_10
REMARK    5  A    between atoms: C_14  and  C_15
REMARK                            x       y       z     vdW  Elec       q    Type
REMARK                         _______ _______ _______ _____ _____    ______ ____
ROOT
ATOM      1  C   UNL     1      45.233   5.015  12.853  0.00  0.00    +0.000 A 
ATOM      2  N   UNL     1      44.034   5.616  12.989  0.00  0.00    +0.000 NA
ATOM      3  C   UNL     1      43.201   5.523  11.940  0.00  0.00    +0.000 A 
ATOM      4  C   UNL     1      43.515   4.868  10.773  0.00  0.00    +0.000 A 
ATOM      5  C   UNL     1      44.765   4.282  10.707  0.00  0.00    +0.000 A 
ATOM      6  N   UNL     1      45.631   4.353  11.744  0.00  0.00    +0.000 NA
ENDROOT
BRANCH   5   7
ATOM      7  C   UNL     1      45.247   3.562   9.506  0.00  0.00    +0.000 A 
ATOM      8  C   UNL     1      45.239   2.153   9.452  0.00  0.00    +0.000 A 
ATOM      9  C   UNL     1      45.723   1.455   8.339  0.00  0.00    +0.000 A 
ATOM     10  C   UNL     1      46.224   2.155   7.246  0.00  0.00    +0.000 A 
ATOM     11  C   UNL     1      46.223   3.542   7.275  0.00  0.00    +0.000 A 
ATOM     12  F   UNL     1      46.696   4.224   6.223  0.00  0.00    +0.000 F 
ATOM     13  C   UNL     1      45.740   4.243   8.378  0.00  0.00    +0.000 A 
ENDBRANCH   5   7
BRANCH   1  14
ATOM     14  C   UNL     1      46.202   5.102  14.026  0.00  0.00    +0.000 C 
BRANCH  14  20
ATOM     15  C   UNL     1      47.975   4.274  17.900  0.00  0.00    +0.000 A 
ATOM     16  C   UNL     1      48.911   3.254  17.899  0.00  0.00    +0.000 A 
ATOM     17  C   UNL     1      49.035   2.503  16.744  0.00  0.00    +0.000 A 
ATOM     18  N   UNL     1      48.302   2.704  15.626  0.00  0.00    +0.000 NA
ATOM     19  C   UNL     1      47.378   3.682  15.642  0.00  0.00    +0.000 A 
ATOM     20  N   UNL     1      46.603   3.778  14.498  0.00  0.00    +0.000 N 
ATOM     21  C   UNL     1      47.184   4.474  16.766  0.00  0.00    +0.000 A 
ATOM     22  H   UNL     1      47.036   3.198  13.783  0.00  0.00    +0.000 HD
BRANCH  15  24
ATOM     23  C   UNL     1      47.893   6.497  18.710  0.00  0.00    +0.000 C 
ATOM     24  O   UNL     1      47.700   5.107  18.950  0.00  0.00    +0.000 OA
ENDBRANCH  15  24
ENDBRANCH  14  20
ENDBRANCH   1  14
TORSDOF 4
ENDMDL
MODEL 7
REMARK VINA RESULT:    -7.181      3.669      7.158
REMARK INTER + INTRA:          -9.504
REMARK INTER:                  -8.965
REMARK INTRA:                  -0.540
REMARK UNBOUND:                -0.644
REMARK  Name = 
REMARK  5 active torsions:
REMARK  status: ('A' for Active; 'I' for Inactive)
REMARK    1  A    between atoms: C_1  and  O_2
REMARK    2  A    between atoms: O_2  and  C_3
REMARK    3  A    between atoms: N_8  and  C_9
REMARK    4  A    between atoms: C_9  and  C_10
REMARK    5  A    between atoms: C_14  and  C_15
REMARK                            x       y       z     vdW  Elec       q    Type
REMARK                         _______ _______ _______ _____ _____    ______ ____
ROOT
ATOM      1  C   UNL     1      45.058   5.950  11.596  0.00  0.00    +0.000 A 
ATOM      2  N   UNL     1      43.762   5.839  11.950  0.00  0.00    +0.000 NA
ATOM      3  C   UNL     1      43.041   4.923  11.282  0.00  0.00    +0.000 A 
ATOM      4  C   UNL     1      43.555   4.128  10.285  0.00  0.00    +0.000 A 
ATOM      5  C   UNL     1      44.891   4.305   9.976  0.00  0.00    +0.000 A 
ATOM      6  N   UNL     1      45.648   5.216  10.627  0.00  0.00    +0.000 NA
ENDROOT
BRANCH   5   7
ATOM      7  C   UNL     1      45.573   3.534   8.911  0.00  0.00    +0.000 A 
ATOM      8  C   UNL     1      46.152   4.185   7.802  0.00  0.00    +0.000 A 
ATOM      9  C   UNL     1      46.771   3.470   6.769  0.00  0.00    +0.000 A 
ATOM     10  C   UNL     1      46.829   2.081   6.825  0.00  0.00    +0.000 A 
ATOM     11  C   UNL     1      46.280   1.426   7.918  0.00  0.00    +0.000 A 
ATOM     12  F   UNL     1      46.340   0.089   7.985  0.00  0.00    +0.000 F 
ATOM     13  C   UNL     1      45.666   2.132   8.951  0.00  0.00    +0.000 A 
ENDBRANCH   5   7
BRANCH   1  14
ATOM     14  C   UNL     1      45.904   6.981  12.335  0.00  0.00    +0.000 C 
BRANCH  14  20
ATOM     15  C   UNL     1      49.739   7.221  14.354  0.00  0.00    +0.000 A 
ATOM     16  C   UNL     1      50.633   8.112  13.786  0.00  0.00    +0.000 A 
ATOM     17  C   UNL     1      50.294   8.666  12.565  0.00  0.00    +0.000 A 
ATOM     18  N   UNL     1      49.150   8.392  11.899  0.00  0.00    +0.000 NA
ATOM     19  C   UNL     1      48.295   7.508  12.445  0.00  0.00    +0.000 A 
ATOM     20  N   UNL     1      47.187   7.206  11.672  0.00  0.00    +0.000 N 
ATOM     21  C   UNL     1      48.567   6.899  13.663  0.00  0.00    +0.000 A 
ATOM     22  H   UNL     1      47.147   7.883  10.913  0.00  0.00    +0.000 HD
BRANCH  15  24
ATOM     23  C   UNL     1      48.719   6.105  16.176  0.00  0.00    +0.000 C 
ATOM     24  O   UNL     1      49.908   6.564  15.542  0.00  0.00    +0.000 OA
ENDBRANCH  15  24
ENDBRANCH  14  20
ENDBRANCH   1  14
TORSDOF 4
ENDMDL
MODEL 8
REMARK VINA RESULT:    -7.140      2.613      3.877
REMARK INTER + INTRA:          -9.453
REMARK INTER:                  -8.865
REMARK INTRA:                  -0.588
REMARK UNBOUND:                -0.644
REMARK  Name = 
REMARK  5 active torsions:
REMARK  status: ('A' for Active; 'I' for Inactive)
REMARK    1  A    between atoms: C_1  and  O_2
REMARK    2  A    between atoms: O_2  and  C_3
REMARK    3  A    between atoms: N_8  and  C_9
REMARK    4  A    between atoms: C_9  and  C_10
REMARK    5  A    between atoms: C_14  and  C_15
REMARK                            x       y       z     vdW  Elec       q    Type
REMARK                         _______ _______ _______ _____ _____    ______ ____
ROOT
ATOM      1  C   UNL     1      45.295   5.175  11.707  0.00  0.00    +0.000 A 
ATOM      2  N   UNL     1      45.406   6.392  11.139  0.00  0.00    +0.000 NA
ATOM      3  C   UNL     1      46.181   7.280  11.783  0.00  0.00    +0.000 A 
ATOM      4  C   UNL     1      46.837   7.006  12.960  0.00  0.00    +0.000 A 
ATOM      5  C   UNL     1      46.670   5.737  13.484  0.00  0.00    +0.000 A 
ATOM      6  N   UNL     1      45.898   4.817  12.863  0.00  0.00    +0.000 NA
ENDROOT
BRANCH   5   7
ATOM      7  C   UNL     1      47.298   5.308  14.754  0.00  0.00    +0.000 A 
ATOM      8  C   UNL     1      48.310   6.081  15.361  0.00  0.00    +0.000 A 
ATOM      9  C   UNL     1      48.938   5.673  16.543  0.00  0.00    +0.000 A 
ATOM     10  C   UNL     1      48.563   4.480  17.153  0.00  0.00    +0.000 A 
ATOM     11  C   UNL     1      47.557   3.716  16.579  0.00  0.00    +0.000 A 
ATOM     12  F   UNL     1      47.183   2.570  17.164  0.00  0.00    +0.000 F 
ATOM     13  C   UNL     1      46.924   4.118  15.404  0.00  0.00    +0.000 A 
ENDBRANCH   5   7
BRANCH   1  14
ATOM     14  C   UNL     1      44.422   4.144  11.001  0.00  0.00    +0.000 C 
BRANCH  14  20
ATOM     15  C   UNL     1      46.297   1.599   8.026  0.00  0.00    +0.000 A 
ATOM     16  C   UNL     1      46.789   2.272   6.921  0.00  0.00    +0.000 A 
ATOM     17  C   UNL     1      46.468   3.611   6.794  0.00  0.00    +0.000 A 
ATOM     18  N   UNL     1      45.709   4.297   7.678  0.00  0.00    +0.000 NA
ATOM     19  C   UNL     1      45.215   3.632   8.738  0.00  0.00    +0.000 A 
ATOM     20  N   UNL     1      44.376   4.369   9.557  0.00  0.00    +0.000 N 
ATOM     21  C   UNL     1      45.482   2.283   8.933  0.00  0.00    +0.000 A 
ATOM     22  H   UNL     1      44.464   5.346   9.288  0.00  0.00    +0.000 HD
BRANCH  15  24
ATOM     23  C   UNL     1      46.558  -0.602   7.193  0.00  0.00    +0.000 C 
ATOM     24  O   UNL     1      46.495   0.276   8.312  0.00  0.00    +0.000 OA
ENDBRANCH  15  24
ENDBRANCH  14  20
ENDBRANCH   1  14
TORSDOF 4
ENDMDL
MODEL 9
REMARK VINA RESULT:    -6.683      5.286      8.220
REMARK INTER + INTRA:          -8.890
REMARK INTER:                  -8.282
REMARK INTRA:                  -0.608
REMARK UNBOUND:                -0.644
REMARK  Name = 
REMARK  5 active torsions:
REMARK  status: ('A' for Active; 'I' for Inactive)
REMARK    1  A    between atoms: C_1  and  O_2
REMARK    2  A    between atoms: O_2  and  C_3
REMARK    3  A    between atoms: N_8  and  C_9
REMARK    4  A    between atoms: C_9  and  C_10
REMARK    5  A    between atoms: C_14  and  C_15
REMARK                            x       y       z     vdW  Elec       q    Type
REMARK                         _______ _______ _______ _____ _____    ______ ____
ROOT
ATOM      1  C   UNL     1      47.265   4.791  15.571  0.00  0.00    +0.000 A 
ATOM      2  N   UNL     1      48.255   5.696  15.434  0.00  0.00    +0.000 NA
ATOM      3  C   UNL     1      48.384   6.254  14.219  0.00  0.00    +0.000 A 
ATOM      4  C   UNL     1      47.580   5.944  13.148  0.00  0.00    +0.000 A 
ATOM      5  C   UNL     1      46.590   5.003  13.366  0.00  0.00    +0.000 A 
ATOM      6  N   UNL     1      46.429   4.421  14.576  0.00  0.00    +0.000 NA
ENDROOT
BRANCH   5   7
ATOM      7  C   UNL     1      45.664   4.556  12.301  0.00  0.00    +0.000 A 
ATOM      8  C   UNL     1      45.630   5.205  11.050  0.00  0.00    +0.000 A 
ATOM      9  C   UNL     1      44.737   4.818  10.044  0.00  0.00    +0.000 A 
ATOM     10  C   UNL     1      43.856   3.764  10.265  0.00  0.00    +0.000 A 
ATOM     11  C   UNL     1      43.889   3.103  11.485  0.00  0.00    +0.000 A 
ATOM     12  F   UNL     1      43.050   2.081  11.704  0.00  0.00    +0.000 F 
ATOM     13  C   UNL     1      44.778   3.481  12.489  0.00  0.00    +0.000 A 
ENDBRANCH   5   7
BRANCH   1  14
ATOM     14  C   UNL     1      47.091   4.140  16.938  0.00  0.00    +0.000 C 
BRANCH  14  20
ATOM     15  C   UNL     1      51.130   3.593  18.432  0.00  0.00    +0.000 A 
ATOM     16  C   UNL     1      51.849   2.598  17.793  0.00  0.00    +0.000 A 
ATOM     17  C   UNL     1      51.165   1.781  16.912  0.00  0.00    +0.000 A 
ATOM     18  N   UNL     1      49.847   1.895  16.639  0.00  0.00    +0.000 NA
ATOM     19  C   UNL     1      49.147   2.850  17.280  0.00  0.00    +0.000 A 
ATOM     20  N   UNL     1      47.787   2.857  17.021  0.00  0.00    +0.000 N 
ATOM     21  C   UNL     1      49.758   3.704  18.189  0.00  0.00    +0.000 A 
ATOM     22  H   UNL     1      47.622   2.245  16.226  0.00  0.00    +0.000 HD
BRANCH  15  24
ATOM     23  C   UNL     1      52.950   4.228  19.807  0.00  0.00    +0.000 C 
ATOM     24  O   UNL     1      51.628   4.483  19.344  0.00  0.00    +0.000 OA
ENDBRANCH  15  24
ENDBRANCH  14  20
ENDBRANCH   1  14
TORSDOF 4
ENDMDL
