MODEL 1
REMARK VINA RESULT:    -7.954      0.000      0.000
REMARK INTER + INTRA:         -10.510
REMARK INTER:                 -10.047
REMARK INTRA:                  -0.463
REMARK UNBOUND:                -0.463
REMARK  Name = 
REMARK  5 active torsions:
REMARK  status: ('A' for Active; 'I' for Inactive)
REMARK    1  A    between atoms: N_1  and  C_2
REMARK    2  A    between atoms: C_2  and  C_3
REMARK    3  A    between atoms: C_6  and  C_7
REMARK    4  A    between atoms: C_7  and  N_8
REMARK    5  A    between atoms: C_13  and  C_14
REMARK                            x       y       z     vdW  Elec       q    Type
REMARK                         _______ _______ _______ _____ _____    ______ ____
ROOT
ATOM      1  N   UNL     1      44.439   2.800  11.759  0.00  0.00    +0.000 N 
ATOM      2  C   UNL     1      45.254   3.720  12.390  0.00  0.00    +0.000 A 
ATOM      3  N   UNL     1      46.226   3.206  13.156  0.00  0.00    +0.000 NA
ATOM      4  C   UNL     1      47.016   4.068  13.827  0.00  0.00    +0.000 A 
ATOM      5  C   UNL     1      46.882   5.426  13.754  0.00  0.00    +0.000 A 
ATOM      6  C   UNL     1      45.870   5.854  12.929  0.00  0.00    +0.000 A 
ATOM      7  N   UNL     1      45.051   5.031  12.230  0.00  0.00    +0.000 NA
ATOM      8  H   UNL     1      44.903   1.900  11.778  0.00  0.00    +0.000 HD
ENDROOT
BRANCH   6   9
ATOM      9  C   UNL     1      45.625   7.321  12.773  0.00  0.00    +0.000 C 
ATOM     10  N   UNL     1      44.523   7.660  12.036  0.00  0.00    +0.000 N 
ATOM     11  O   UNL     1      46.355   8.167  13.273  0.00  0.00    +0.000 OA
ATOM     12  H   UNL     1      43.903   6.936  11.698  0.00  0.00    +0.000 HD
ATOM     13  H   UNL     1      44.267   8.634  11.946  0.00  0.00    +0.000 HD
ENDBRANCH   6   9
BRANCH   1  14
ATOM     14  C   UNL     1      43.896   3.221  10.482  0.00  0.00    +0.000 C 
BRANCH  14  18
ATOM     15  C   UNL     1      46.608   2.510   7.239  0.00  0.00    +0.000 A 
ATOM     16  C   UNL     1      46.159   3.810   7.484  0.00  0.00    +0.000 A 
ATOM     17  C   UNL     1      45.299   4.063   8.553  0.00  0.00    +0.000 A 
ATOM     18  C   UNL     1      44.886   2.998   9.352  0.00  0.00    +0.000 A 
ATOM     19  N   UNL     1      45.323   1.729   9.142  0.00  0.00    +0.000 NA
ATOM     20  C   UNL     1      46.167   1.518   8.106  0.00  0.00    +0.000 A 
BRANCH  15  21
ATOM     21  C   UNL     1      47.490   2.183   6.068  0.00  0.00    +0.000 C 
BRANCH  21  22
ATOM     22  N   UNL     1      48.870   2.600   6.290  0.00  0.00    +0.000 NA
ATOM     23  H   UNL     1      49.089   3.373   5.664  0.00  0.00    +0.000 HD
ATOM     24  H   UNL     1      49.492   1.837   6.027  0.00  0.00    +0.000 HD
ENDBRANCH  21  22
ENDBRANCH  15  21
ENDBRANCH  14  18
ENDBRANCH   1  14
TORSDOF 5
ENDMDL
MODEL 2
REMARK VINA RESULT:    -7.279      1.251      1.524
REMARK INTER + INTRA:          -9.657
REMARK INTER:                  -9.249
REMARK INTRA:                  -0.408
REMARK UNBOUND:                -0.463
REMARK  Name = 
REMARK  5 active torsions:
REMARK  status: ('A' for Active; 'I' for Inactive)
REMARK    1  A    between atoms: N_1  and  C_2
REMARK    2  A    between atoms: C_2  and  C_3
REMARK    3  A    between atoms: C_6  and  C_7
REMARK    4  A    between atoms: C_7  and  N_8
REMARK    5  A    between atoms: C_13  and  C_14
REMARK                            x       y       z     vdW  Elec       q    Type
REMARK                         _______ _______ _______ _____ _____    ______ ____
ROOT
ATOM      1  N   UNL     1      44.680   3.899  11.862  0.00  0.00    +0.000 N 
ATOM      2  C   UNL     1      45.189   5.164  12.087  0.00  0.00    +0.000 A 
ATOM      3  N   UNL     1      46.315   5.215  12.812  0.00  0.00    +0.000 NA
ATOM      4  C   UNL     1      46.822   6.432  13.096  0.00  0.00    +0.000 A 
ATOM      5  C   UNL     1      46.255   7.601  12.675  0.00  0.00    +0.000 A 
ATOM      6  C   UNL     1      45.114   7.442  11.924  0.00  0.00    +0.000 A 
ATOM      7  N   UNL     1      44.567   6.243  11.607  0.00  0.00    +0.000 NA
ATOM      8  H   UNL     1      45.409   3.224  12.057  0.00  0.00    +0.000 HD
ENDROOT
BRANCH   6   9
ATOM      9  C   UNL     1      44.402   8.653  11.410  0.00  0.00    +0.000 C 
ATOM     10  N   UNL     1      43.132   8.438  10.950  0.00  0.00    +0.000 N 
ATOM     11  O   UNL     1      44.914   9.764  11.405  0.00  0.00    +0.000 OA
ATOM     12  H   UNL     1      42.714   7.520  11.036  0.00  0.00    +0.000 HD
ATOM     13  H   UNL     1      42.574   9.226  10.648  0.00  0.00    +0.000 HD
ENDBRANCH   6   9
BRANCH   1  14
ATOM     14  C   UNL     1      43.961   3.731  10.613  0.00  0.00    +0.000 C 
BRANCH  14  18
ATOM     15  C   UNL     1      46.510   2.617   7.352  0.00  0.00    +0.000 A 
ATOM     16  C   UNL     1      46.146   3.957   7.511  0.00  0.00    +0.000 A 
ATOM     17  C   UNL     1      45.342   4.340   8.584  0.00  0.00    +0.000 A 
ATOM     18  C   UNL     1      44.896   3.365   9.474  0.00  0.00    +0.000 A 
ATOM     19  N   UNL     1      45.249   2.060   9.347  0.00  0.00    +0.000 NA
ATOM     20  C   UNL     1      46.042   1.721   8.305  0.00  0.00    +0.000 A 
BRANCH  15  21
ATOM     21  C   UNL     1      47.329   2.151   6.183  0.00  0.00    +0.000 C 
BRANCH  21  22
ATOM     22  N   UNL     1      48.731   2.531   6.311  0.00  0.00    +0.000 NA
ATOM     23  H   UNL     1      49.309   1.839   5.838  0.00  0.00    +0.000 HD
ATOM     24  H   UNL     1      48.995   2.496   7.295  0.00  0.00    +0.000 HD
ENDBRANCH  21  22
ENDBRANCH  15  21
ENDBRANCH  14  18
ENDBRANCH   1  14
TORSDOF 5
ENDMDL
MODEL 3
REMARK VINA RESULT:    -6.461      4.024      7.443
REMARK INTER + INTRA:          -8.624
REMARK INTER:                  -8.306
REMARK INTRA:                  -0.319
REMARK UNBOUND:                -0.463
REMARK  Name = 
REMARK  5 active torsions:
REMARK  status: ('A' for Active; 'I' for Inactive)
REMARK    1  A    between atoms: N_1  and  C_2
REMARK    2  A    between atoms: C_2  and  C_3
REMARK    3  A    between atoms: C_6  and  C_7
REMARK    4  A    between atoms: C_7  and  N_8
REMARK    5  A    between atoms: C_13  and  C_14
REMARK                            x       y       z     vdW  Elec       q    Type
REMARK                         _______ _______ _______ _____ _____    ______ ____
ROOT
ATOM      1  N   UNL     1      47.286   5.114  15.436  0.00  0.00    +0.000 N 
ATOM      2  C   UNL     1      46.737   5.187  14.170  0.00  0.00    +0.000 A 
ATOM      3  N   UNL     1      47.346   6.025  13.320  0.00  0.00    +0.000 NA
ATOM      4  C   UNL     1      46.815   6.162  12.089  0.00  0.00    +0.000 A 
ATOM      5  C   UNL     1      45.705   5.487  11.666  0.00  0.00    +0.000 A 
ATOM      6  C   UNL     1      45.165   4.639  12.605  0.00  0.00    +0.000 A 
ATOM      7  N   UNL     1      45.661   4.462  13.853  0.00  0.00    +0.000 NA
ATOM      8  H   UNL     1      48.219   5.506  15.400  0.00  0.00    +0.000 HD
ENDROOT
BRANCH   6   9
ATOM      9  C   UNL     1      43.944   3.848  12.257  0.00  0.00    +0.000 C 
ATOM     10  N   UNL     1      44.018   2.506  12.515  0.00  0.00    +0.000 N 
ATOM     11  O   UNL     1      42.940   4.362  11.780  0.00  0.00    +0.000 OA
ATOM     12  H   UNL     1      44.835   2.128  12.977  0.00  0.00    +0.000 HD
ATOM     13  H   UNL     1      43.204   1.926  12.363  0.00  0.00    +0.000 HD
ENDBRANCH   6   9
BRANCH   1  14
ATOM     14  C   UNL     1      47.149   3.832  16.101  0.00  0.00    +0.000 C 
BRANCH  14  18
ATOM     15  C   UNL     1      50.959   2.377  17.419  0.00  0.00    +0.000 A 
ATOM     16  C   UNL     1      50.531   3.642  17.827  0.00  0.00    +0.000 A 
ATOM     17  C   UNL     1      49.281   4.118  17.432  0.00  0.00    +0.000 A 
ATOM     18  C   UNL     1      48.485   3.321  16.611  0.00  0.00    +0.000 A 
ATOM     19  N   UNL     1      48.875   2.082  16.214  0.00  0.00    +0.000 NA
ATOM     20  C   UNL     1      50.087   1.642  16.626  0.00  0.00    +0.000 A 
BRANCH  15  21
ATOM     21  C   UNL     1      52.319   1.847  17.776  0.00  0.00    +0.000 C 
BRANCH  21  22
ATOM     22  N   UNL     1      52.276   0.435  18.140  0.00  0.00    +0.000 NA
ATOM     23  H   UNL     1      52.554   0.334  19.115  0.00  0.00    +0.000 HD
ATOM     24  H   UNL     1      52.973  -0.069  17.593  0.00  0.00    +0.000 HD
ENDBRANCH  21  22
ENDBRANCH  15  21
ENDBRANCH  14  18
ENDBRANCH   1  14
TORSDOF 5
ENDMDL
MODEL 4
REMARK VINA RESULT:    -6.316      4.046      5.863
REMARK INTER + INTRA:          -8.441
REMARK INTER:                  -8.144
REMARK INTRA:                  -0.297
REMARK UNBOUND:                -0.463
REMARK  Name = 
REMARK  5 active torsions:
REMARK  status: ('A' for Active; 'I' for Inactive)
REMARK    1  A    between atoms: N_1  and  C_2
REMARK    2  A    between atoms: C_2  and  C_3
REMARK    3  A    between atoms: C_6  and  C_7
REMARK    4  A    between atoms: C_7  and  N_8
REMARK    5  A    between atoms: C_13  and  C_14
REMARK                            x       y       z     vdW  Elec       q    Type
REMARK                         _______ _______ _______ _____ _____    ______ ____
ROOT
ATOM      1  N   UNL     1      47.415   3.161  15.472  0.00  0.00    +0.000 N 
ATOM      2  C   UNL     1      48.574   3.072  16.218  0.00  0.00    +0.000 A 
ATOM      3  N   UNL     1      49.272   1.937  16.074  0.00  0.00    +0.000 NA
ATOM      4  C   UNL     1      50.386   1.790  16.819  0.00  0.00    +0.000 A 
ATOM      5  C   UNL     1      50.838   2.735  17.696  0.00  0.00    +0.000 A 
ATOM      6  C   UNL     1      50.062   3.869  17.758  0.00  0.00    +0.000 A 
ATOM      7  N   UNL     1      48.938   4.069  17.029  0.00  0.00    +0.000 NA
ATOM      8  H   UNL     1      47.453   2.459  14.742  0.00  0.00    +0.000 HD
ENDROOT
BRANCH   6   9
ATOM      9  C   UNL     1      50.456   4.973  18.687  0.00  0.00    +0.000 C 
ATOM     10  N   UNL     1      50.559   4.624  20.007  0.00  0.00    +0.000 N 
ATOM     11  O   UNL     1      50.679   6.112  18.299  0.00  0.00    +0.000 OA
ATOM     12  H   UNL     1      50.439   3.658  20.282  0.00  0.00    +0.000 HD
ATOM     13  H   UNL     1      50.883   5.308  20.676  0.00  0.00    +0.000 HD
ENDBRANCH   6   9
BRANCH   1  14
ATOM     14  C   UNL     1      47.039   4.500  15.061  0.00  0.00    +0.000 C 
BRANCH  14  18
ATOM     15  C   UNL     1      45.140   4.480  11.219  0.00  0.00    +0.000 A 
ATOM     16  C   UNL     1      45.720   5.660  11.690  0.00  0.00    +0.000 A 
ATOM     17  C   UNL     1      46.368   5.676  12.925  0.00  0.00    +0.000 A 
ATOM     18  C   UNL     1      46.406   4.506  13.681  0.00  0.00    +0.000 A 
ATOM     19  N   UNL     1      45.861   3.344  13.236  0.00  0.00    +0.000 NA
ATOM     20  C   UNL     1      45.252   3.356  12.028  0.00  0.00    +0.000 A 
BRANCH  15  21
ATOM     21  C   UNL     1      44.386   4.430   9.921  0.00  0.00    +0.000 C 
BRANCH  21  22
ATOM     22  N   UNL     1      45.187   4.918   8.804  0.00  0.00    +0.000 NA
ATOM     23  H   UNL     1      44.901   5.869   8.579  0.00  0.00    +0.000 HD
ATOM     24  H   UNL     1      44.982   4.356   7.979  0.00  0.00    +0.000 HD
ENDBRANCH  21  22
ENDBRANCH  15  21
ENDBRANCH  14  18
ENDBRANCH   1  14
TORSDOF 5
ENDMDL
MODEL 5
REMARK VINA RESULT:    -6.245      3.905      8.016
REMARK INTER + INTRA:          -8.351
REMARK INTER:                  -8.068
REMARK INTRA:                  -0.284
REMARK UNBOUND:                -0.463
REMARK  Name = 
REMARK  5 active torsions:
REMARK  status: ('A' for Active; 'I' for Inactive)
REMARK    1  A    between atoms: N_1  and  C_2
REMARK    2  A    between atoms: C_2  and  C_3
REMARK    3  A    between atoms: C_6  and  C_7
REMARK    4  A    between atoms: C_7  and  N_8
REMARK    5  A    between atoms: C_13  and  C_14
REMARK                            x       y       z     vdW  Elec       q    Type
REMARK                         _______ _______ _______ _____ _____    ______ ____
ROOT
ATOM      1  N   UNL     1      46.659   5.198  14.264  0.00  0.00    +0.000 N 
ATOM      2  C   UNL     1      46.069   5.143  13.015  0.00  0.00    +0.000 A 
ATOM      3  N   UNL     1      46.194   6.246  12.265  0.00  0.00    +0.000 NA
ATOM      4  C   UNL     1      45.594   6.252  11.058  0.00  0.00    +0.000 A 
ATOM      5  C   UNL     1      44.883   5.196  10.563  0.00  0.00    +0.000 A 
ATOM      6  C   UNL     1      44.828   4.106  11.400  0.00  0.00    +0.000 A 
ATOM      7  N   UNL     1      45.416   4.047  12.620  0.00  0.00    +0.000 NA
ATOM      8  H   UNL     1      47.315   5.970  14.271  0.00  0.00    +0.000 HD
ENDROOT
BRANCH   6   9
ATOM      9  C   UNL     1      44.073   2.890  10.968  0.00  0.00    +0.000 C 
ATOM     10  N   UNL     1      44.636   2.182   9.941  0.00  0.00    +0.000 N 
ATOM     11  O   UNL     1      43.025   2.543  11.497  0.00  0.00    +0.000 OA
ATOM     12  H   UNL     1      45.539   2.456   9.576  0.00  0.00    +0.000 HD
ATOM     13  H   UNL     1      44.209   1.315   9.644  0.00  0.00    +0.000 HD
ENDBRANCH   6   9
BRANCH   1  14
ATOM     14  C   UNL     1      47.144   3.932  14.780  0.00  0.00    +0.000 C 
BRANCH  14  18
ATOM     15  C   UNL     1      48.721   4.466  18.730  0.00  0.00    +0.000 A 
ATOM     16  C   UNL     1      48.018   3.298  18.425  0.00  0.00    +0.000 A 
ATOM     17  C   UNL     1      47.524   3.096  17.136  0.00  0.00    +0.000 A 
ATOM     18  C   UNL     1      47.727   4.083  16.174  0.00  0.00    +0.000 A 
ATOM     19  N   UNL     1      48.422   5.219  16.444  0.00  0.00    +0.000 NA
ATOM     20  C   UNL     1      48.901   5.380  17.699  0.00  0.00    +0.000 A 
BRANCH  15  21
ATOM     21  C   UNL     1      49.223   4.750  20.116  0.00  0.00    +0.000 C 
BRANCH  21  22
ATOM     22  N   UNL     1      48.275   4.323  21.139  0.00  0.00    +0.000 NA
ATOM     23  H   UNL     1      47.718   5.124  21.432  0.00  0.00    +0.000 HD
ATOM     24  H   UNL     1      48.791   4.020  21.964  0.00  0.00    +0.000 HD
ENDBRANCH  21  22
ENDBRANCH  15  21
ENDBRANCH  14  18
ENDBRANCH   1  14
TORSDOF 5
ENDMDL
MODEL 6
REMARK VINA RESULT:    -6.195      3.382      7.422
REMARK INTER + INTRA:          -8.288
REMARK INTER:                  -8.011
REMARK INTRA:                  -0.277
REMARK UNBOUND:                -0.463
REMARK  Name = 
REMARK  5 active torsions:
REMARK  status: ('A' for Active; 'I' for Inactive)
REMARK    1  A    between atoms: N_1  and  C_2
REMARK    2  A    between atoms: C_2  and  C_3
REMARK    3  A    between atoms: C_6  and  C_7
REMARK    4  A    between atoms: C_7  and  N_8
REMARK    5  A    between atoms: C_13  and  C_14
REMARK                            x       y       z     vdW  Elec       q    Type
REMARK                         _______ _______ _______ _____ _____    ______ ____
ROOT
ATOM      1  N   UNL     1      45.416   4.559  14.022  0.00  0.00    +0.000 N 
ATOM      2  C   UNL     1      44.702   4.781  12.860  0.00  0.00    +0.000 A 
ATOM      3  N   UNL     1      43.439   5.197  13.026  0.00  0.00    +0.000 NA
ATOM      4  C   UNL     1      42.691   5.381  11.919  0.00  0.00    +0.000 A 
ATOM      5  C   UNL     1      43.157   5.177  10.651  0.00  0.00    +0.000 A 
ATOM      6  C   UNL     1      44.468   4.768  10.587  0.00  0.00    +0.000 A 
ATOM      7  N   UNL     1      45.264   4.573  11.667  0.00  0.00    +0.000 NA
ATOM      8  H   UNL     1      44.932   5.019  14.784  0.00  0.00    +0.000 HD
ENDROOT
BRANCH   6   9
ATOM      9  C   UNL     1      45.088   4.509   9.251  0.00  0.00    +0.000 C 
ATOM     10  N   UNL     1      44.574   3.446   8.560  0.00  0.00    +0.000 N 
ATOM     11  O   UNL     1      45.991   5.201   8.798  0.00  0.00    +0.000 OA
ATOM     12  H   UNL     1      43.780   2.941   8.932  0.00  0.00    +0.000 HD
ATOM     13  H   UNL     1      44.905   3.256   7.623  0.00  0.00    +0.000 HD
ENDBRANCH   6   9
BRANCH   1  14
ATOM     14  C   UNL     1      46.845   4.791  13.929  0.00  0.00    +0.000 C 
BRANCH  14  18
ATOM     15  C   UNL     1      48.720   4.525  17.774  0.00  0.00    +0.000 A 
ATOM     16  C   UNL     1      47.740   3.593  17.424  0.00  0.00    +0.000 A 
ATOM     17  C   UNL     1      47.141   3.648  16.165  0.00  0.00    +0.000 A 
ATOM     18  C   UNL     1      47.523   4.655  15.281  0.00  0.00    +0.000 A 
ATOM     19  N   UNL     1      48.484   5.562  15.595  0.00  0.00    +0.000 NA
ATOM     20  C   UNL     1      49.056   5.475  16.818  0.00  0.00    +0.000 A 
BRANCH  15  21
ATOM     21  C   UNL     1      49.351   4.537  19.137  0.00  0.00    +0.000 C 
BRANCH  21  22
ATOM     22  N   UNL     1      48.629   3.693  20.081  0.00  0.00    +0.000 NA
ATOM     23  H   UNL     1      49.292   3.291  20.743  0.00  0.00    +0.000 HD
ATOM     24  H   UNL     1      48.220   2.907  19.577  0.00  0.00    +0.000 HD
ENDBRANCH  21  22
ENDBRANCH  15  21
ENDBRANCH  14  18
ENDBRANCH   1  14
TORSDOF 5
ENDMDL
MODEL 7
REMARK VINA RESULT:    -6.180      4.495      6.720
REMARK INTER + INTRA:          -8.269
REMARK INTER:                  -7.983
REMARK INTRA:                  -0.286
REMARK UNBOUND:                -0.463
REMARK  Name = 
REMARK  5 active torsions:
REMARK  status: ('A' for Active; 'I' for Inactive)
REMARK    1  A    between atoms: N_1  and  C_2
REMARK    2  A    between atoms: C_2  and  C_3
REMARK    3  A    between atoms: C_6  and  C_7
REMARK    4  A    between atoms: C_7  and  N_8
REMARK    5  A    between atoms: C_13  and  C_14
REMARK                            x       y       z     vdW  Elec       q    Type
REMARK                         _______ _______ _______ _____ _____    ______ ____
ROOT
ATOM      1  N   UNL     1      47.389   5.267  15.646  0.00  0.00    +0.000 N 
ATOM      2  C   UNL     1      48.115   4.774  16.714  0.00  0.00    +0.000 A 
ATOM      3  N   UNL     1      47.869   5.351  17.899  0.00  0.00    +0.000 NA
ATOM      4  C   UNL     1      48.588   4.932  18.959  0.00  0.00    +0.000 A 
ATOM      5  C   UNL     1      49.536   3.951  18.888  0.00  0.00    +0.000 A 
ATOM      6  C   UNL     1      49.701   3.410  17.634  0.00  0.00    +0.000 A 
ATOM      7  N   UNL     1      49.002   3.792  16.538  0.00  0.00    +0.000 NA
ATOM      8  H   UNL     1      46.603   5.791  16.012  0.00  0.00    +0.000 HD
ENDROOT
BRANCH   6   9
ATOM      9  C   UNL     1      50.715   2.330  17.432  0.00  0.00    +0.000 C 
ATOM     10  N   UNL     1      51.856   2.445  18.180  0.00  0.00    +0.000 N 
ATOM     11  O   UNL     1      50.540   1.399  16.656  0.00  0.00    +0.000 OA
ATOM     12  H   UNL     1      51.935   3.186  18.864  0.00  0.00    +0.000 HD
ATOM     13  H   UNL     1      52.552   1.714  18.137  0.00  0.00    +0.000 HD
ENDBRANCH   6   9
BRANCH   1  14
ATOM     14  C   UNL     1      47.096   4.309  14.597  0.00  0.00    +0.000 C 
BRANCH  14  18
ATOM     15  C   UNL     1      43.870   5.666  12.123  0.00  0.00    +0.000 A 
ATOM     16  C   UNL     1      44.916   6.541  12.425  0.00  0.00    +0.000 A 
ATOM     17  C   UNL     1      45.989   6.106  13.204  0.00  0.00    +0.000 A 
ATOM     18  C   UNL     1      45.983   4.799  13.688  0.00  0.00    +0.000 A 
ATOM     19  N   UNL     1      44.984   3.927  13.395  0.00  0.00    +0.000 NA
ATOM     20  C   UNL     1      43.965   4.374  12.625  0.00  0.00    +0.000 A 
BRANCH  15  21
ATOM     21  C   UNL     1      42.670   6.107  11.335  0.00  0.00    +0.000 C 
BRANCH  21  22
ATOM     22  N   UNL     1      42.694   7.539  11.058  0.00  0.00    +0.000 NA
ATOM     23  H   UNL     1      42.715   8.049  11.940  0.00  0.00    +0.000 HD
ATOM     24  H   UNL     1      41.824   7.802  10.599  0.00  0.00    +0.000 HD
ENDBRANCH  21  22
ENDBRANCH  15  21
ENDBRANCH  14  18
ENDBRANCH   1  14
TORSDOF 5
ENDMDL
MODEL 8
REMARK VINA RESULT:    -6.118      3.538      4.981
REMARK INTER + INTRA:          -8.191
REMARK INTER:                  -7.916
REMARK INTRA:                  -0.275
REMARK UNBOUND:                -0.463
REMARK  Name = 
REMARK  5 active torsions:
REMARK  status: ('A' for Active; 'I' for Inactive)
REMARK    1  A    between atoms: N_1  and  C_2
REMARK    2  A    between atoms: C_2  and  C_3
REMARK    3  A    between atoms: C_6  and  C_7
REMARK    4  A    between atoms: C_7  and  N_8
REMARK    5  A    between atoms: C_13  and  C_14
REMARK                            x       y       z     vdW  Elec       q    Type
REMARK                         _______ _______ _______ _____ _____    ______ ____
ROOT
ATOM      1  N   UNL     1      46.915   3.624  14.756  0.00  0.00    +0.000 N 
ATOM      2  C   UNL     1      47.567   3.735  15.970  0.00  0.00    +0.000 A 
ATOM      3  N   UNL     1      48.472   2.781  16.231  0.00  0.00    +0.000 NA
ATOM      4  C   UNL     1      49.099   2.824  17.423  0.00  0.00    +0.000 A 
ATOM      5  C   UNL     1      48.867   3.788  18.363  0.00  0.00    +0.000 A 
ATOM      6  C   UNL     1      47.935   4.729  17.994  0.00  0.00    +0.000 A 
ATOM      7  N   UNL     1      47.280   4.734  16.808  0.00  0.00    +0.000 NA
ATOM      8  H   UNL     1      47.444   2.992  14.168  0.00  0.00    +0.000 HD
ENDROOT
BRANCH   6   9
ATOM      9  C   UNL     1      47.595   5.832  18.944  0.00  0.00    +0.000 C 
ATOM     10  N   UNL     1      47.054   5.436  20.138  0.00  0.00    +0.000 N 
ATOM     11  O   UNL     1      47.790   7.012  18.681  0.00  0.00    +0.000 OA
ATOM     12  H   UNL     1      46.975   4.450  20.350  0.00  0.00    +0.000 HD
ATOM     13  H   UNL     1      46.862   6.129  20.849  0.00  0.00    +0.000 HD
ENDBRANCH   6   9
BRANCH   1  14
ATOM     14  C   UNL     1      46.505   4.879  14.153  0.00  0.00    +0.000 C 
BRANCH  14  18
ATOM     15  C   UNL     1      44.987   4.312  10.186  0.00  0.00    +0.000 A 
ATOM     16  C   UNL     1      44.894   3.269  11.110  0.00  0.00    +0.000 A 
ATOM     17  C   UNL     1      45.356   3.447  12.414  0.00  0.00    +0.000 A 
ATOM     18  C   UNL     1      45.926   4.669  12.766  0.00  0.00    +0.000 A 
ATOM     19  N   UNL     1      46.013   5.702  11.887  0.00  0.00    +0.000 NA
ATOM     20  C   UNL     1      45.542   5.503  10.634  0.00  0.00    +0.000 A 
BRANCH  15  21
ATOM     21  C   UNL     1      44.552   4.146   8.758  0.00  0.00    +0.000 C 
BRANCH  21  22
ATOM     22  N   UNL     1      45.665   4.291   7.827  0.00  0.00    +0.000 NA
ATOM     23  H   UNL     1      45.989   3.366   7.548  0.00  0.00    +0.000 HD
ATOM     24  H   UNL     1      46.446   4.731   8.311  0.00  0.00    +0.000 HD
ENDBRANCH  21  22
ENDBRANCH  15  21
ENDBRANCH  14  18
ENDBRANCH   1  14
TORSDOF 5
ENDMDL
MODEL 9
REMARK VINA RESULT:    -5.846      3.878      7.385
REMARK INTER + INTRA:          -7.848
REMARK INTER:                  -7.520
REMARK INTRA:                  -0.327
REMARK UNBOUND:                -0.463
REMARK  Name = 
REMARK  5 active torsions:
REMARK  status: ('A' for Active; 'I' for Inactive)
REMARK    1  A    between atoms: N_1  and  C_2
REMARK    2  A    between atoms: C_2  and  C_3
REMARK    3  A    between atoms: C_6  and  C_7
REMARK    4  A    between atoms: C_7  and  N_8
REMARK    5  A    between atoms: C_13  and  C_14
REMARK                            x       y       z     vdW  Elec       q    Type
REMARK                         _______ _______ _______ _____ _____    ______ ____
ROOT
ATOM      1  N   UNL     1      47.067   3.463  14.664  0.00  0.00    +0.000 N 
ATOM      2  C   UNL     1      46.331   4.145  13.713  0.00  0.00    +0.000 A 
ATOM      3  N   UNL     1      45.634   3.380  12.862  0.00  0.00    +0.000 NA
ATOM      4  C   UNL     1      44.939   4.003  11.888  0.00  0.00    +0.000 A 
ATOM      5  C   UNL     1      44.903   5.360  11.737  0.00  0.00    +0.000 A 
ATOM      6  C   UNL     1      45.636   6.055  12.670  0.00  0.00    +0.000 A 
ATOM      7  N   UNL     1      46.348   5.479  13.669  0.00  0.00    +0.000 NA
ATOM      8  H   UNL     1      46.721   2.513  14.711  0.00  0.00    +0.000 HD
ENDROOT
BRANCH   6   9
ATOM      9  C   UNL     1      45.676   7.549  12.602  0.00  0.00    +0.000 C 
ATOM     10  N   UNL     1      46.431   8.162  13.565  0.00  0.00    +0.000 N 
ATOM     11  O   UNL     1      45.080   8.185  11.743  0.00  0.00    +0.000 OA
ATOM     12  H   UNL     1      46.968   7.602  14.214  0.00  0.00    +0.000 HD
ATOM     13  H   UNL     1      46.551   9.165  13.536  0.00  0.00    +0.000 HD
ENDBRANCH   6   9
BRANCH   1  14
ATOM     14  C   UNL     1      47.238   4.152  15.930  0.00  0.00    +0.000 C 
BRANCH  14  18
ATOM     15  C   UNL     1      51.058   3.446  17.743  0.00  0.00    +0.000 A 
ATOM     16  C   UNL     1      50.239   2.359  17.425  0.00  0.00    +0.000 A 
ATOM     17  C   UNL     1      49.006   2.570  16.808  0.00  0.00    +0.000 A 
ATOM     18  C   UNL     1      48.603   3.877  16.535  0.00  0.00    +0.000 A 
ATOM     19  N   UNL     1      49.390   4.946  16.822  0.00  0.00    +0.000 NA
ATOM     20  C   UNL     1      50.586   4.708  17.407  0.00  0.00    +0.000 A 
BRANCH  15  21
ATOM     21  C   UNL     1      52.367   3.269  18.456  0.00  0.00    +0.000 C 
BRANCH  21  22
ATOM     22  N   UNL     1      52.768   1.868  18.525  0.00  0.00    +0.000 NA
ATOM     23  H   UNL     1      52.463   1.478  19.416  0.00  0.00    +0.000 HD
ATOM     24  H   UNL     1      53.785   1.814  18.524  0.00  0.00    +0.000 HD
ENDBRANCH  21  22
ENDBRANCH  15  21
ENDBRANCH  14  18
ENDBRANCH   1  14
TORSDOF 5
ENDMDL
