MODEL 1
REMARK VINA RESULT:    -7.930      0.000      0.000
REMARK INTER + INTRA:         -11.811
REMARK INTER:                 -10.943
REMARK INTRA:                  -0.868
REMARK UNBOUND:                -0.868
REMARK  Name = 
REMARK  7 active torsions:
REMARK  status: ('A' for Active; 'I' for Inactive)
REMARK    1  A    between atoms: N_1  and  C_2
REMARK    2  A    between atoms: C_2  and  C_3
REMARK    3  A    between atoms: C_7  and  C_8
REMARK    4  A    between atoms: C_8  and  C_9
REMARK    5  A    between atoms: C_9  and  O_10
REMARK    6  A    between atoms: O_10  and  C_11
REMARK    7  A    between atoms: C_14  and  C_15
REMARK                            x       y       z     vdW  Elec       q    Type
REMARK                         _______ _______ _______ _____ _____    ______ ____
ROOT
ATOM      1  C   UNL     1      43.313   4.996  10.577  0.00  0.00    +0.000 C 
ENDROOT
BRANCH   1   2
ATOM      2  C   UNL     1      43.387   5.465  12.032  0.00  0.00    +0.000 C 
BRANCH   2   7
ATOM      3  C   UNL     1      46.683   5.074  13.948  0.00  0.00    +0.000 A 
ATOM      4  C   UNL     1      47.546   5.828  13.141  0.00  0.00    +0.000 A 
ATOM      5  C   UNL     1      47.062   6.483  12.008  0.00  0.00    +0.000 A 
ATOM      6  C   UNL     1      45.713   6.391  11.664  0.00  0.00    +0.000 A 
ATOM      7  C   UNL     1      44.830   5.644  12.453  0.00  0.00    +0.000 A 
ATOM      8  C   UNL     1      45.325   4.994  13.595  0.00  0.00    +0.000 A 
BRANCH   3   9
ATOM      9  C   UNL     1      47.202   4.374  15.179  0.00  0.00    +0.000 C 
BRANCH   9  10
ATOM     10  N   UNL     1      47.688   3.032  14.872  0.00  0.00    +0.000 NA
ATOM     11  H   UNL     1      47.380   2.393  15.605  0.00  0.00    +0.000 HD
ATOM     12  H   UNL     1      48.706   3.039  14.908  0.00  0.00    +0.000 HD
ENDBRANCH   9  10
ENDBRANCH   3   9
ENDBRANCH   2   7
ENDBRANCH   1   2
BRANCH   1  13
ATOM     13  O   UNL     1      43.546   3.582  10.484  0.00  0.00    +0.000 OA
BRANCH  13  14
ATOM     14  C   UNL     1      44.476   3.223   9.537  0.00  0.00    +0.000 A 
ATOM     15  C   UNL     1      44.908   1.914   9.309  0.00  0.00    +0.000 A 
ATOM     16  C   UNL     1      45.882   1.643   8.345  0.00  0.00    +0.000 A 
ATOM     17  C   UNL     1      46.425   2.679   7.577  0.00  0.00    +0.000 A 
ATOM     18  C   UNL     1      45.973   3.989   7.775  0.00  0.00    +0.000 A 
ATOM     19  C   UNL     1      44.996   4.253   8.749  0.00  0.00    +0.000 A 
BRANCH  17  20
ATOM     20  C   UNL     1      47.487   2.321   6.600  0.00  0.00    +0.000 C 
ATOM     21  N   UNL     1      47.508   2.987   5.408  0.00  0.00    +0.000 N 
ATOM     22  O   UNL     1      48.299   1.434   6.833  0.00  0.00    +0.000 OA
ATOM     23  H   UNL     1      46.728   3.536   5.076  0.00  0.00    +0.000 HD
ATOM     24  H   UNL     1      48.164   2.636   4.721  0.00  0.00    +0.000 HD
ENDBRANCH  17  20
ENDBRANCH  13  14
ENDBRANCH   1  13
TORSDOF 7
ENDMDL
MODEL 2
REMARK VINA RESULT:    -7.802      1.902      2.671
REMARK INTER + INTRA:         -11.634
REMARK INTER:                 -10.841
REMARK INTRA:                  -0.793
REMARK UNBOUND:                -0.868
REMARK  Name = 
REMARK  7 active torsions:
REMARK  status: ('A' for Active; 'I' for Inactive)
REMARK    1  A    between atoms: N_1  and  C_2
REMARK    2  A    between atoms: C_2  and  C_3
REMARK    3  A    between atoms: C_7  and  C_8
REMARK    4  A    between atoms: C_8  and  C_9
REMARK    5  A    between atoms: C_9  and  O_10
REMARK    6  A    between atoms: O_10  and  C_11
REMARK    7  A    between atoms: C_14  and  C_15
REMARK                            x       y       z     vdW  Elec       q    Type
REMARK                         _______ _______ _______ _____ _____    ______ ____
ROOT
ATOM      1  C   UNL     1      43.621   2.944  11.714  0.00  0.00    +0.000 C 
ENDROOT
BRANCH   1   2
ATOM      2  C   UNL     1      43.477   3.992  12.819  0.00  0.00    +0.000 C 
BRANCH   2   7
ATOM      3  C   UNL     1      45.488   7.219  12.338  0.00  0.00    +0.000 A 
ATOM      4  C   UNL     1      46.733   6.831  12.851  0.00  0.00    +0.000 A 
ATOM      5  C   UNL     1      46.931   5.531  13.318  0.00  0.00    +0.000 A 
ATOM      6  C   UNL     1      45.889   4.604  13.281  0.00  0.00    +0.000 A 
ATOM      7  C   UNL     1      44.635   4.966  12.773  0.00  0.00    +0.000 A 
ATOM      8  C   UNL     1      44.448   6.274  12.300  0.00  0.00    +0.000 A 
BRANCH   3   9
ATOM      9  C   UNL     1      45.275   8.621  11.823  0.00  0.00    +0.000 C 
BRANCH   9  10
ATOM     10  N   UNL     1      44.805   9.517  12.875  0.00  0.00    +0.000 NA
ATOM     11  H   UNL     1      44.778  10.468  12.511  0.00  0.00    +0.000 HD
ATOM     12  H   UNL     1      45.488   9.518  13.630  0.00  0.00    +0.000 HD
ENDBRANCH   9  10
ENDBRANCH   3   9
ENDBRANCH   2   7
ENDBRANCH   1   2
BRANCH   1  13
ATOM     13  O   UNL     1      43.400   3.530  10.422  0.00  0.00    +0.000 OA
BRANCH  13  14
ATOM     14  C   UNL     1      44.405   3.296   9.514  0.00  0.00    +0.000 A 
ATOM     15  C   UNL     1      45.055   4.292   8.780  0.00  0.00    +0.000 A 
ATOM     16  C   UNL     1      46.046   3.961   7.853  0.00  0.00    +0.000 A 
ATOM     17  C   UNL     1      46.418   2.626   7.661  0.00  0.00    +0.000 A 
ATOM     18  C   UNL     1      45.796   1.625   8.417  0.00  0.00    +0.000 A 
ATOM     19  C   UNL     1      44.798   1.966   9.345  0.00  0.00    +0.000 A 
BRANCH  17  20
ATOM     20  C   UNL     1      47.451   2.346   6.628  0.00  0.00    +0.000 C 
ATOM     21  N   UNL     1      47.429   3.096   5.487  0.00  0.00    +0.000 N 
ATOM     22  O   UNL     1      48.273   1.450   6.771  0.00  0.00    +0.000 OA
ATOM     23  H   UNL     1      46.637   3.661   5.220  0.00  0.00    +0.000 HD
ATOM     24  H   UNL     1      48.065   2.799   4.756  0.00  0.00    +0.000 HD
ENDBRANCH  17  20
ENDBRANCH  13  14
ENDBRANCH   1  13
TORSDOF 7
ENDMDL
MODEL 3
REMARK VINA RESULT:    -7.204      2.568      6.033
REMARK INTER + INTRA:         -10.808
REMARK INTER:                  -9.836
REMARK INTRA:                  -0.973
REMARK UNBOUND:                -0.868
REMARK  Name = 
REMARK  7 active torsions:
REMARK  status: ('A' for Active; 'I' for Inactive)
REMARK    1  A    between atoms: N_1  and  C_2
REMARK    2  A    between atoms: C_2  and  C_3
REMARK    3  A    between atoms: C_7  and  C_8
REMARK    4  A    between atoms: C_8  and  C_9
REMARK    5  A    between atoms: C_9  and  O_10
REMARK    6  A    between atoms: O_10  and  C_11
REMARK    7  A    between atoms: C_14  and  C_15
REMARK                            x       y       z     vdW  Elec       q    Type
REMARK                         _______ _______ _______ _____ _____    ______ ____
ROOT
ATOM      1  C   UNL     1      43.344   4.097  11.031  0.00  0.00    +0.000 C 
ENDROOT
BRANCH   1   2
ATOM      2  C   UNL     1      43.962   2.767  10.593  0.00  0.00    +0.000 C 
BRANCH   2   7
ATOM      3  C   UNL     1      46.453   2.095   7.758  0.00  0.00    +0.000 A 
ATOM      4  C   UNL     1      46.696   3.400   7.309  0.00  0.00    +0.000 A 
ATOM      5  C   UNL     1      46.088   4.488   7.935  0.00  0.00    +0.000 A 
ATOM      6  C   UNL     1      45.227   4.288   9.015  0.00  0.00    +0.000 A 
ATOM      7  C   UNL     1      44.967   2.994   9.484  0.00  0.00    +0.000 A 
ATOM      8  C   UNL     1      45.589   1.906   8.851  0.00  0.00    +0.000 A 
BRANCH   3   9
ATOM      9  C   UNL     1      47.117   0.918   7.089  0.00  0.00    +0.000 C 
BRANCH   9  10
ATOM     10  N   UNL     1      46.799  -0.337   7.764  0.00  0.00    +0.000 NA
ATOM     11  H   UNL     1      46.401  -0.129   8.679  0.00  0.00    +0.000 HD
ATOM     12  H   UNL     1      47.667  -0.842   7.936  0.00  0.00    +0.000 HD
ENDBRANCH   9  10
ENDBRANCH   3   9
ENDBRANCH   2   7
ENDBRANCH   1   2
BRANCH   1  13
ATOM     13  O   UNL     1      43.615   4.354  12.417  0.00  0.00    +0.000 OA
BRANCH  13  14
ATOM     14  C   UNL     1      44.819   4.973  12.653  0.00  0.00    +0.000 A 
ATOM     15  C   UNL     1      45.891   4.388  13.333  0.00  0.00    +0.000 A 
ATOM     16  C   UNL     1      47.069   5.103  13.557  0.00  0.00    +0.000 A 
ATOM     17  C   UNL     1      47.202   6.413  13.084  0.00  0.00    +0.000 A 
ATOM     18  C   UNL     1      46.146   6.996  12.373  0.00  0.00    +0.000 A 
ATOM     19  C   UNL     1      44.963   6.271  12.155  0.00  0.00    +0.000 A 
BRANCH  17  20
ATOM     20  C   UNL     1      48.469   7.127  13.397  0.00  0.00    +0.000 C 
ATOM     21  N   UNL     1      48.671   8.347  12.818  0.00  0.00    +0.000 N 
ATOM     22  O   UNL     1      49.323   6.629  14.119  0.00  0.00    +0.000 OA
ATOM     23  H   UNL     1      48.124   8.679  12.037  0.00  0.00    +0.000 HD
ATOM     24  H   UNL     1      49.591   8.749  12.953  0.00  0.00    +0.000 HD
ENDBRANCH  17  20
ENDBRANCH  13  14
ENDBRANCH   1  13
TORSDOF 7
ENDMDL
MODEL 4
REMARK VINA RESULT:    -6.997      2.131      6.716
REMARK INTER + INTRA:         -10.523
REMARK INTER:                  -9.909
REMARK INTRA:                  -0.615
REMARK UNBOUND:                -0.868
REMARK  Name = 
REMARK  7 active torsions:
REMARK  status: ('A' for Active; 'I' for Inactive)
REMARK    1  A    between atoms: N_1  and  C_2
REMARK    2  A    between atoms: C_2  and  C_3
REMARK    3  A    between atoms: C_7  and  C_8
REMARK    4  A    between atoms: C_8  and  C_9
REMARK    5  A    between atoms: C_9  and  O_10
REMARK    6  A    between atoms: O_10  and  C_11
REMARK    7  A    between atoms: C_14  and  C_15
REMARK                            x       y       z     vdW  Elec       q    Type
REMARK                         _______ _______ _______ _____ _____    ______ ____
ROOT
ATOM      1  C   UNL     1      43.724   4.026  10.408  0.00  0.00    +0.000 C 
ENDROOT
BRANCH   1   2
ATOM      2  C   UNL     1      44.363   4.497   9.100  0.00  0.00    +0.000 C 
BRANCH   2   7
ATOM      3  C   UNL     1      46.679   2.567   6.734  0.00  0.00    +0.000 A 
ATOM      4  C   UNL     1      46.667   1.299   7.332  0.00  0.00    +0.000 A 
ATOM      5  C   UNL     1      45.894   1.062   8.469  0.00  0.00    +0.000 A 
ATOM      6  C   UNL     1      45.126   2.085   9.024  0.00  0.00    +0.000 A 
ATOM      7  C   UNL     1      45.120   3.361   8.446  0.00  0.00    +0.000 A 
ATOM      8  C   UNL     1      45.896   3.588   7.299  0.00  0.00    +0.000 A 
BRANCH   3   9
ATOM      9  C   UNL     1      47.506   2.823   5.499  0.00  0.00    +0.000 C 
BRANCH   9  10
ATOM     10  N   UNL     1      48.506   1.780   5.292  0.00  0.00    +0.000 NA
ATOM     11  H   UNL     1      48.932   1.908   4.375  0.00  0.00    +0.000 HD
ATOM     12  H   UNL     1      48.033   0.878   5.265  0.00  0.00    +0.000 HD
ENDBRANCH   9  10
ENDBRANCH   3   9
ENDBRANCH   2   7
ENDBRANCH   1   2
BRANCH   1  13
ATOM     13  O   UNL     1      43.514   5.131  11.301  0.00  0.00    +0.000 OA
BRANCH  13  14
ATOM     14  C   UNL     1      44.640   5.537  11.975  0.00  0.00    +0.000 A 
ATOM     15  C   UNL     1      45.259   6.778  11.807  0.00  0.00    +0.000 A 
ATOM     16  C   UNL     1      46.422   7.096  12.512  0.00  0.00    +0.000 A 
ATOM     17  C   UNL     1      46.975   6.181  13.415  0.00  0.00    +0.000 A 
ATOM     18  C   UNL     1      46.343   4.948  13.614  0.00  0.00    +0.000 A 
ATOM     19  C   UNL     1      45.175   4.635  12.899  0.00  0.00    +0.000 A 
BRANCH  17  20
ATOM     20  C   UNL     1      48.237   6.571  14.097  0.00  0.00    +0.000 C 
ATOM     21  N   UNL     1      48.190   6.799  15.443  0.00  0.00    +0.000 N 
ATOM     22  O   UNL     1      49.281   6.722  13.475  0.00  0.00    +0.000 OA
ATOM     23  H   UNL     1      47.323   6.929  15.944  0.00  0.00    +0.000 HD
ATOM     24  H   UNL     1      49.034   7.180  15.853  0.00  0.00    +0.000 HD
ENDBRANCH  17  20
ENDBRANCH  13  14
ENDBRANCH   1  13
TORSDOF 7
ENDMDL
MODEL 5
REMARK VINA RESULT:    -6.544      2.149      6.391
REMARK INTER + INTRA:          -9.898
REMARK INTER:                  -9.300
REMARK INTRA:                  -0.598
REMARK UNBOUND:                -0.868
REMARK  Name = 
REMARK  7 active torsions:
REMARK  status: ('A' for Active; 'I' for Inactive)
REMARK    1  A    between atoms: N_1  and  C_2
REMARK    2  A    between atoms: C_2  and  C_3
REMARK    3  A    between atoms: C_7  and  C_8
REMARK    4  A    between atoms: C_8  and  C_9
REMARK    5  A    between atoms: C_9  and  O_10
REMARK    6  A    between atoms: O_10  and  C_11
REMARK    7  A    between atoms: C_14  and  C_15
REMARK                            x       y       z     vdW  Elec       q    Type
REMARK                         _______ _______ _______ _____ _____    ______ ____
ROOT
ATOM      1  C   UNL     1      44.172   4.254   8.872  0.00  0.00    +0.000 C 
ENDROOT
BRANCH   1   2
ATOM      2  C   UNL     1      45.616   4.630   8.531  0.00  0.00    +0.000 C 
BRANCH   2   7
ATOM      3  C   UNL     1      46.800   1.171   7.379  0.00  0.00    +0.000 A 
ATOM      4  C   UNL     1      47.301   1.477   6.106  0.00  0.00    +0.000 A 
ATOM      5  C   UNL     1      47.287   2.791   5.638  0.00  0.00    +0.000 A 
ATOM      6  C   UNL     1      46.770   3.816   6.432  0.00  0.00    +0.000 A 
ATOM      7  C   UNL     1      46.262   3.538   7.707  0.00  0.00    +0.000 A 
ATOM      8  C   UNL     1      46.287   2.213   8.172  0.00  0.00    +0.000 A 
BRANCH   3   9
ATOM      9  C   UNL     1      46.824  -0.247   7.892  0.00  0.00    +0.000 C 
BRANCH   9  10
ATOM     10  N   UNL     1      46.519  -1.208   6.836  0.00  0.00    +0.000 NA
ATOM     11  H   UNL     1      45.726  -0.865   6.296  0.00  0.00    +0.000 HD
ATOM     12  H   UNL     1      46.217  -2.079   7.268  0.00  0.00    +0.000 HD
ENDBRANCH   9  10
ENDBRANCH   3   9
ENDBRANCH   2   7
ENDBRANCH   1   2
BRANCH   1  13
ATOM     13  O   UNL     1      43.754   4.883  10.093  0.00  0.00    +0.000 OA
BRANCH  13  14
ATOM     14  C   UNL     1      44.581   4.642  11.165  0.00  0.00    +0.000 A 
ATOM     15  C   UNL     1      44.822   3.378  11.710  0.00  0.00    +0.000 A 
ATOM     16  C   UNL     1      45.653   3.229  12.822  0.00  0.00    +0.000 A 
ATOM     17  C   UNL     1      46.275   4.343  13.396  0.00  0.00    +0.000 A 
ATOM     18  C   UNL     1      46.066   5.609  12.836  0.00  0.00    +0.000 A 
ATOM     19  C   UNL     1      45.225   5.751  11.719  0.00  0.00    +0.000 A 
BRANCH  17  20
ATOM     20  C   UNL     1      47.112   4.113  14.603  0.00  0.00    +0.000 C 
ATOM     21  N   UNL     1      47.254   5.145  15.486  0.00  0.00    +0.000 N 
ATOM     22  O   UNL     1      47.688   3.048  14.789  0.00  0.00    +0.000 OA
ATOM     23  H   UNL     1      47.010   6.097  15.256  0.00  0.00    +0.000 HD
ATOM     24  H   UNL     1      47.925   4.996  16.230  0.00  0.00    +0.000 HD
ENDBRANCH  17  20
ENDBRANCH  13  14
ENDBRANCH   1  13
TORSDOF 7
ENDMDL
MODEL 6
REMARK VINA RESULT:    -5.944      2.499      7.094
REMARK INTER + INTRA:          -9.071
REMARK INTER:                  -8.513
REMARK INTRA:                  -0.558
REMARK UNBOUND:                -0.868
REMARK  Name = 
REMARK  7 active torsions:
REMARK  status: ('A' for Active; 'I' for Inactive)
REMARK    1  A    between atoms: N_1  and  C_2
REMARK    2  A    between atoms: C_2  and  C_3
REMARK    3  A    between atoms: C_7  and  C_8
REMARK    4  A    between atoms: C_8  and  C_9
REMARK    5  A    between atoms: C_9  and  O_10
REMARK    6  A    between atoms: O_10  and  C_11
REMARK    7  A    between atoms: C_14  and  C_15
REMARK                            x       y       z     vdW  Elec       q    Type
REMARK                         _______ _______ _______ _____ _____    ______ ____
ROOT
ATOM      1  C   UNL     1      45.289   5.939  11.137  0.00  0.00    +0.000 C 
ENDROOT
BRANCH   1   2
ATOM      2  C   UNL     1      45.154   5.879   9.614  0.00  0.00    +0.000 C 
BRANCH   2   7
ATOM      3  C   UNL     1      46.338   2.858   7.575  0.00  0.00    +0.000 A 
ATOM      4  C   UNL     1      45.788   1.807   8.321  0.00  0.00    +0.000 A 
ATOM      5  C   UNL     1      45.015   2.072   9.451  0.00  0.00    +0.000 A 
ATOM      6  C   UNL     1      44.784   3.387   9.854  0.00  0.00    +0.000 A 
ATOM      7  C   UNL     1      45.323   4.456   9.127  0.00  0.00    +0.000 A 
ATOM      8  C   UNL     1      46.094   4.180   7.986  0.00  0.00    +0.000 A 
BRANCH   3   9
ATOM      9  C   UNL     1      47.165   2.575   6.346  0.00  0.00    +0.000 C 
BRANCH   9  10
ATOM     10  N   UNL     1      48.154   1.529   6.590  0.00  0.00    +0.000 NA
ATOM     11  H   UNL     1      49.077   1.880   6.335  0.00  0.00    +0.000 HD
ATOM     12  H   UNL     1      47.962   0.748   5.964  0.00  0.00    +0.000 HD
ENDBRANCH   9  10
ENDBRANCH   3   9
ENDBRANCH   2   7
ENDBRANCH   1   2
BRANCH   1  13
ATOM     13  O   UNL     1      46.636   6.256  11.518  0.00  0.00    +0.000 OA
BRANCH  13  14
ATOM     14  C   UNL     1      46.981   5.837  12.781  0.00  0.00    +0.000 A 
ATOM     15  C   UNL     1      46.492   4.678  13.391  0.00  0.00    +0.000 A 
ATOM     16  C   UNL     1      46.872   4.344  14.693  0.00  0.00    +0.000 A 
ATOM     17  C   UNL     1      47.766   5.156  15.399  0.00  0.00    +0.000 A 
ATOM     18  C   UNL     1      48.286   6.300  14.784  0.00  0.00    +0.000 A 
ATOM     19  C   UNL     1      47.896   6.631  13.476  0.00  0.00    +0.000 A 
BRANCH  17  20
ATOM     20  C   UNL     1      48.091   4.760  16.796  0.00  0.00    +0.000 C 
ATOM     21  N   UNL     1      47.191   5.075  17.773  0.00  0.00    +0.000 N 
ATOM     22  O   UNL     1      49.145   4.202  17.074  0.00  0.00    +0.000 OA
ATOM     23  H   UNL     1      46.444   5.739  17.634  0.00  0.00    +0.000 HD
ATOM     24  H   UNL     1      47.497   4.901  18.723  0.00  0.00    +0.000 HD
ENDBRANCH  17  20
ENDBRANCH  13  14
ENDBRANCH   1  13
TORSDOF 7
ENDMDL
MODEL 7
REMARK VINA RESULT:    -5.871      4.222      6.040
REMARK INTER + INTRA:          -8.970
REMARK INTER:                  -8.192
REMARK INTRA:                  -0.778
REMARK UNBOUND:                -0.868
REMARK  Name = 
REMARK  7 active torsions:
REMARK  status: ('A' for Active; 'I' for Inactive)
REMARK    1  A    between atoms: N_1  and  C_2
REMARK    2  A    between atoms: C_2  and  C_3
REMARK    3  A    between atoms: C_7  and  C_8
REMARK    4  A    between atoms: C_8  and  C_9
REMARK    5  A    between atoms: C_9  and  O_10
REMARK    6  A    between atoms: O_10  and  C_11
REMARK    7  A    between atoms: C_14  and  C_15
REMARK                            x       y       z     vdW  Elec       q    Type
REMARK                         _______ _______ _______ _____ _____    ______ ____
ROOT
ATOM      1  C   UNL     1      49.033   7.246  14.071  0.00  0.00    +0.000 C 
ENDROOT
BRANCH   1   2
ATOM      2  C   UNL     1      48.685   7.413  15.552  0.00  0.00    +0.000 C 
BRANCH   2   7
ATOM      3  C   UNL     1      48.945   4.120  17.495  0.00  0.00    +0.000 A 
ATOM      4  C   UNL     1      50.329   4.048  17.704  0.00  0.00    +0.000 A 
ATOM      5  C   UNL     1      51.166   5.067  17.250  0.00  0.00    +0.000 A 
ATOM      6  C   UNL     1      50.634   6.169  16.581  0.00  0.00    +0.000 A 
ATOM      7  C   UNL     1      49.254   6.267  16.359  0.00  0.00    +0.000 A 
ATOM      8  C   UNL     1      48.419   5.239  16.825  0.00  0.00    +0.000 A 
BRANCH   3   9
ATOM      9  C   UNL     1      48.036   3.024  17.993  0.00  0.00    +0.000 C 
BRANCH   9  10
ATOM     10  N   UNL     1      46.694   3.137  17.430  0.00  0.00    +0.000 NA
ATOM     11  H   UNL     1      46.028   2.712  18.074  0.00  0.00    +0.000 HD
ATOM     12  H   UNL     1      46.655   2.588  16.573  0.00  0.00    +0.000 HD
ENDBRANCH   9  10
ENDBRANCH   3   9
ENDBRANCH   2   7
ENDBRANCH   1   2
BRANCH   1  13
ATOM     13  O   UNL     1      48.597   5.967  13.585  0.00  0.00    +0.000 OA
BRANCH  13  14
ATOM     14  C   UNL     1      47.284   5.933  13.182  0.00  0.00    +0.000 A 
ATOM     15  C   UNL     1      46.335   5.020  13.652  0.00  0.00    +0.000 A 
ATOM     16  C   UNL     1      45.027   5.036  13.162  0.00  0.00    +0.000 A 
ATOM     17  C   UNL     1      44.641   5.983  12.208  0.00  0.00    +0.000 A 
ATOM     18  C   UNL     1      45.575   6.923  11.756  0.00  0.00    +0.000 A 
ATOM     19  C   UNL     1      46.890   6.897  12.251  0.00  0.00    +0.000 A 
BRANCH  17  20
ATOM     20  C   UNL     1      43.244   5.913  11.702  0.00  0.00    +0.000 C 
ATOM     21  N   UNL     1      42.728   7.026  11.101  0.00  0.00    +0.000 N 
ATOM     22  O   UNL     1      42.560   4.908  11.848  0.00  0.00    +0.000 OA
ATOM     23  H   UNL     1      43.155   7.937  11.180  0.00  0.00    +0.000 HD
ATOM     24  H   UNL     1      41.740   6.985  10.880  0.00  0.00    +0.000 HD
ENDBRANCH  17  20
ENDBRANCH  13  14
ENDBRANCH   1  13
TORSDOF 7
ENDMDL
MODEL 8
REMARK VINA RESULT:    -5.672      3.179      7.231
REMARK INTER + INTRA:          -8.695
REMARK INTER:                  -7.760
REMARK INTRA:                  -0.935
REMARK UNBOUND:                -0.868
REMARK  Name = 
REMARK  7 active torsions:
REMARK  status: ('A' for Active; 'I' for Inactive)
REMARK    1  A    between atoms: N_1  and  C_2
REMARK    2  A    between atoms: C_2  and  C_3
REMARK    3  A    between atoms: C_7  and  C_8
REMARK    4  A    between atoms: C_8  and  C_9
REMARK    5  A    between atoms: C_9  and  O_10
REMARK    6  A    between atoms: O_10  and  C_11
REMARK    7  A    between atoms: C_14  and  C_15
REMARK                            x       y       z     vdW  Elec       q    Type
REMARK                         _______ _______ _______ _____ _____    ______ ____
ROOT
ATOM      1  C   UNL     1      46.478   7.568  12.975  0.00  0.00    +0.000 C 
ENDROOT
BRANCH   1   2
ATOM      2  C   UNL     1      45.743   7.332  11.654  0.00  0.00    +0.000 C 
BRANCH   2   7
ATOM      3  C   UNL     1      44.465   3.814  10.831  0.00  0.00    +0.000 A 
ATOM      4  C   UNL     1      43.616   3.582  11.922  0.00  0.00    +0.000 A 
ATOM      5  C   UNL     1      43.433   4.564  12.896  0.00  0.00    +0.000 A 
ATOM      6  C   UNL     1      44.096   5.787  12.796  0.00  0.00    +0.000 A 
ATOM      7  C   UNL     1      44.950   6.045  11.716  0.00  0.00    +0.000 A 
ATOM      8  C   UNL     1      45.123   5.053  10.738  0.00  0.00    +0.000 A 
BRANCH   3   9
ATOM      9  C   UNL     1      44.657   2.758   9.771  0.00  0.00    +0.000 C 
BRANCH   9  10
ATOM     10  N   UNL     1      44.320   3.259   8.442  0.00  0.00    +0.000 NA
ATOM     11  H   UNL     1      43.341   3.052   8.249  0.00  0.00    +0.000 HD
ATOM     12  H   UNL     1      44.863   2.742   7.753  0.00  0.00    +0.000 HD
ENDBRANCH   9  10
ENDBRANCH   3   9
ENDBRANCH   2   7
ENDBRANCH   1   2
BRANCH   1  13
ATOM     13  O   UNL     1      47.651   6.745  13.061  0.00  0.00    +0.000 OA
BRANCH  13  14
ATOM     14  C   UNL     1      47.739   6.003  14.214  0.00  0.00    +0.000 A 
ATOM     15  C   UNL     1      47.097   4.778  14.419  0.00  0.00    +0.000 A 
ATOM     16  C   UNL     1      47.216   4.106  15.637  0.00  0.00    +0.000 A 
ATOM     17  C   UNL     1      48.000   4.640  16.666  0.00  0.00    +0.000 A 
ATOM     18  C   UNL     1      48.674   5.849  16.458  0.00  0.00    +0.000 A 
ATOM     19  C   UNL     1      48.546   6.521  15.231  0.00  0.00    +0.000 A 
BRANCH  17  20
ATOM     20  C   UNL     1      48.046   3.889  17.949  0.00  0.00    +0.000 C 
ATOM     21  N   UNL     1      47.222   2.809  18.085  0.00  0.00    +0.000 N 
ATOM     22  O   UNL     1      48.769   4.243  18.872  0.00  0.00    +0.000 OA
ATOM     23  H   UNL     1      46.446   2.633  17.464  0.00  0.00    +0.000 HD
ATOM     24  H   UNL     1      47.188   2.397  19.010  0.00  0.00    +0.000 HD
ENDBRANCH  17  20
ENDBRANCH  13  14
ENDBRANCH   1  13
TORSDOF 7
ENDMDL
MODEL 9
REMARK VINA RESULT:    -5.619      3.012      6.843
REMARK INTER + INTRA:          -8.622
REMARK INTER:                  -8.134
REMARK INTRA:                  -0.488
REMARK UNBOUND:                -0.868
REMARK  Name = 
REMARK  7 active torsions:
REMARK  status: ('A' for Active; 'I' for Inactive)
REMARK    1  A    between atoms: N_1  and  C_2
REMARK    2  A    between atoms: C_2  and  C_3
REMARK    3  A    between atoms: C_7  and  C_8
REMARK    4  A    between atoms: C_8  and  C_9
REMARK    5  A    between atoms: C_9  and  O_10
REMARK    6  A    between atoms: O_10  and  C_11
REMARK    7  A    between atoms: C_14  and  C_15
REMARK                            x       y       z     vdW  Elec       q    Type
REMARK                         _______ _______ _______ _____ _____    ______ ____
ROOT
ATOM      1  C   UNL     1      44.817   4.597  11.456  0.00  0.00    +0.000 C 
ENDROOT
BRANCH   1   2
ATOM      2  C   UNL     1      44.741   4.964   9.973  0.00  0.00    +0.000 C 
BRANCH   2   7
ATOM      3  C   UNL     1      46.464   2.934   7.215  0.00  0.00    +0.000 A 
ATOM      4  C   UNL     1      46.171   1.628   7.631  0.00  0.00    +0.000 A 
ATOM      5  C   UNL     1      45.398   1.405   8.770  0.00  0.00    +0.000 A 
ATOM      6  C   UNL     1      44.911   2.482   9.512  0.00  0.00    +0.000 A 
ATOM      7  C   UNL     1      45.189   3.797   9.119  0.00  0.00    +0.000 A 
ATOM      8  C   UNL     1      45.962   4.011   7.967  0.00  0.00    +0.000 A 
BRANCH   3   9
ATOM      9  C   UNL     1      47.290   3.178   5.978  0.00  0.00    +0.000 C 
BRANCH   9  10
ATOM     10  N   UNL     1      48.605   2.550   6.073  0.00  0.00    +0.000 NA
ATOM     11  H   UNL     1      49.058   2.861   6.932  0.00  0.00    +0.000 HD
ATOM     12  H   UNL     1      49.182   2.887   5.305  0.00  0.00    +0.000 HD
ENDBRANCH   9  10
ENDBRANCH   3   9
ENDBRANCH   2   7
ENDBRANCH   1   2
BRANCH   1  13
ATOM     13  O   UNL     1      44.530   5.738  12.280  0.00  0.00    +0.000 OA
BRANCH  13  14
ATOM     14  C   UNL     1      45.575   6.622  12.406  0.00  0.00    +0.000 A 
ATOM     15  C   UNL     1      45.431   8.010  12.493  0.00  0.00    +0.000 A 
ATOM     16  C   UNL     1      46.552   8.838  12.587  0.00  0.00    +0.000 A 
ATOM     17  C   UNL     1      47.838   8.287  12.617  0.00  0.00    +0.000 A 
ATOM     18  C   UNL     1      47.990   6.896  12.564  0.00  0.00    +0.000 A 
ATOM     19  C   UNL     1      46.857   6.071  12.466  0.00  0.00    +0.000 A 
BRANCH  17  20
ATOM     20  C   UNL     1      48.985   9.232  12.675  0.00  0.00    +0.000 C 
ATOM     21  N   UNL     1      48.724  10.528  13.016  0.00  0.00    +0.000 N 
ATOM     22  O   UNL     1      50.122   8.877  12.392  0.00  0.00    +0.000 OA
ATOM     23  H   UNL     1      47.793  10.918  13.013  0.00  0.00    +0.000 HD
ATOM     24  H   UNL     1      49.504  11.170  12.928  0.00  0.00    +0.000 HD
ENDBRANCH  17  20
ENDBRANCH  13  14
ENDBRANCH   1  13
TORSDOF 7
ENDMDL
