MODEL 1
REMARK VINA RESULT:    -9.348      0.000      0.000
REMARK INTER + INTRA:         -13.765
REMARK INTER:                 -13.173
REMARK INTRA:                  -0.591
REMARK UNBOUND:                -0.591
REMARK  Name = 
REMARK  8 active torsions:
REMARK  status: ('A' for Active; 'I' for Inactive)
REMARK    1  A    between atoms: C_1  and  C_2
REMARK    2  A    between atoms: C_5  and  N_6
REMARK    3  A    between atoms: N_6  and  C_7
REMARK    4  A    between atoms: C_7  and  C_8
REMARK    5  A    between atoms: C_8  and  C_11
REMARK    6  A    between atoms: C_16  and  O_17
REMARK    7  A    between atoms: O_17  and  C_18
REMARK    8  A    between atoms: C_24  and  C_25
REMARK                            x       y       z     vdW  Elec       q    Type
REMARK                         _______ _______ _______ _____ _____    ______ ____
ROOT
ATOM      1  C   UNL     1      43.564   4.512  12.682  0.00  0.00    +0.000 C 
ATOM      2  F   UNL     1      42.681   5.516  12.996  0.00  0.00    +0.000 F 
ATOM      3  F   UNL     1      43.303   3.526  13.599  0.00  0.00    +0.000 F 
ENDROOT
BRANCH   1   4
ATOM      4  C   UNL     1      44.996   4.999  12.818  0.00  0.00    +0.000 A 
ATOM      5  C   UNL     1      45.608   5.887  11.921  0.00  0.00    +0.000 A 
ATOM      6  C   UNL     1      46.915   6.310  12.137  0.00  0.00    +0.000 A 
ATOM      7  F   UNL     1      47.473   7.169  11.272  0.00  0.00    +0.000 F 
ATOM      8  C   UNL     1      47.641   5.866  13.228  0.00  0.00    +0.000 A 
ATOM      9  C   UNL     1      47.058   4.980  14.127  0.00  0.00    +0.000 A 
ATOM     10  C   UNL     1      45.750   4.536  13.918  0.00  0.00    +0.000 A 
BRANCH   9  11
ATOM     11  O   UNL     1      47.856   4.584  15.169  0.00  0.00    +0.000 OA
BRANCH  11  12
ATOM     12  C   UNL     1      47.245   3.918  16.298  0.00  0.00    +0.000 C 
ATOM     13  C   UNL     1      47.250   4.648  17.660  0.00  0.00    +0.000 C 
ATOM     14  N   UNL     1      47.677   3.397  18.320  0.00  0.00    +0.000 NA
ATOM     15  C   UNL     1      48.142   2.886  17.015  0.00  0.00    +0.000 C 
ATOM     16  H   UNL     1      46.909   2.859  18.719  0.00  0.00    +0.000 HD
ENDBRANCH  11  12
ENDBRANCH   9  11
ENDBRANCH   1   4
BRANCH   1  17
ATOM     17  C   UNL     1      43.140   3.955  11.302  0.00  0.00    +0.000 C 
BRANCH  17  18
ATOM     18  N   UNL     1      43.955   2.818  10.833  0.00  0.00    +0.000 N 
ATOM     19  H   UNL     1      44.502   2.365  11.566  0.00  0.00    +0.000 HD
BRANCH  18  24
ATOM     20  C   UNL     1      46.774   3.502   5.953  0.00  0.00    +0.000 C 
ATOM     21  C   UNL     1      46.040   3.221   7.231  0.00  0.00    +0.000 A 
ATOM     22  N   UNL     1      45.238   4.227   7.671  0.00  0.00    +0.000 NA
ATOM     23  C   UNL     1      44.566   4.037   8.834  0.00  0.00    +0.000 A 
ATOM     24  C   UNL     1      44.614   2.877   9.606  0.00  0.00    +0.000 A 
ATOM     25  C   UNL     1      45.465   1.875   9.137  0.00  0.00    +0.000 A 
ATOM     26  C   UNL     1      46.188   2.030   7.946  0.00  0.00    +0.000 A 
BRANCH  26  27
ATOM     27  C   UNL     1      47.058   0.921   7.466  0.00  0.00    +0.000 C 
ATOM     28  N   UNL     1      46.618  -0.360   7.666  0.00  0.00    +0.000 N 
ATOM     29  O   UNL     1      48.131   1.114   6.912  0.00  0.00    +0.000 OA
ATOM     30  H   UNL     1      45.857  -0.606   8.281  0.00  0.00    +0.000 HD
ATOM     31  H   UNL     1      47.255  -1.099   7.393  0.00  0.00    +0.000 HD
ENDBRANCH  26  27
ENDBRANCH  18  24
ENDBRANCH  17  18
ENDBRANCH   1  17
TORSDOF 7
ENDMDL
MODEL 2
REMARK VINA RESULT:    -9.177      1.427      1.871
REMARK INTER + INTRA:         -13.524
REMARK INTER:                 -12.669
REMARK INTRA:                  -0.855
REMARK UNBOUND:                -0.591
REMARK  Name = 
REMARK  8 active torsions:
REMARK  status: ('A' for Active; 'I' for Inactive)
REMARK    1  A    between atoms: C_1  and  C_2
REMARK    2  A    between atoms: C_5  and  N_6
REMARK    3  A    between atoms: N_6  and  C_7
REMARK    4  A    between atoms: C_7  and  C_8
REMARK    5  A    between atoms: C_8  and  C_11
REMARK    6  A    between atoms: C_16  and  O_17
REMARK    7  A    between atoms: O_17  and  C_18
REMARK    8  A    between atoms: C_24  and  C_25
REMARK                            x       y       z     vdW  Elec       q    Type
REMARK                         _______ _______ _______ _____ _____    ______ ____
ROOT
ATOM      1  C   UNL     1      43.649   5.693  11.773  0.00  0.00    +0.000 C 
ATOM      2  F   UNL     1      43.199   6.928  11.378  0.00  0.00    +0.000 F 
ATOM      3  F   UNL     1      42.846   5.357  12.834  0.00  0.00    +0.000 F 
ENDROOT
BRANCH   1   4
ATOM      4  C   UNL     1      45.102   5.769  12.211  0.00  0.00    +0.000 A 
ATOM      5  C   UNL     1      46.012   6.726  11.735  0.00  0.00    +0.000 A 
ATOM      6  C   UNL     1      47.317   6.748  12.213  0.00  0.00    +0.000 A 
ATOM      7  F   UNL     1      48.164   7.679  11.752  0.00  0.00    +0.000 F 
ATOM      8  C   UNL     1      47.751   5.832  13.156  0.00  0.00    +0.000 A 
ATOM      9  C   UNL     1      46.870   4.871  13.637  0.00  0.00    +0.000 A 
ATOM     10  C   UNL     1      45.557   4.829  13.158  0.00  0.00    +0.000 A 
BRANCH   9  11
ATOM     11  O   UNL     1      47.390   3.999  14.557  0.00  0.00    +0.000 OA
BRANCH  11  12
ATOM     12  C   UNL     1      47.255   4.309  15.963  0.00  0.00    +0.000 C 
ATOM     13  C   UNL     1      48.416   5.057  16.656  0.00  0.00    +0.000 C 
ATOM     14  N   UNL     1      48.333   4.117  17.793  0.00  0.00    +0.000 NA
ATOM     15  C   UNL     1      47.616   3.158  16.927  0.00  0.00    +0.000 C 
ATOM     16  H   UNL     1      47.773   4.461  18.572  0.00  0.00    +0.000 HD
ENDBRANCH  11  12
ENDBRANCH   9  11
ENDBRANCH   1   4
BRANCH   1  17
ATOM     17  C   UNL     1      43.311   4.703  10.633  0.00  0.00    +0.000 C 
BRANCH  17  18
ATOM     18  N   UNL     1      44.176   4.831   9.445  0.00  0.00    +0.000 N 
ATOM     19  H   UNL     1      43.779   5.402   8.697  0.00  0.00    +0.000 HD
BRANCH  18  24
ATOM     20  C   UNL     1      46.753   0.129   7.581  0.00  0.00    +0.000 C 
ATOM     21  C   UNL     1      46.145   1.425   8.027  0.00  0.00    +0.000 A 
ATOM     22  N   UNL     1      45.310   1.336   9.096  0.00  0.00    +0.000 NA
ATOM     23  C   UNL     1      44.713   2.473   9.531  0.00  0.00    +0.000 A 
ATOM     24  C   UNL     1      44.908   3.740   8.980  0.00  0.00    +0.000 A 
ATOM     25  C   UNL     1      45.753   3.791   7.871  0.00  0.00    +0.000 A 
ATOM     26  C   UNL     1      46.383   2.640   7.379  0.00  0.00    +0.000 A 
BRANCH  26  27
ATOM     27  C   UNL     1      47.303   2.749   6.213  0.00  0.00    +0.000 C 
ATOM     28  N   UNL     1      48.648   2.761   6.466  0.00  0.00    +0.000 N 
ATOM     29  O   UNL     1      46.902   2.826   5.060  0.00  0.00    +0.000 OA
ATOM     30  H   UNL     1      49.048   2.901   7.382  0.00  0.00    +0.000 HD
ATOM     31  H   UNL     1      49.252   2.903   5.665  0.00  0.00    +0.000 HD
ENDBRANCH  26  27
ENDBRANCH  18  24
ENDBRANCH  17  18
ENDBRANCH   1  17
TORSDOF 7
ENDMDL
MODEL 3
REMARK VINA RESULT:    -8.673      2.605      3.561
REMARK INTER + INTRA:         -12.814
REMARK INTER:                 -11.840
REMARK INTRA:                  -0.974
REMARK UNBOUND:                -0.591
REMARK  Name = 
REMARK  8 active torsions:
REMARK  status: ('A' for Active; 'I' for Inactive)
REMARK    1  A    between atoms: C_1  and  C_2
REMARK    2  A    between atoms: C_5  and  N_6
REMARK    3  A    between atoms: N_6  and  C_7
REMARK    4  A    between atoms: C_7  and  C_8
REMARK    5  A    between atoms: C_8  and  C_11
REMARK    6  A    between atoms: C_16  and  O_17
REMARK    7  A    between atoms: O_17  and  C_18
REMARK    8  A    between atoms: C_24  and  C_25
REMARK                            x       y       z     vdW  Elec       q    Type
REMARK                         _______ _______ _______ _____ _____    ______ ____
ROOT
ATOM      1  C   UNL     1      43.620   5.744  11.812  0.00  0.00    +0.000 C 
ATOM      2  F   UNL     1      43.453   7.035  11.376  0.00  0.00    +0.000 F 
ATOM      3  F   UNL     1      42.614   5.556  12.725  0.00  0.00    +0.000 F 
ENDROOT
BRANCH   1   4
ATOM      4  C   UNL     1      44.977   5.576  12.474  0.00  0.00    +0.000 A 
ATOM      5  C   UNL     1      45.401   4.391  13.094  0.00  0.00    +0.000 A 
ATOM      6  C   UNL     1      46.674   4.308  13.648  0.00  0.00    +0.000 A 
ATOM      7  F   UNL     1      47.061   3.162  14.224  0.00  0.00    +0.000 F 
ATOM      8  C   UNL     1      47.545   5.384  13.608  0.00  0.00    +0.000 A 
ATOM      9  C   UNL     1      47.143   6.571  13.005  0.00  0.00    +0.000 A 
ATOM     10  C   UNL     1      45.863   6.673  12.454  0.00  0.00    +0.000 A 
BRANCH   9  11
ATOM     11  O   UNL     1      48.065   7.585  13.025  0.00  0.00    +0.000 OA
BRANCH  11  12
ATOM     12  C   UNL     1      49.464   7.255  12.873  0.00  0.00    +0.000 C 
ATOM     13  C   UNL     1      50.495   8.080  13.675  0.00  0.00    +0.000 C 
ATOM     14  N   UNL     1      51.333   8.199  12.464  0.00  0.00    +0.000 NA
ATOM     15  C   UNL     1      50.153   7.873  11.636  0.00  0.00    +0.000 C 
ATOM     16  H   UNL     1      52.076   7.503  12.407  0.00  0.00    +0.000 HD
ENDBRANCH  11  12
ENDBRANCH   9  11
ENDBRANCH   1   4
BRANCH   1  17
ATOM     17  C   UNL     1      43.305   4.819  10.612  0.00  0.00    +0.000 C 
BRANCH  17  18
ATOM     18  N   UNL     1      44.239   4.959   9.479  0.00  0.00    +0.000 N 
ATOM     19  H   UNL     1      43.905   5.573   8.735  0.00  0.00    +0.000 HD
BRANCH  18  24
ATOM     20  C   UNL     1      46.750   0.222   7.611  0.00  0.00    +0.000 C 
ATOM     21  C   UNL     1      46.158   1.527   8.056  0.00  0.00    +0.000 A 
ATOM     22  N   UNL     1      45.349   1.454   9.147  0.00  0.00    +0.000 NA
ATOM     23  C   UNL     1      44.768   2.599   9.582  0.00  0.00    +0.000 A 
ATOM     24  C   UNL     1      44.954   3.858   9.011  0.00  0.00    +0.000 A 
ATOM     25  C   UNL     1      45.772   3.892   7.880  0.00  0.00    +0.000 A 
ATOM     26  C   UNL     1      46.385   2.732   7.388  0.00  0.00    +0.000 A 
BRANCH  26  27
ATOM     27  C   UNL     1      47.276   2.822   6.198  0.00  0.00    +0.000 C 
ATOM     28  N   UNL     1      48.627   2.843   6.418  0.00  0.00    +0.000 N 
ATOM     29  O   UNL     1      46.848   2.877   5.053  0.00  0.00    +0.000 OA
ATOM     30  H   UNL     1      49.049   3.002   7.322  0.00  0.00    +0.000 HD
ATOM     31  H   UNL     1      49.212   2.973   5.601  0.00  0.00    +0.000 HD
ENDBRANCH  26  27
ENDBRANCH  18  24
ENDBRANCH  17  18
ENDBRANCH   1  17
TORSDOF 7
ENDMDL
MODEL 4
REMARK VINA RESULT:    -8.234      2.513      2.844
REMARK INTER + INTRA:         -12.195
REMARK INTER:                 -11.787
REMARK INTRA:                  -0.408
REMARK UNBOUND:                -0.591
REMARK  Name = 
REMARK  8 active torsions:
REMARK  status: ('A' for Active; 'I' for Inactive)
REMARK    1  A    between atoms: C_1  and  C_2
REMARK    2  A    between atoms: C_5  and  N_6
REMARK    3  A    between atoms: N_6  and  C_7
REMARK    4  A    between atoms: C_7  and  C_8
REMARK    5  A    between atoms: C_8  and  C_11
REMARK    6  A    between atoms: C_16  and  O_17
REMARK    7  A    between atoms: O_17  and  C_18
REMARK    8  A    between atoms: C_24  and  C_25
REMARK                            x       y       z     vdW  Elec       q    Type
REMARK                         _______ _______ _______ _____ _____    ______ ____
ROOT
ATOM      1  C   UNL     1      43.635   4.584  12.245  0.00  0.00    +0.000 C 
ATOM      2  F   UNL     1      42.588   4.752  11.373  0.00  0.00    +0.000 F 
ATOM      3  F   UNL     1      43.049   4.557  13.485  0.00  0.00    +0.000 F 
ENDROOT
BRANCH   1   4
ATOM      4  C   UNL     1      44.608   5.746  12.142  0.00  0.00    +0.000 A 
ATOM      5  C   UNL     1      44.232   7.049  11.783  0.00  0.00    +0.000 A 
ATOM      6  C   UNL     1      45.180   8.065  11.745  0.00  0.00    +0.000 A 
ATOM      7  F   UNL     1      44.795   9.304  11.410  0.00  0.00    +0.000 F 
ATOM      8  C   UNL     1      46.508   7.819  12.052  0.00  0.00    +0.000 A 
ATOM      9  C   UNL     1      46.904   6.534  12.405  0.00  0.00    +0.000 A 
ATOM     10  C   UNL     1      45.965   5.500  12.436  0.00  0.00    +0.000 A 
BRANCH   9  11
ATOM     11  O   UNL     1      48.239   6.381  12.679  0.00  0.00    +0.000 OA
BRANCH  11  12
ATOM     12  C   UNL     1      49.023   7.556  12.990  0.00  0.00    +0.000 C 
ATOM     13  C   UNL     1      50.353   7.761  12.232  0.00  0.00    +0.000 C 
ATOM     14  N   UNL     1      51.019   8.101  13.507  0.00  0.00    +0.000 NA
ATOM     15  C   UNL     1      49.923   7.432  14.238  0.00  0.00    +0.000 C 
ATOM     16  H   UNL     1      51.077   9.103  13.687  0.00  0.00    +0.000 HD
ENDBRANCH  11  12
ENDBRANCH   9  11
ENDBRANCH   1   4
BRANCH   1  17
ATOM     17  C   UNL     1      44.205   3.167  11.996  0.00  0.00    +0.000 C 
BRANCH  17  18
ATOM     18  N   UNL     1      43.755   2.547  10.736  0.00  0.00    +0.000 N 
ATOM     19  H   UNL     1      43.370   1.608  10.845  0.00  0.00    +0.000 HD
BRANCH  18  24
ATOM     20  C   UNL     1      46.882   3.646   6.126  0.00  0.00    +0.000 C 
ATOM     21  C   UNL     1      46.068   3.256   7.324  0.00  0.00    +0.000 A 
ATOM     22  N   UNL     1      45.238   4.223   7.800  0.00  0.00    +0.000 NA
ATOM     23  C   UNL     1      44.493   3.936   8.896  0.00  0.00    +0.000 A 
ATOM     24  C   UNL     1      44.492   2.711   9.563  0.00  0.00    +0.000 A 
ATOM     25  C   UNL     1      45.371   1.750   9.062  0.00  0.00    +0.000 A 
ATOM     26  C   UNL     1      46.169   2.006   7.939  0.00  0.00    +0.000 A 
BRANCH  26  27
ATOM     27  C   UNL     1      47.068   0.939   7.420  0.00  0.00    +0.000 C 
ATOM     28  N   UNL     1      46.706  -0.362   7.648  0.00  0.00    +0.000 N 
ATOM     29  O   UNL     1      48.099   1.182   6.808  0.00  0.00    +0.000 OA
ATOM     30  H   UNL     1      45.991  -0.641   8.304  0.00  0.00    +0.000 HD
ATOM     31  H   UNL     1      47.365  -1.069   7.345  0.00  0.00    +0.000 HD
ENDBRANCH  26  27
ENDBRANCH  18  24
ENDBRANCH  17  18
ENDBRANCH   1  17
TORSDOF 7
ENDMDL
MODEL 5
REMARK VINA RESULT:    -8.211      2.244      8.019
REMARK INTER + INTRA:         -12.163
REMARK INTER:                 -11.466
REMARK INTRA:                  -0.697
REMARK UNBOUND:                -0.591
REMARK  Name = 
REMARK  8 active torsions:
REMARK  status: ('A' for Active; 'I' for Inactive)
REMARK    1  A    between atoms: C_1  and  C_2
REMARK    2  A    between atoms: C_5  and  N_6
REMARK    3  A    between atoms: N_6  and  C_7
REMARK    4  A    between atoms: C_7  and  C_8
REMARK    5  A    between atoms: C_8  and  C_11
REMARK    6  A    between atoms: C_16  and  O_17
REMARK    7  A    between atoms: O_17  and  C_18
REMARK    8  A    between atoms: C_24  and  C_25
REMARK                            x       y       z     vdW  Elec       q    Type
REMARK                         _______ _______ _______ _____ _____    ______ ____
ROOT
ATOM      1  C   UNL     1      45.721   6.220  11.300  0.00  0.00    +0.000 C 
ATOM      2  F   UNL     1      44.880   7.260  10.994  0.00  0.00    +0.000 F 
ATOM      3  F   UNL     1      46.948   6.621  10.837  0.00  0.00    +0.000 F 
ENDROOT
BRANCH   1   4
ATOM      4  C   UNL     1      45.277   4.949  10.596  0.00  0.00    +0.000 A 
ATOM      5  C   UNL     1      44.489   3.957  11.199  0.00  0.00    +0.000 A 
ATOM      6  C   UNL     1      44.098   2.838  10.472  0.00  0.00    +0.000 A 
ATOM      7  F   UNL     1      43.335   1.910  11.066  0.00  0.00    +0.000 F 
ATOM      8  C   UNL     1      44.476   2.672   9.151  0.00  0.00    +0.000 A 
ATOM      9  C   UNL     1      45.263   3.638   8.535  0.00  0.00    +0.000 A 
ATOM     10  C   UNL     1      45.674   4.763   9.255  0.00  0.00    +0.000 A 
BRANCH   9  11
ATOM     11  O   UNL     1      45.600   3.384   7.231  0.00  0.00    +0.000 OA
BRANCH  11  12
ATOM     12  C   UNL     1      46.992   3.173   6.902  0.00  0.00    +0.000 C 
ATOM     13  C   UNL     1      47.352   2.875   5.429  0.00  0.00    +0.000 C 
ATOM     14  N   UNL     1      48.238   1.780   5.875  0.00  0.00    +0.000 NA
ATOM     15  C   UNL     1      47.520   1.747   7.166  0.00  0.00    +0.000 C 
ATOM     16  H   UNL     1      49.218   2.052   5.960  0.00  0.00    +0.000 HD
ENDBRANCH  11  12
ENDBRANCH   9  11
ENDBRANCH   1   4
BRANCH   1  17
ATOM     17  C   UNL     1      45.828   6.166  12.843  0.00  0.00    +0.000 C 
BRANCH  17  18
ATOM     18  N   UNL     1      47.037   6.813  13.388  0.00  0.00    +0.000 N 
ATOM     19  H   UNL     1      47.675   7.174  12.677  0.00  0.00    +0.000 HD
BRANCH  18  24
ATOM     20  C   UNL     1      49.631   5.050  18.120  0.00  0.00    +0.000 C 
ATOM     21  C   UNL     1      48.925   5.419  16.849  0.00  0.00    +0.000 A 
ATOM     22  N   UNL     1      49.240   6.642  16.345  0.00  0.00    +0.000 NA
ATOM     23  C   UNL     1      48.617   7.038  15.208  0.00  0.00    +0.000 A 
ATOM     24  C   UNL     1      47.689   6.276  14.497  0.00  0.00    +0.000 A 
ATOM     25  C   UNL     1      47.372   5.037  15.055  0.00  0.00    +0.000 A 
ATOM     26  C   UNL     1      47.984   4.590  16.234  0.00  0.00    +0.000 A 
BRANCH  26  27
ATOM     27  C   UNL     1      47.639   3.246  16.775  0.00  0.00    +0.000 C 
ATOM     28  N   UNL     1      48.541   2.234  16.580  0.00  0.00    +0.000 N 
ATOM     29  O   UNL     1      46.597   3.021  17.374  0.00  0.00    +0.000 OA
ATOM     30  H   UNL     1      49.316   2.286  15.935  0.00  0.00    +0.000 HD
ATOM     31  H   UNL     1      48.256   1.315  16.897  0.00  0.00    +0.000 HD
ENDBRANCH  26  27
ENDBRANCH  18  24
ENDBRANCH  17  18
ENDBRANCH   1  17
TORSDOF 7
ENDMDL
MODEL 6
REMARK VINA RESULT:    -8.123      2.293      8.011
REMARK INTER + INTRA:         -12.038
REMARK INTER:                 -11.175
REMARK INTRA:                  -0.863
REMARK UNBOUND:                -0.591
REMARK  Name = 
REMARK  8 active torsions:
REMARK  status: ('A' for Active; 'I' for Inactive)
REMARK    1  A    between atoms: C_1  and  C_2
REMARK    2  A    between atoms: C_5  and  N_6
REMARK    3  A    between atoms: N_6  and  C_7
REMARK    4  A    between atoms: C_7  and  C_8
REMARK    5  A    between atoms: C_8  and  C_11
REMARK    6  A    between atoms: C_16  and  O_17
REMARK    7  A    between atoms: O_17  and  C_18
REMARK    8  A    between atoms: C_24  and  C_25
REMARK                            x       y       z     vdW  Elec       q    Type
REMARK                         _______ _______ _______ _____ _____    ______ ____
ROOT
ATOM      1  C   UNL     1      45.646   6.386  11.310  0.00  0.00    +0.000 C 
ATOM      2  F   UNL     1      44.931   7.457  10.833  0.00  0.00    +0.000 F 
ATOM      3  F   UNL     1      46.953   6.689  11.025  0.00  0.00    +0.000 F 
ENDROOT
BRANCH   1   4
ATOM      4  C   UNL     1      45.230   5.109  10.599  0.00  0.00    +0.000 A 
ATOM      5  C   UNL     1      44.471   4.093  11.198  0.00  0.00    +0.000 A 
ATOM      6  C   UNL     1      44.104   2.969  10.467  0.00  0.00    +0.000 A 
ATOM      7  F   UNL     1      43.368   2.018  11.058  0.00  0.00    +0.000 F 
ATOM      8  C   UNL     1      44.479   2.822   9.142  0.00  0.00    +0.000 A 
ATOM      9  C   UNL     1      45.238   3.813   8.529  0.00  0.00    +0.000 A 
ATOM     10  C   UNL     1      45.624   4.943   9.255  0.00  0.00    +0.000 A 
BRANCH   9  11
ATOM     11  O   UNL     1      45.574   3.575   7.221  0.00  0.00    +0.000 OA
BRANCH  11  12
ATOM     12  C   UNL     1      46.957   3.304   6.898  0.00  0.00    +0.000 C 
ATOM     13  C   UNL     1      47.299   2.918   5.441  0.00  0.00    +0.000 C 
ATOM     14  N   UNL     1      48.153   1.820   5.941  0.00  0.00    +0.000 NA
ATOM     15  C   UNL     1      47.442   1.877   7.234  0.00  0.00    +0.000 C 
ATOM     16  H   UNL     1      49.141   2.064   6.008  0.00  0.00    +0.000 HD
ENDBRANCH  11  12
ENDBRANCH   9  11
ENDBRANCH   1   4
BRANCH   1  17
ATOM     17  C   UNL     1      45.514   6.405  12.851  0.00  0.00    +0.000 C 
BRANCH  17  18
ATOM     18  N   UNL     1      46.801   6.487  13.567  0.00  0.00    +0.000 N 
ATOM     19  H   UNL     1      47.569   6.861  13.007  0.00  0.00    +0.000 HD
BRANCH  18  24
ATOM     20  C   UNL     1      48.590   2.130  16.736  0.00  0.00    +0.000 C 
ATOM     21  C   UNL     1      48.118   3.338  15.983  0.00  0.00    +0.000 A 
ATOM     22  N   UNL     1      47.508   3.079  14.796  0.00  0.00    +0.000 NA
ATOM     23  C   UNL     1      47.079   4.134  14.060  0.00  0.00    +0.000 A 
ATOM     24  C   UNL     1      47.193   5.472  14.438  0.00  0.00    +0.000 A 
ATOM     25  C   UNL     1      47.845   5.703  15.650  0.00  0.00    +0.000 A 
ATOM     26  C   UNL     1      48.315   4.644  16.439  0.00  0.00    +0.000 A 
BRANCH  26  27
ATOM     27  C   UNL     1      48.975   4.936  17.742  0.00  0.00    +0.000 C 
ATOM     28  N   UNL     1      50.327   5.155  17.733  0.00  0.00    +0.000 N 
ATOM     29  O   UNL     1      48.360   4.987  18.798  0.00  0.00    +0.000 OA
ATOM     30  H   UNL     1      50.927   4.937  16.951  0.00  0.00    +0.000 HD
ATOM     31  H   UNL     1      50.764   5.285  18.637  0.00  0.00    +0.000 HD
ENDBRANCH  26  27
ENDBRANCH  18  24
ENDBRANCH  17  18
ENDBRANCH   1  17
TORSDOF 7
ENDMDL
MODEL 7
REMARK VINA RESULT:    -7.365      3.066      8.238
REMARK INTER + INTRA:         -10.970
REMARK INTER:                 -10.262
REMARK INTRA:                  -0.708
REMARK UNBOUND:                -0.591
REMARK  Name = 
REMARK  8 active torsions:
REMARK  status: ('A' for Active; 'I' for Inactive)
REMARK    1  A    between atoms: C_1  and  C_2
REMARK    2  A    between atoms: C_5  and  N_6
REMARK    3  A    between atoms: N_6  and  C_7
REMARK    4  A    between atoms: C_7  and  C_8
REMARK    5  A    between atoms: C_8  and  C_11
REMARK    6  A    between atoms: C_16  and  O_17
REMARK    7  A    between atoms: O_17  and  C_18
REMARK    8  A    between atoms: C_24  and  C_25
REMARK                            x       y       z     vdW  Elec       q    Type
REMARK                         _______ _______ _______ _____ _____    ______ ____
ROOT
ATOM      1  C   UNL     1      45.763   6.198  11.483  0.00  0.00    +0.000 C 
ATOM      2  F   UNL     1      44.796   7.173  11.468  0.00  0.00    +0.000 F 
ATOM      3  F   UNL     1      46.842   6.775  10.863  0.00  0.00    +0.000 F 
ENDROOT
BRANCH   1   4
ATOM      4  C   UNL     1      45.299   4.974  10.712  0.00  0.00    +0.000 A 
ATOM      5  C   UNL     1      44.519   3.950  11.269  0.00  0.00    +0.000 A 
ATOM      6  C   UNL     1      44.107   2.878  10.485  0.00  0.00    +0.000 A 
ATOM      7  F   UNL     1      43.353   1.918  11.037  0.00  0.00    +0.000 F 
ATOM      8  C   UNL     1      44.458   2.792   9.148  0.00  0.00    +0.000 A 
ATOM      9  C   UNL     1      45.236   3.792   8.576  0.00  0.00    +0.000 A 
ATOM     10  C   UNL     1      45.667   4.869   9.354  0.00  0.00    +0.000 A 
BRANCH   9  11
ATOM     11  O   UNL     1      45.545   3.616   7.252  0.00  0.00    +0.000 OA
BRANCH  11  12
ATOM     12  C   UNL     1      46.914   3.322   6.891  0.00  0.00    +0.000 C 
ATOM     13  C   UNL     1      47.208   2.917   5.429  0.00  0.00    +0.000 C 
ATOM     14  N   UNL     1      48.061   1.813   5.915  0.00  0.00    +0.000 NA
ATOM     15  C   UNL     1      47.389   1.892   7.228  0.00  0.00    +0.000 C 
ATOM     16  H   UNL     1      49.054   2.044   5.950  0.00  0.00    +0.000 HD
ENDBRANCH  11  12
ENDBRANCH   9  11
ENDBRANCH   1   4
BRANCH   1  17
ATOM     17  C   UNL     1      46.166   5.985  12.962  0.00  0.00    +0.000 C 
BRANCH  17  18
ATOM     18  N   UNL     1      46.707   7.189  13.620  0.00  0.00    +0.000 N 
ATOM     19  H   UNL     1      46.348   8.069  13.245  0.00  0.00    +0.000 HD
BRANCH  18  24
ATOM     20  C   UNL     1      52.163   7.906  15.016  0.00  0.00    +0.000 C 
ATOM     21  C   UNL     1      50.719   7.637  14.710  0.00  0.00    +0.000 A 
ATOM     22  N   UNL     1      50.263   8.178  13.549  0.00  0.00    +0.000 NA
ATOM     23  C   UNL     1      48.959   7.985  13.230  0.00  0.00    +0.000 A 
ATOM     24  C   UNL     1      48.049   7.251  13.991  0.00  0.00    +0.000 A 
ATOM     25  C   UNL     1      48.545   6.730  15.186  0.00  0.00    +0.000 A 
ATOM     26  C   UNL     1      49.884   6.912  15.563  0.00  0.00    +0.000 A 
BRANCH  26  27
ATOM     27  C   UNL     1      50.377   6.309  16.831  0.00  0.00    +0.000 C 
ATOM     28  N   UNL     1      50.245   7.046  17.977  0.00  0.00    +0.000 N 
ATOM     29  O   UNL     1      50.886   5.198  16.881  0.00  0.00    +0.000 OA
ATOM     30  H   UNL     1      50.025   8.031  17.992  0.00  0.00    +0.000 HD
ATOM     31  H   UNL     1      50.648   6.645  18.816  0.00  0.00    +0.000 HD
ENDBRANCH  26  27
ENDBRANCH  18  24
ENDBRANCH  17  18
ENDBRANCH   1  17
TORSDOF 7
ENDMDL
MODEL 8
REMARK VINA RESULT:    -7.253      3.295      8.047
REMARK INTER + INTRA:         -10.813
REMARK INTER:                 -10.030
REMARK INTRA:                  -0.782
REMARK UNBOUND:                -0.591
REMARK  Name = 
REMARK  8 active torsions:
REMARK  status: ('A' for Active; 'I' for Inactive)
REMARK    1  A    between atoms: C_1  and  C_2
REMARK    2  A    between atoms: C_5  and  N_6
REMARK    3  A    between atoms: N_6  and  C_7
REMARK    4  A    between atoms: C_7  and  C_8
REMARK    5  A    between atoms: C_8  and  C_11
REMARK    6  A    between atoms: C_16  and  O_17
REMARK    7  A    between atoms: O_17  and  C_18
REMARK    8  A    between atoms: C_24  and  C_25
REMARK                            x       y       z     vdW  Elec       q    Type
REMARK                         _______ _______ _______ _____ _____    ______ ____
ROOT
ATOM      1  C   UNL     1      45.629   6.221  11.254  0.00  0.00    +0.000 C 
ATOM      2  F   UNL     1      44.719   7.219  11.003  0.00  0.00    +0.000 F 
ATOM      3  F   UNL     1      46.810   6.697  10.744  0.00  0.00    +0.000 F 
ENDROOT
BRANCH   1   4
ATOM      4  C   UNL     1      45.224   4.939  10.546  0.00  0.00    +0.000 A 
ATOM      5  C   UNL     1      44.461   3.925  11.144  0.00  0.00    +0.000 A 
ATOM      6  C   UNL     1      44.104   2.796  10.414  0.00  0.00    +0.000 A 
ATOM      7  F   UNL     1      43.365   1.847  11.004  0.00  0.00    +0.000 F 
ATOM      8  C   UNL     1      44.493   2.643   9.095  0.00  0.00    +0.000 A 
ATOM      9  C   UNL     1      45.255   3.632   8.483  0.00  0.00    +0.000 A 
ATOM     10  C   UNL     1      45.631   4.767   9.207  0.00  0.00    +0.000 A 
BRANCH   9  11
ATOM     11  O   UNL     1      45.604   3.388   7.180  0.00  0.00    +0.000 OA
BRANCH  11  12
ATOM     12  C   UNL     1      46.997   3.161   6.866  0.00  0.00    +0.000 C 
ATOM     13  C   UNL     1      47.369   2.859   5.397  0.00  0.00    +0.000 C 
ATOM     14  N   UNL     1      48.237   1.753   5.851  0.00  0.00    +0.000 NA
ATOM     15  C   UNL     1      47.505   1.727   7.134  0.00  0.00    +0.000 C 
ATOM     16  H   UNL     1      49.219   2.012   5.947  0.00  0.00    +0.000 HD
ENDBRANCH  11  12
ENDBRANCH   9  11
ENDBRANCH   1   4
BRANCH   1  17
ATOM     17  C   UNL     1      45.808   6.149  12.789  0.00  0.00    +0.000 C 
BRANCH  17  18
ATOM     18  N   UNL     1      47.078   5.535  13.221  0.00  0.00    +0.000 N 
ATOM     19  H   UNL     1      46.972   4.620  13.661  0.00  0.00    +0.000 HD
BRANCH  18  24
ATOM     20  C   UNL     1      51.302   8.316  15.800  0.00  0.00    +0.000 C 
ATOM     21  C   UNL     1      50.191   7.650  15.044  0.00  0.00    +0.000 A 
ATOM     22  N   UNL     1      49.391   6.837  15.785  0.00  0.00    +0.000 NA
ATOM     23  C   UNL     1      48.382   6.191  15.151  0.00  0.00    +0.000 A 
ATOM     24  C   UNL     1      48.082   6.313  13.794  0.00  0.00    +0.000 A 
ATOM     25  C   UNL     1      48.936   7.136  13.059  0.00  0.00    +0.000 A 
ATOM     26  C   UNL     1      49.999   7.816  13.670  0.00  0.00    +0.000 A 
BRANCH  26  27
ATOM     27  C   UNL     1      50.864   8.710  12.852  0.00  0.00    +0.000 C 
ATOM     28  N   UNL     1      50.616  10.056  12.907  0.00  0.00    +0.000 N 
ATOM     29  O   UNL     1      51.771   8.290  12.147  0.00  0.00    +0.000 OA
ATOM     30  H   UNL     1      49.777  10.459  13.298  0.00  0.00    +0.000 HD
ATOM     31  H   UNL     1      51.172  10.638  12.292  0.00  0.00    +0.000 HD
ENDBRANCH  26  27
ENDBRANCH  18  24
ENDBRANCH  17  18
ENDBRANCH   1  17
TORSDOF 7
ENDMDL
MODEL 9
REMARK VINA RESULT:    -7.139      2.615      8.325
REMARK INTER + INTRA:         -10.652
REMARK INTER:                 -10.212
REMARK INTRA:                  -0.440
REMARK UNBOUND:                -0.591
REMARK  Name = 
REMARK  8 active torsions:
REMARK  status: ('A' for Active; 'I' for Inactive)
REMARK    1  A    between atoms: C_1  and  C_2
REMARK    2  A    between atoms: C_5  and  N_6
REMARK    3  A    between atoms: N_6  and  C_7
REMARK    4  A    between atoms: C_7  and  C_8
REMARK    5  A    between atoms: C_8  and  C_11
REMARK    6  A    between atoms: C_16  and  O_17
REMARK    7  A    between atoms: O_17  and  C_18
REMARK    8  A    between atoms: C_24  and  C_25
REMARK                            x       y       z     vdW  Elec       q    Type
REMARK                         _______ _______ _______ _____ _____    ______ ____
ROOT
ATOM      1  C   UNL     1      46.800   4.425  13.660  0.00  0.00    +0.000 C 
ATOM      2  F   UNL     1      47.628   5.345  13.066  0.00  0.00    +0.000 F 
ATOM      3  F   UNL     1      47.484   3.240  13.573  0.00  0.00    +0.000 F 
ENDROOT
BRANCH   1   4
ATOM      4  C   UNL     1      45.480   4.333  12.913  0.00  0.00    +0.000 A 
ATOM      5  C   UNL     1      44.392   5.188  13.142  0.00  0.00    +0.000 A 
ATOM      6  C   UNL     1      43.230   5.059  12.390  0.00  0.00    +0.000 A 
ATOM      7  F   UNL     1      42.208   5.895  12.619  0.00  0.00    +0.000 F 
ATOM      8  C   UNL     1      43.115   4.089  11.408  0.00  0.00    +0.000 A 
ATOM      9  C   UNL     1      44.179   3.226  11.168  0.00  0.00    +0.000 A 
ATOM     10  C   UNL     1      45.349   3.336  11.924  0.00  0.00    +0.000 A 
BRANCH   9  11
ATOM     11  O   UNL     1      43.971   2.290  10.189  0.00  0.00    +0.000 OA
BRANCH  11  12
ATOM     12  C   UNL     1      44.411   2.583   8.843  0.00  0.00    +0.000 C 
ATOM     13  C   UNL     1      45.809   2.086   8.412  0.00  0.00    +0.000 C 
ATOM     14  N   UNL     1      46.086   3.407   7.812  0.00  0.00    +0.000 NA
ATOM     15  C   UNL     1      45.011   3.991   8.641  0.00  0.00    +0.000 C 
ATOM     16  H   UNL     1      45.898   3.452   6.811  0.00  0.00    +0.000 HD
ENDBRANCH  11  12
ENDBRANCH   9  11
ENDBRANCH   1   4
BRANCH   1  17
ATOM     17  C   UNL     1      46.731   4.785  15.164  0.00  0.00    +0.000 C 
BRANCH  17  18
ATOM     18  N   UNL     1      46.897   3.632  16.069  0.00  0.00    +0.000 N 
ATOM     19  H   UNL     1      46.139   3.517  16.744  0.00  0.00    +0.000 HD
BRANCH  18  24
ATOM     20  C   UNL     1      52.119   2.153  17.736  0.00  0.00    +0.000 C 
ATOM     21  C   UNL     1      50.738   2.612  17.370  0.00  0.00    +0.000 A 
ATOM     22  N   UNL     1      50.010   1.730  16.635  0.00  0.00    +0.000 NA
ATOM     23  C   UNL     1      48.761   2.100  16.257  0.00  0.00    +0.000 A 
ATOM     24  C   UNL     1      48.152   3.311  16.585  0.00  0.00    +0.000 A 
ATOM     25  C   UNL     1      48.936   4.201  17.320  0.00  0.00    +0.000 A 
ATOM     26  C   UNL     1      50.236   3.867  17.724  0.00  0.00    +0.000 A 
BRANCH  26  27
ATOM     27  C   UNL     1      51.023   4.835  18.536  0.00  0.00    +0.000 C 
ATOM     28  N   UNL     1      51.742   5.788  17.865  0.00  0.00    +0.000 N 
ATOM     29  O   UNL     1      51.048   4.807  19.759  0.00  0.00    +0.000 OA
ATOM     30  H   UNL     1      51.933   5.756  16.875  0.00  0.00    +0.000 HD
ATOM     31  H   UNL     1      52.323   6.393  18.434  0.00  0.00    +0.000 HD
ENDBRANCH  26  27
ENDBRANCH  18  24
ENDBRANCH  17  18
ENDBRANCH   1  17
TORSDOF 7
ENDMDL
