MODEL 1
REMARK VINA RESULT:    -8.670      0.000      0.000
REMARK INTER + INTRA:         -11.549
REMARK INTER:                 -10.698
REMARK INTRA:                  -0.851
REMARK UNBOUND:                -0.851
REMARK  Name = 
REMARK  5 active torsions:
REMARK  status: ('A' for Active; 'I' for Inactive)
REMARK    1  A    between atoms: C_1  and  C_2
REMARK    2  A    between atoms: C_2  and  N_3
REMARK    3  A    between atoms: C_2  and  C_13
REMARK    4  A    between atoms: N_3  and  C_4
REMARK    5  A    between atoms: C_7  and  C_8
REMARK                            x       y       z     vdW  Elec       q    Type
REMARK                         _______ _______ _______ _____ _____    ______ ____
ROOT
ATOM      1  N   UNL     1      43.747   4.834   9.871  0.00  0.00    +0.000 N 
ATOM      2  H   UNL     1      44.020   5.793   9.653  0.00  0.00    +0.000 HD
ENDROOT
BRANCH   1   3
ATOM      3  C   UNL     1      44.578   3.944   9.182  0.00  0.00    +0.000 A 
ATOM      4  C   UNL     1      45.548   4.492   8.334  0.00  0.00    +0.000 A 
ATOM      5  C   UNL     1      46.424   3.678   7.607  0.00  0.00    +0.000 A 
ATOM      6  C   UNL     1      46.379   2.290   7.752  0.00  0.00    +0.000 A 
ATOM      7  C   UNL     1      45.446   1.728   8.628  0.00  0.00    +0.000 A 
ATOM      8  C   UNL     1      44.560   2.553   9.341  0.00  0.00    +0.000 A 
BRANCH   6   9
ATOM      9  C   UNL     1      47.311   1.467   6.935  0.00  0.00    +0.000 C 
ATOM     10  N   UNL     1      48.415   2.082   6.413  0.00  0.00    +0.000 N 
ATOM     11  O   UNL     1      47.088   0.285   6.703  0.00  0.00    +0.000 OA
ATOM     12  H   UNL     1      48.508   3.086   6.367  0.00  0.00    +0.000 HD
ATOM     13  H   UNL     1      48.968   1.528   5.771  0.00  0.00    +0.000 HD
ENDBRANCH   6   9
ENDBRANCH   1   3
BRANCH   1  15
ATOM     14  C   UNL     1      42.363   5.625  11.751  0.00  0.00    +0.000 C 
ATOM     15  C   UNL     1      43.476   4.671  11.304  0.00  0.00    +0.000 C 
BRANCH  15  16
ATOM     16  C   UNL     1      44.758   4.942  12.087  0.00  0.00    +0.000 A 
ATOM     17  C   UNL     1      45.326   6.230  12.086  0.00  0.00    +0.000 A 
ATOM     18  C   UNL     1      46.511   6.496  12.780  0.00  0.00    +0.000 A 
ATOM     19  C   UNL     1      47.148   5.477  13.486  0.00  0.00    +0.000 A 
ATOM     20  C   UNL     1      46.591   4.204  13.493  0.00  0.00    +0.000 A 
ATOM     21  F   UNL     1      47.206   3.224  14.168  0.00  0.00    +0.000 F 
ATOM     22  C   UNL     1      45.410   3.928  12.807  0.00  0.00    +0.000 A 
ENDBRANCH  15  16
ENDBRANCH   1  15
TORSDOF 4
ENDMDL
MODEL 2
REMARK VINA RESULT:    -8.176      1.547      1.864
REMARK INTER + INTRA:         -10.939
REMARK INTER:                 -10.181
REMARK INTRA:                  -0.758
REMARK UNBOUND:                -0.851
REMARK  Name = 
REMARK  5 active torsions:
REMARK  status: ('A' for Active; 'I' for Inactive)
REMARK    1  A    between atoms: C_1  and  C_2
REMARK    2  A    between atoms: C_2  and  N_3
REMARK    3  A    between atoms: C_2  and  C_13
REMARK    4  A    between atoms: N_3  and  C_4
REMARK    5  A    between atoms: C_7  and  C_8
REMARK                            x       y       z     vdW  Elec       q    Type
REMARK                         _______ _______ _______ _____ _____    ______ ____
ROOT
ATOM      1  N   UNL     1      43.862   4.986   9.754  0.00  0.00    +0.000 N 
ATOM      2  H   UNL     1      44.178   5.871   9.356  0.00  0.00    +0.000 HD
ENDROOT
BRANCH   1   3
ATOM      3  C   UNL     1      44.586   3.933   9.185  0.00  0.00    +0.000 A 
ATOM      4  C   UNL     1      45.608   4.264   8.286  0.00  0.00    +0.000 A 
ATOM      5  C   UNL     1      46.386   3.277   7.670  0.00  0.00    +0.000 A 
ATOM      6  C   UNL     1      46.187   1.931   7.981  0.00  0.00    +0.000 A 
ATOM      7  C   UNL     1      45.201   1.584   8.909  0.00  0.00    +0.000 A 
ATOM      8  C   UNL     1      44.415   2.582   9.509  0.00  0.00    +0.000 A 
BRANCH   6   9
ATOM      9  C   UNL     1      47.019   0.917   7.278  0.00  0.00    +0.000 C 
ATOM     10  N   UNL     1      46.806  -0.400   7.576  0.00  0.00    +0.000 N 
ATOM     11  O   UNL     1      47.893   1.242   6.483  0.00  0.00    +0.000 OA
ATOM     12  H   UNL     1      46.286  -0.697   8.388  0.00  0.00    +0.000 HD
ATOM     13  H   UNL     1      47.461  -1.058   7.170  0.00  0.00    +0.000 HD
ENDBRANCH   6   9
ENDBRANCH   1   3
BRANCH   1  15
ATOM     14  C   UNL     1      42.638   6.161  11.541  0.00  0.00    +0.000 C 
ATOM     15  C   UNL     1      43.682   5.090  11.206  0.00  0.00    +0.000 C 
BRANCH  15  16
ATOM     16  C   UNL     1      45.023   5.431  11.851  0.00  0.00    +0.000 A 
ATOM     17  C   UNL     1      45.453   4.733  12.994  0.00  0.00    +0.000 A 
ATOM     18  C   UNL     1      46.669   5.043  13.612  0.00  0.00    +0.000 A 
ATOM     19  C   UNL     1      47.474   6.057  13.097  0.00  0.00    +0.000 A 
ATOM     20  C   UNL     1      47.056   6.749  11.967  0.00  0.00    +0.000 A 
ATOM     21  F   UNL     1      47.827   7.727  11.474  0.00  0.00    +0.000 F 
ATOM     22  C   UNL     1      45.847   6.447  11.342  0.00  0.00    +0.000 A 
ENDBRANCH  15  16
ENDBRANCH   1  15
TORSDOF 4
ENDMDL
MODEL 3
REMARK VINA RESULT:    -7.546      2.014      2.408
REMARK INTER + INTRA:         -10.162
REMARK INTER:                  -9.531
REMARK INTRA:                  -0.631
REMARK UNBOUND:                -0.851
REMARK  Name = 
REMARK  5 active torsions:
REMARK  status: ('A' for Active; 'I' for Inactive)
REMARK    1  A    between atoms: C_1  and  C_2
REMARK    2  A    between atoms: C_2  and  N_3
REMARK    3  A    between atoms: C_2  and  C_13
REMARK    4  A    between atoms: N_3  and  C_4
REMARK    5  A    between atoms: C_7  and  C_8
REMARK                            x       y       z     vdW  Elec       q    Type
REMARK                         _______ _______ _______ _____ _____    ______ ____
ROOT
ATOM      1  N   UNL     1      43.977   3.615  10.488  0.00  0.00    +0.000 N 
ATOM      2  H   UNL     1      43.368   4.365  10.160  0.00  0.00    +0.000 HD
ENDROOT
BRANCH   1   3
ATOM      3  C   UNL     1      44.840   3.231   9.457  0.00  0.00    +0.000 A 
ATOM      4  C   UNL     1      45.403   4.246   8.673  0.00  0.00    +0.000 A 
ATOM      5  C   UNL     1      46.280   3.957   7.622  0.00  0.00    +0.000 A 
ATOM      6  C   UNL     1      46.652   2.636   7.362  0.00  0.00    +0.000 A 
ATOM      7  C   UNL     1      46.135   1.613   8.161  0.00  0.00    +0.000 A 
ATOM      8  C   UNL     1      45.242   1.914   9.204  0.00  0.00    +0.000 A 
BRANCH   6   9
ATOM      9  C   UNL     1      47.563   2.376   6.215  0.00  0.00    +0.000 C 
ATOM     10  N   UNL     1      47.345   3.069   5.057  0.00  0.00    +0.000 N 
ATOM     11  O   UNL     1      48.460   1.544   6.283  0.00  0.00    +0.000 OA
ATOM     12  H   UNL     1      46.486   3.567   4.874  0.00  0.00    +0.000 HD
ATOM     13  H   UNL     1      47.906   2.790   4.261  0.00  0.00    +0.000 HD
ENDBRANCH   6   9
ENDBRANCH   1   3
BRANCH   1  15
ATOM     14  C   UNL     1      43.351   3.737  12.869  0.00  0.00    +0.000 C 
ATOM     15  C   UNL     1      44.477   3.887  11.840  0.00  0.00    +0.000 C 
BRANCH  15  16
ATOM     16  C   UNL     1      45.053   5.301  11.882  0.00  0.00    +0.000 A 
ATOM     17  C   UNL     1      46.357   5.516  12.363  0.00  0.00    +0.000 A 
ATOM     18  C   UNL     1      46.898   6.805  12.429  0.00  0.00    +0.000 A 
ATOM     19  C   UNL     1      46.141   7.899  12.014  0.00  0.00    +0.000 A 
ATOM     20  C   UNL     1      44.853   7.692  11.535  0.00  0.00    +0.000 A 
ATOM     21  F   UNL     1      44.124   8.745  11.140  0.00  0.00    +0.000 F 
ATOM     22  C   UNL     1      44.306   6.413  11.464  0.00  0.00    +0.000 A 
ENDBRANCH  15  16
ENDBRANCH   1  15
TORSDOF 4
ENDMDL
MODEL 4
REMARK VINA RESULT:    -7.175      3.351      5.905
REMARK INTER + INTRA:          -9.704
REMARK INTER:                  -9.710
REMARK INTRA:                   0.007
REMARK UNBOUND:                -0.851
REMARK  Name = 
REMARK  5 active torsions:
REMARK  status: ('A' for Active; 'I' for Inactive)
REMARK    1  A    between atoms: C_1  and  C_2
REMARK    2  A    between atoms: C_2  and  N_3
REMARK    3  A    between atoms: C_2  and  C_13
REMARK    4  A    between atoms: N_3  and  C_4
REMARK    5  A    between atoms: C_7  and  C_8
REMARK                            x       y       z     vdW  Elec       q    Type
REMARK                         _______ _______ _______ _____ _____    ______ ____
ROOT
ATOM      1  N   UNL     1      44.288   5.084  10.199  0.00  0.00    +0.000 N 
ATOM      2  H   UNL     1      43.441   5.630  10.356  0.00  0.00    +0.000 HD
ENDROOT
BRANCH   1   3
ATOM      3  C   UNL     1      45.194   5.318  11.240  0.00  0.00    +0.000 A 
ATOM      4  C   UNL     1      46.235   6.223  10.998  0.00  0.00    +0.000 A 
ATOM      5  C   UNL     1      47.186   6.521  11.981  0.00  0.00    +0.000 A 
ATOM      6  C   UNL     1      47.086   5.950  13.251  0.00  0.00    +0.000 A 
ATOM      7  C   UNL     1      46.029   5.077  13.524  0.00  0.00    +0.000 A 
ATOM      8  C   UNL     1      45.089   4.773  12.525  0.00  0.00    +0.000 A 
BRANCH   6   9
ATOM      9  C   UNL     1      48.138   6.274  14.252  0.00  0.00    +0.000 C 
ATOM     10  N   UNL     1      47.848   6.065  15.572  0.00  0.00    +0.000 N 
ATOM     11  O   UNL     1      49.218   6.746  13.919  0.00  0.00    +0.000 OA
ATOM     12  H   UNL     1      46.907   5.919  15.906  0.00  0.00    +0.000 HD
ATOM     13  H   UNL     1      48.537   6.399  16.235  0.00  0.00    +0.000 HD
ENDBRANCH   6   9
ENDBRANCH   1   3
BRANCH   1  15
ATOM     14  C   UNL     1      43.803   2.791  10.963  0.00  0.00    +0.000 C 
ATOM     15  C   UNL     1      43.970   3.722   9.757  0.00  0.00    +0.000 C 
BRANCH  15  16
ATOM     16  C   UNL     1      45.088   3.221   8.846  0.00  0.00    +0.000 A 
ATOM     17  C   UNL     1      45.759   4.118   7.995  0.00  0.00    +0.000 A 
ATOM     18  C   UNL     1      46.773   3.677   7.138  0.00  0.00    +0.000 A 
ATOM     19  C   UNL     1      47.131   2.331   7.119  0.00  0.00    +0.000 A 
ATOM     20  C   UNL     1      46.474   1.440   7.959  0.00  0.00    +0.000 A 
ATOM     21  F   UNL     1      46.816   0.145   7.936  0.00  0.00    +0.000 F 
ATOM     22  C   UNL     1      45.464   1.869   8.817  0.00  0.00    +0.000 A 
ENDBRANCH  15  16
ENDBRANCH   1  15
TORSDOF 4
ENDMDL
MODEL 5
REMARK VINA RESULT:    -6.700      3.783      6.453
REMARK INTER + INTRA:          -9.118
REMARK INTER:                  -8.496
REMARK INTRA:                  -0.622
REMARK UNBOUND:                -0.851
REMARK  Name = 
REMARK  5 active torsions:
REMARK  status: ('A' for Active; 'I' for Inactive)
REMARK    1  A    between atoms: C_1  and  C_2
REMARK    2  A    between atoms: C_2  and  N_3
REMARK    3  A    between atoms: C_2  and  C_13
REMARK    4  A    between atoms: N_3  and  C_4
REMARK    5  A    between atoms: C_7  and  C_8
REMARK                            x       y       z     vdW  Elec       q    Type
REMARK                         _______ _______ _______ _____ _____    ______ ____
ROOT
ATOM      1  N   UNL     1      45.208   4.601  11.607  0.00  0.00    +0.000 N 
ATOM      2  H   UNL     1      46.118   4.140  11.578  0.00  0.00    +0.000 HD
ENDROOT
BRANCH   1   3
ATOM      3  C   UNL     1      45.390   5.984  11.714  0.00  0.00    +0.000 A 
ATOM      4  C   UNL     1      46.668   6.443  12.059  0.00  0.00    +0.000 A 
ATOM      5  C   UNL     1      46.943   7.809  12.186  0.00  0.00    +0.000 A 
ATOM      6  C   UNL     1      45.949   8.753  11.922  0.00  0.00    +0.000 A 
ATOM      7  C   UNL     1      44.679   8.315  11.535  0.00  0.00    +0.000 A 
ATOM      8  C   UNL     1      44.410   6.941  11.426  0.00  0.00    +0.000 A 
BRANCH   6   9
ATOM      9  C   UNL     1      46.282  10.193  12.100  0.00  0.00    +0.000 C 
ATOM     10  N   UNL     1      45.246  11.083  12.166  0.00  0.00    +0.000 N 
ATOM     11  O   UNL     1      47.442  10.582  12.152  0.00  0.00    +0.000 OA
ATOM     12  H   UNL     1      44.306  10.847  11.883  0.00  0.00    +0.000 HD
ATOM     13  H   UNL     1      45.504  12.062  12.173  0.00  0.00    +0.000 HD
ENDBRANCH   6   9
ENDBRANCH   1   3
BRANCH   1  15
ATOM     14  C   UNL     1      43.442   2.918  11.258  0.00  0.00    +0.000 C 
ATOM     15  C   UNL     1      44.287   4.027  10.621  0.00  0.00    +0.000 C 
BRANCH  15  16
ATOM     16  C   UNL     1      45.094   3.476   9.448  0.00  0.00    +0.000 A 
ATOM     17  C   UNL     1      45.647   4.355   8.499  0.00  0.00    +0.000 A 
ATOM     18  C   UNL     1      46.373   3.871   7.406  0.00  0.00    +0.000 A 
ATOM     19  C   UNL     1      46.557   2.499   7.244  0.00  0.00    +0.000 A 
ATOM     20  C   UNL     1      46.016   1.626   8.180  0.00  0.00    +0.000 A 
ATOM     21  F   UNL     1      46.189   0.307   8.022  0.00  0.00    +0.000 F 
ATOM     22  C   UNL     1      45.293   2.097   9.273  0.00  0.00    +0.000 A 
ENDBRANCH  15  16
ENDBRANCH   1  15
TORSDOF 4
ENDMDL
MODEL 6
REMARK VINA RESULT:    -6.300      3.985      6.375
REMARK INTER + INTRA:          -8.624
REMARK INTER:                  -7.984
REMARK INTRA:                  -0.641
REMARK UNBOUND:                -0.851
REMARK  Name = 
REMARK  5 active torsions:
REMARK  status: ('A' for Active; 'I' for Inactive)
REMARK    1  A    between atoms: C_1  and  C_2
REMARK    2  A    between atoms: C_2  and  N_3
REMARK    3  A    between atoms: C_2  and  C_13
REMARK    4  A    between atoms: N_3  and  C_4
REMARK    5  A    between atoms: C_7  and  C_8
REMARK                            x       y       z     vdW  Elec       q    Type
REMARK                         _______ _______ _______ _____ _____    ______ ____
ROOT
ATOM      1  N   UNL     1      45.225   4.992  12.136  0.00  0.00    +0.000 N 
ATOM      2  H   UNL     1      45.462   4.008  12.266  0.00  0.00    +0.000 HD
ENDROOT
BRANCH   1   3
ATOM      3  C   UNL     1      46.350   5.781  12.396  0.00  0.00    +0.000 A 
ATOM      4  C   UNL     1      47.006   5.588  13.619  0.00  0.00    +0.000 A 
ATOM      5  C   UNL     1      48.141   6.330  13.963  0.00  0.00    +0.000 A 
ATOM      6  C   UNL     1      48.676   7.254  13.064  0.00  0.00    +0.000 A 
ATOM      7  C   UNL     1      48.061   7.429  11.821  0.00  0.00    +0.000 A 
ATOM      8  C   UNL     1      46.912   6.690  11.492  0.00  0.00    +0.000 A 
BRANCH   6   9
ATOM      9  C   UNL     1      49.866   8.041  13.488  0.00  0.00    +0.000 C 
ATOM     10  N   UNL     1      50.736   7.457  14.367  0.00  0.00    +0.000 N 
ATOM     11  O   UNL     1      50.052   9.186  13.097  0.00  0.00    +0.000 OA
ATOM     12  H   UNL     1      50.500   6.632  14.899  0.00  0.00    +0.000 HD
ATOM     13  H   UNL     1      51.472   8.054  14.724  0.00  0.00    +0.000 HD
ENDBRANCH   6   9
ENDBRANCH   1   3
BRANCH   1  15
ATOM     14  C   UNL     1      42.930   4.987  11.239  0.00  0.00    +0.000 C 
ATOM     15  C   UNL     1      44.417   5.191  10.928  0.00  0.00    +0.000 C 
BRANCH  15  16
ATOM     16  C   UNL     1      44.877   4.208   9.855  0.00  0.00    +0.000 A 
ATOM     17  C   UNL     1      44.643   2.830  10.013  0.00  0.00    +0.000 A 
ATOM     18  C   UNL     1      45.074   1.911   9.051  0.00  0.00    +0.000 A 
ATOM     19  C   UNL     1      45.748   2.356   7.915  0.00  0.00    +0.000 A 
ATOM     20  C   UNL     1      45.980   3.716   7.751  0.00  0.00    +0.000 A 
ATOM     21  F   UNL     1      46.631   4.143   6.661  0.00  0.00    +0.000 F 
ATOM     22  C   UNL     1      45.553   4.641   8.702  0.00  0.00    +0.000 A 
ENDBRANCH  15  16
ENDBRANCH   1  15
TORSDOF 4
ENDMDL
MODEL 7
REMARK VINA RESULT:    -5.860      4.144      6.804
REMARK INTER + INTRA:          -8.081
REMARK INTER:                  -7.522
REMARK INTRA:                  -0.559
REMARK UNBOUND:                -0.851
REMARK  Name = 
REMARK  5 active torsions:
REMARK  status: ('A' for Active; 'I' for Inactive)
REMARK    1  A    between atoms: C_1  and  C_2
REMARK    2  A    between atoms: C_2  and  N_3
REMARK    3  A    between atoms: C_2  and  C_13
REMARK    4  A    between atoms: N_3  and  C_4
REMARK    5  A    between atoms: C_7  and  C_8
REMARK                            x       y       z     vdW  Elec       q    Type
REMARK                         _______ _______ _______ _____ _____    ______ ____
ROOT
ATOM      1  N   UNL     1      47.624   6.679  12.331  0.00  0.00    +0.000 N 
ATOM      2  H   UNL     1      48.470   7.241  12.240  0.00  0.00    +0.000 HD
ENDROOT
BRANCH   1   3
ATOM      3  C   UNL     1      47.615   6.048  13.579  0.00  0.00    +0.000 A 
ATOM      4  C   UNL     1      46.936   4.827  13.680  0.00  0.00    +0.000 A 
ATOM      5  C   UNL     1      46.877   4.123  14.888  0.00  0.00    +0.000 A 
ATOM      6  C   UNL     1      47.541   4.606  16.017  0.00  0.00    +0.000 A 
ATOM      7  C   UNL     1      48.260   5.801  15.923  0.00  0.00    +0.000 A 
ATOM      8  C   UNL     1      48.300   6.508  14.710  0.00  0.00    +0.000 A 
BRANCH   6   9
ATOM      9  C   UNL     1      47.423   3.837  17.285  0.00  0.00    +0.000 C 
ATOM     10  N   UNL     1      48.276   4.155  18.305  0.00  0.00    +0.000 N 
ATOM     11  O   UNL     1      46.617   2.923  17.410  0.00  0.00    +0.000 OA
ATOM     12  H   UNL     1      49.105   4.715  18.167  0.00  0.00    +0.000 HD
ATOM     13  H   UNL     1      48.250   3.543  19.111  0.00  0.00    +0.000 HD
ENDBRANCH   6   9
ENDBRANCH   1   3
BRANCH   1  15
ATOM     14  C   UNL     1      45.834   8.258  12.947  0.00  0.00    +0.000 C 
ATOM     15  C   UNL     1      46.448   7.402  11.834  0.00  0.00    +0.000 C 
BRANCH  15  16
ATOM     16  C   UNL     1      45.428   6.393  11.312  0.00  0.00    +0.000 A 
ATOM     17  C   UNL     1      45.772   5.523  10.261  0.00  0.00    +0.000 A 
ATOM     18  C   UNL     1      44.846   4.605   9.754  0.00  0.00    +0.000 A 
ATOM     19  C   UNL     1      43.562   4.542  10.291  0.00  0.00    +0.000 A 
ATOM     20  C   UNL     1      43.217   5.396  11.331  0.00  0.00    +0.000 A 
ATOM     21  F   UNL     1      41.981   5.338  11.844  0.00  0.00    +0.000 F 
ATOM     22  C   UNL     1      44.131   6.314  11.845  0.00  0.00    +0.000 A 
ENDBRANCH  15  16
ENDBRANCH   1  15
TORSDOF 4
ENDMDL
