MODEL 1
REMARK VINA RESULT:    -8.013      0.000      0.000
REMARK INTER + INTRA:         -10.447
REMARK INTER:                  -9.887
REMARK INTRA:                  -0.560
REMARK UNBOUND:                -0.560
REMARK  Name = 
REMARK  4 active torsions:
REMARK  status: ('A' for Active; 'I' for Inactive)
REMARK    1  A    between atoms: C_2  and  C_3
REMARK    2  A    between atoms: C_7  and  C_8
REMARK    3  A    between atoms: C_8  and  N_9
REMARK    4  A    between atoms: C_14  and  C_15
REMARK                            x       y       z     vdW  Elec       q    Type
REMARK                         _______ _______ _______ _____ _____    ______ ____
ROOT
ATOM      1  N   UNL     1      44.718   4.907  11.016  0.00  0.00    +0.000 N 
ATOM      2  C   UNL     1      44.466   6.257  11.099  0.00  0.00    +0.000 A 
ATOM      3  C   UNL     1      45.056   6.733  12.246  0.00  0.00    +0.000 A 
ATOM      4  C   UNL     1      45.683   5.638  12.899  0.00  0.00    +0.000 A 
ATOM      5  C   UNL     1      46.396   5.507  14.099  0.00  0.00    +0.000 A 
ATOM      6  C   UNL     1      46.850   4.232  14.413  0.00  0.00    +0.000 A 
ATOM      7  N   UNL     1      46.662   3.128  13.637  0.00  0.00    +0.000 NA
ATOM      8  C   UNL     1      45.976   3.260  12.478  0.00  0.00    +0.000 A 
ATOM      9  C   UNL     1      45.474   4.506  12.106  0.00  0.00    +0.000 A 
ENDROOT
BRANCH   6  10
ATOM     10  C   UNL     1      47.587   4.025  15.705  0.00  0.00    +0.000 C 
ATOM     11  N   UNL     1      47.553   5.065  16.595  0.00  0.00    +0.000 N 
ATOM     12  O   UNL     1      48.196   2.994  15.962  0.00  0.00    +0.000 OA
ATOM     13  H   UNL     1      47.055   5.918  16.364  0.00  0.00    +0.000 HD
ATOM     14  H   UNL     1      48.046   4.979  17.473  0.00  0.00    +0.000 HD
ENDBRANCH   6  10
BRANCH   1  15
ATOM     15  C   UNL     1      44.133   4.030  10.003  0.00  0.00    +0.000 C 
BRANCH  15  20
ATOM     16  C   UNL     1      46.338   1.753   7.871  0.00  0.00    +0.000 A 
ATOM     17  C   UNL     1      46.986   2.677   7.047  0.00  0.00    +0.000 A 
ATOM     18  C   UNL     1      46.741   4.040   7.206  0.00  0.00    +0.000 A 
ATOM     19  C   UNL     1      45.836   4.482   8.176  0.00  0.00    +0.000 A 
ATOM     20  C   UNL     1      45.149   3.566   8.986  0.00  0.00    +0.000 A 
ATOM     21  C   UNL     1      45.420   2.197   8.833  0.00  0.00    +0.000 A 
BRANCH  16  23
ATOM     22  N   UNL     1      46.831  -0.782   7.632  0.00  0.00    +0.000 NA
ATOM     23  C   UNL     1      46.618   0.354   7.739  0.00  0.00    +0.000 C 
ENDBRANCH  16  23
ENDBRANCH  15  20
ENDBRANCH   1  15
TORSDOF 4
ENDMDL
MODEL 2
REMARK VINA RESULT:    -7.599      1.694      2.075
REMARK INTER + INTRA:          -9.936
REMARK INTER:                  -9.368
REMARK INTRA:                  -0.569
REMARK UNBOUND:                -0.560
REMARK  Name = 
REMARK  4 active torsions:
REMARK  status: ('A' for Active; 'I' for Inactive)
REMARK    1  A    between atoms: C_2  and  C_3
REMARK    2  A    between atoms: C_7  and  C_8
REMARK    3  A    between atoms: C_8  and  N_9
REMARK    4  A    between atoms: C_14  and  C_15
REMARK                            x       y       z     vdW  Elec       q    Type
REMARK                         _______ _______ _______ _____ _____    ______ ____
ROOT
ATOM      1  N   UNL     1      44.413   4.200  10.681  0.00  0.00    +0.000 N 
ATOM      2  C   UNL     1      43.853   3.231  11.481  0.00  0.00    +0.000 A 
ATOM      3  C   UNL     1      44.380   3.362  12.744  0.00  0.00    +0.000 A 
ATOM      4  C   UNL     1      45.304   4.441  12.720  0.00  0.00    +0.000 A 
ATOM      5  C   UNL     1      46.153   5.009  13.680  0.00  0.00    +0.000 A 
ATOM      6  C   UNL     1      46.942   6.072  13.258  0.00  0.00    +0.000 A 
ATOM      7  N   UNL     1      46.931   6.594  12.000  0.00  0.00    +0.000 NA
ATOM      8  C   UNL     1      46.108   6.045  11.077  0.00  0.00    +0.000 A 
ATOM      9  C   UNL     1      45.300   4.963  11.423  0.00  0.00    +0.000 A 
ENDROOT
BRANCH   6  10
ATOM     10  C   UNL     1      47.899   6.695  14.234  0.00  0.00    +0.000 C 
ATOM     11  N   UNL     1      47.693   8.018  14.521  0.00  0.00    +0.000 N 
ATOM     12  O   UNL     1      48.821   6.073  14.745  0.00  0.00    +0.000 OA
ATOM     13  H   UNL     1      46.933   8.524  14.080  0.00  0.00    +0.000 HD
ATOM     14  H   UNL     1      48.319   8.486  15.162  0.00  0.00    +0.000 HD
ENDBRANCH   6  10
BRANCH   1  15
ATOM     15  C   UNL     1      44.201   4.287   9.236  0.00  0.00    +0.000 C 
BRANCH  15  20
ATOM     16  C   UNL     1      46.527   1.698   7.662  0.00  0.00    +0.000 A 
ATOM     17  C   UNL     1      47.399   2.508   6.931  0.00  0.00    +0.000 A 
ATOM     18  C   UNL     1      47.261   3.895   6.977  0.00  0.00    +0.000 A 
ATOM     19  C   UNL     1      46.242   4.474   7.740  0.00  0.00    +0.000 A 
ATOM     20  C   UNL     1      45.335   3.674   8.450  0.00  0.00    +0.000 A 
ATOM     21  C   UNL     1      45.497   2.279   8.414  0.00  0.00    +0.000 A 
BRANCH  16  23
ATOM     22  N   UNL     1      46.811  -0.879   7.633  0.00  0.00    +0.000 NA
ATOM     23  C   UNL     1      46.690   0.275   7.650  0.00  0.00    +0.000 C 
ENDBRANCH  16  23
ENDBRANCH  15  20
ENDBRANCH   1  15
TORSDOF 4
ENDMDL
MODEL 3
REMARK VINA RESULT:    -7.590      2.715      6.587
REMARK INTER + INTRA:          -9.925
REMARK INTER:                  -9.429
REMARK INTRA:                  -0.496
REMARK UNBOUND:                -0.560
REMARK  Name = 
REMARK  4 active torsions:
REMARK  status: ('A' for Active; 'I' for Inactive)
REMARK    1  A    between atoms: C_2  and  C_3
REMARK    2  A    between atoms: C_7  and  C_8
REMARK    3  A    between atoms: C_8  and  N_9
REMARK    4  A    between atoms: C_14  and  C_15
REMARK                            x       y       z     vdW  Elec       q    Type
REMARK                         _______ _______ _______ _____ _____    ______ ____
ROOT
ATOM      1  N   UNL     1      44.028   4.372  10.602  0.00  0.00    +0.000 N 
ATOM      2  C   UNL     1      43.543   3.211  11.159  0.00  0.00    +0.000 A 
ATOM      3  C   UNL     1      44.106   2.149  10.492  0.00  0.00    +0.000 A 
ATOM      4  C   UNL     1      44.956   2.672   9.482  0.00  0.00    +0.000 A 
ATOM      5  C   UNL     1      45.752   2.085   8.487  0.00  0.00    +0.000 A 
ATOM      6  C   UNL     1      46.444   2.955   7.654  0.00  0.00    +0.000 A 
ATOM      7  N   UNL     1      46.411   4.313   7.752  0.00  0.00    +0.000 NA
ATOM      8  C   UNL     1      45.645   4.876   8.714  0.00  0.00    +0.000 A 
ATOM      9  C   UNL     1      44.906   4.066   9.576  0.00  0.00    +0.000 A 
ENDROOT
BRANCH   6  10
ATOM     10  C   UNL     1      47.282   2.383   6.547  0.00  0.00    +0.000 C 
ATOM     11  N   UNL     1      47.238   3.047   5.350  0.00  0.00    +0.000 N 
ATOM     12  O   UNL     1      47.964   1.376   6.686  0.00  0.00    +0.000 OA
ATOM     13  H   UNL     1      46.659   3.873   5.246  0.00  0.00    +0.000 HD
ATOM     14  H   UNL     1      47.774   2.693   4.570  0.00  0.00    +0.000 HD
ENDBRANCH   6  10
BRANCH   1  15
ATOM     15  C   UNL     1      43.550   5.708  10.958  0.00  0.00    +0.000 C 
BRANCH  15  20
ATOM     16  C   UNL     1      46.540   6.662  13.136  0.00  0.00    +0.000 A 
ATOM     17  C   UNL     1      46.627   8.038  12.910  0.00  0.00    +0.000 A 
ATOM     18  C   UNL     1      45.696   8.665  12.084  0.00  0.00    +0.000 A 
ATOM     19  C   UNL     1      44.686   7.919  11.469  0.00  0.00    +0.000 A 
ATOM     20  C   UNL     1      44.606   6.531  11.656  0.00  0.00    +0.000 A 
ATOM     21  C   UNL     1      45.536   5.912  12.508  0.00  0.00    +0.000 A 
BRANCH  16  23
ATOM     22  N   UNL     1      48.216   5.504  14.740  0.00  0.00    +0.000 NA
ATOM     23  C   UNL     1      47.469   6.019  14.016  0.00  0.00    +0.000 C 
ENDBRANCH  16  23
ENDBRANCH  15  20
ENDBRANCH   1  15
TORSDOF 4
ENDMDL
MODEL 4
REMARK VINA RESULT:    -7.391      3.257      7.078
REMARK INTER + INTRA:          -9.679
REMARK INTER:                  -9.209
REMARK INTRA:                  -0.469
REMARK UNBOUND:                -0.560
REMARK  Name = 
REMARK  4 active torsions:
REMARK  status: ('A' for Active; 'I' for Inactive)
REMARK    1  A    between atoms: C_2  and  C_3
REMARK    2  A    between atoms: C_7  and  C_8
REMARK    3  A    between atoms: C_8  and  N_9
REMARK    4  A    between atoms: C_14  and  C_15
REMARK                            x       y       z     vdW  Elec       q    Type
REMARK                         _______ _______ _______ _____ _____    ______ ____
ROOT
ATOM      1  N   UNL     1      44.056   4.351  10.522  0.00  0.00    +0.000 N 
ATOM      2  C   UNL     1      43.582   3.187  11.082  0.00  0.00    +0.000 A 
ATOM      3  C   UNL     1      44.163   2.128  10.425  0.00  0.00    +0.000 A 
ATOM      4  C   UNL     1      45.014   2.656   9.418  0.00  0.00    +0.000 A 
ATOM      5  C   UNL     1      45.824   2.074   8.432  0.00  0.00    +0.000 A 
ATOM      6  C   UNL     1      46.511   2.947   7.599  0.00  0.00    +0.000 A 
ATOM      7  N   UNL     1      46.460   4.306   7.688  0.00  0.00    +0.000 NA
ATOM      8  C   UNL     1      45.680   4.864   8.642  0.00  0.00    +0.000 A 
ATOM      9  C   UNL     1      44.945   4.050   9.504  0.00  0.00    +0.000 A 
ENDROOT
BRANCH   6  10
ATOM     10  C   UNL     1      47.364   2.380   6.501  0.00  0.00    +0.000 C 
ATOM     11  N   UNL     1      47.316   3.034   5.298  0.00  0.00    +0.000 N 
ATOM     12  O   UNL     1      48.061   1.385   6.652  0.00  0.00    +0.000 OA
ATOM     13  H   UNL     1      46.724   3.849   5.184  0.00  0.00    +0.000 HD
ATOM     14  H   UNL     1      47.861   2.681   4.524  0.00  0.00    +0.000 HD
ENDBRANCH   6  10
BRANCH   1  15
ATOM     15  C   UNL     1      43.558   5.682  10.866  0.00  0.00    +0.000 C 
BRANCH  15  20
ATOM     16  C   UNL     1      45.550   8.688  12.126  0.00  0.00    +0.000 A 
ATOM     17  C   UNL     1      46.455   8.082  13.001  0.00  0.00    +0.000 A 
ATOM     18  C   UNL     1      46.448   6.696  13.155  0.00  0.00    +0.000 A 
ATOM     19  C   UNL     1      45.528   5.915  12.450  0.00  0.00    +0.000 A 
ATOM     20  C   UNL     1      44.588   6.511  11.596  0.00  0.00    +0.000 A 
ATOM     21  C   UNL     1      44.619   7.906  11.431  0.00  0.00    +0.000 A 
BRANCH  16  23
ATOM     22  N   UNL     1      45.618  11.257  11.778  0.00  0.00    +0.000 NA
ATOM     23  C   UNL     1      45.580  10.107  11.933  0.00  0.00    +0.000 C 
ENDBRANCH  16  23
ENDBRANCH  15  20
ENDBRANCH   1  15
TORSDOF 4
ENDMDL
MODEL 5
REMARK VINA RESULT:    -6.949      1.662      2.355
REMARK INTER + INTRA:          -9.134
REMARK INTER:                  -8.668
REMARK INTRA:                  -0.466
REMARK UNBOUND:                -0.560
REMARK  Name = 
REMARK  4 active torsions:
REMARK  status: ('A' for Active; 'I' for Inactive)
REMARK    1  A    between atoms: C_2  and  C_3
REMARK    2  A    between atoms: C_7  and  C_8
REMARK    3  A    between atoms: C_8  and  N_9
REMARK    4  A    between atoms: C_14  and  C_15
REMARK                            x       y       z     vdW  Elec       q    Type
REMARK                         _______ _______ _______ _____ _____    ______ ____
ROOT
ATOM      1  N   UNL     1      46.094   6.156  11.594  0.00  0.00    +0.000 N 
ATOM      2  C   UNL     1      47.047   7.096  11.278  0.00  0.00    +0.000 A 
ATOM      3  C   UNL     1      47.969   7.132  12.297  0.00  0.00    +0.000 A 
ATOM      4  C   UNL     1      47.565   6.190  13.280  0.00  0.00    +0.000 A 
ATOM      5  C   UNL     1      48.080   5.814  14.530  0.00  0.00    +0.000 A 
ATOM      6  C   UNL     1      47.373   4.840  15.223  0.00  0.00    +0.000 A 
ATOM      7  N   UNL     1      46.243   4.229  14.768  0.00  0.00    +0.000 NA
ATOM      8  C   UNL     1      45.751   4.592  13.561  0.00  0.00    +0.000 A 
ATOM      9  C   UNL     1      46.397   5.577  12.815  0.00  0.00    +0.000 A 
ENDROOT
BRANCH   6  10
ATOM     10  C   UNL     1      47.857   4.426  16.584  0.00  0.00    +0.000 C 
ATOM     11  N   UNL     1      47.164   4.932  17.651  0.00  0.00    +0.000 N 
ATOM     12  O   UNL     1      48.818   3.686  16.747  0.00  0.00    +0.000 OA
ATOM     13  H   UNL     1      46.377   5.554  17.502  0.00  0.00    +0.000 HD
ATOM     14  H   UNL     1      47.461   4.694  18.588  0.00  0.00    +0.000 HD
ENDBRANCH   6  10
BRANCH   1  15
ATOM     15  C   UNL     1      44.877   5.935  10.814  0.00  0.00    +0.000 C 
BRANCH  15  20
ATOM     16  C   UNL     1      45.633   3.350   8.105  0.00  0.00    +0.000 A 
ATOM     17  C   UNL     1      45.048   2.199   8.640  0.00  0.00    +0.000 A 
ATOM     18  C   UNL     1      44.374   2.267   9.859  0.00  0.00    +0.000 A 
ATOM     19  C   UNL     1      44.298   3.478  10.554  0.00  0.00    +0.000 A 
ATOM     20  C   UNL     1      44.912   4.633  10.049  0.00  0.00    +0.000 A 
ATOM     21  C   UNL     1      45.568   4.560   8.809  0.00  0.00    +0.000 A 
BRANCH  16  23
ATOM     22  N   UNL     1      46.834   3.246   5.809  0.00  0.00    +0.000 NA
ATOM     23  C   UNL     1      46.290   3.295   6.833  0.00  0.00    +0.000 C 
ENDBRANCH  16  23
ENDBRANCH  15  20
ENDBRANCH   1  15
TORSDOF 4
ENDMDL
MODEL 6
REMARK VINA RESULT:    -6.242      2.075      2.635
REMARK INTER + INTRA:          -8.261
REMARK INTER:                  -7.903
REMARK INTRA:                  -0.358
REMARK UNBOUND:                -0.560
REMARK  Name = 
REMARK  4 active torsions:
REMARK  status: ('A' for Active; 'I' for Inactive)
REMARK    1  A    between atoms: C_2  and  C_3
REMARK    2  A    between atoms: C_7  and  C_8
REMARK    3  A    between atoms: C_8  and  N_9
REMARK    4  A    between atoms: C_14  and  C_15
REMARK                            x       y       z     vdW  Elec       q    Type
REMARK                         _______ _______ _______ _____ _____    ______ ____
ROOT
ATOM      1  N   UNL     1      44.322   4.715  10.835  0.00  0.00    +0.000 N 
ATOM      2  C   UNL     1      43.538   4.021  11.727  0.00  0.00    +0.000 A 
ATOM      3  C   UNL     1      44.054   4.209  12.988  0.00  0.00    +0.000 A 
ATOM      4  C   UNL     1      45.202   5.037  12.867  0.00  0.00    +0.000 A 
ATOM      5  C   UNL     1      46.140   5.530  13.786  0.00  0.00    +0.000 A 
ATOM      6  C   UNL     1      47.161   6.316  13.267  0.00  0.00    +0.000 A 
ATOM      7  N   UNL     1      47.297   6.642  11.951  0.00  0.00    +0.000 NA
ATOM      8  C   UNL     1      46.389   6.167  11.069  0.00  0.00    +0.000 A 
ATOM      9  C   UNL     1      45.345   5.356  11.514  0.00  0.00    +0.000 A 
ENDROOT
BRANCH   6  10
ATOM     10  C   UNL     1      48.215   6.840  14.200  0.00  0.00    +0.000 C 
ATOM     11  N   UNL     1      48.424   8.194  14.177  0.00  0.00    +0.000 N 
ATOM     12  O   UNL     1      48.867   6.113  14.938  0.00  0.00    +0.000 OA
ATOM     13  H   UNL     1      47.885   8.783  13.551  0.00  0.00    +0.000 HD
ATOM     14  H   UNL     1      49.133   8.593  14.777  0.00  0.00    +0.000 HD
ENDBRANCH   6  10
BRANCH   1  15
ATOM     15  C   UNL     1      44.165   4.640   9.383  0.00  0.00    +0.000 C 
BRANCH  15  20
ATOM     16  C   UNL     1      46.436   2.526   7.154  0.00  0.00    +0.000 A 
ATOM     17  C   UNL     1      46.271   1.253   7.707  0.00  0.00    +0.000 A 
ATOM     18  C   UNL     1      45.395   1.071   8.777  0.00  0.00    +0.000 A 
ATOM     19  C   UNL     1      44.696   2.159   9.306  0.00  0.00    +0.000 A 
ATOM     20  C   UNL     1      44.878   3.449   8.787  0.00  0.00    +0.000 A 
ATOM     21  C   UNL     1      45.745   3.619   7.695  0.00  0.00    +0.000 A 
BRANCH  16  23
ATOM     22  N   UNL     1      47.998   2.852   5.110  0.00  0.00    +0.000 NA
ATOM     23  C   UNL     1      47.302   2.712   6.029  0.00  0.00    +0.000 C 
ENDBRANCH  16  23
ENDBRANCH  15  20
ENDBRANCH   1  15
TORSDOF 4
ENDMDL
MODEL 7
REMARK VINA RESULT:    -5.887      3.307      4.061
REMARK INTER + INTRA:          -7.823
REMARK INTER:                  -7.604
REMARK INTRA:                  -0.220
REMARK UNBOUND:                -0.560
REMARK  Name = 
REMARK  4 active torsions:
REMARK  status: ('A' for Active; 'I' for Inactive)
REMARK    1  A    between atoms: C_2  and  C_3
REMARK    2  A    between atoms: C_7  and  C_8
REMARK    3  A    between atoms: C_8  and  N_9
REMARK    4  A    between atoms: C_14  and  C_15
REMARK                            x       y       z     vdW  Elec       q    Type
REMARK                         _______ _______ _______ _____ _____    ______ ____
ROOT
ATOM      1  N   UNL     1      46.024   6.074  12.203  0.00  0.00    +0.000 N 
ATOM      2  C   UNL     1      45.968   5.100  13.172  0.00  0.00    +0.000 A 
ATOM      3  C   UNL     1      47.086   5.217  13.963  0.00  0.00    +0.000 A 
ATOM      4  C   UNL     1      47.864   6.293  13.458  0.00  0.00    +0.000 A 
ATOM      5  C   UNL     1      49.098   6.850  13.823  0.00  0.00    +0.000 A 
ATOM      6  C   UNL     1      49.550   7.913  13.053  0.00  0.00    +0.000 A 
ATOM      7  N   UNL     1      48.876   8.448  11.997  0.00  0.00    +0.000 NA
ATOM      8  C   UNL     1      47.685   7.910  11.649  0.00  0.00    +0.000 A 
ATOM      9  C   UNL     1      47.175   6.827  12.365  0.00  0.00    +0.000 A 
ENDROOT
BRANCH   6  10
ATOM     10  C   UNL     1      50.884   8.524  13.375  0.00  0.00    +0.000 C 
ATOM     11  N   UNL     1      51.961   8.016  12.699  0.00  0.00    +0.000 N 
ATOM     12  O   UNL     1      51.020   9.420  14.199  0.00  0.00    +0.000 OA
ATOM     13  H   UNL     1      51.835   7.266  12.028  0.00  0.00    +0.000 HD
ATOM     14  H   UNL     1      52.882   8.385  12.891  0.00  0.00    +0.000 HD
ENDBRANCH   6  10
BRANCH   1  15
ATOM     15  C   UNL     1      45.077   6.175  11.093  0.00  0.00    +0.000 C 
BRANCH  15  20
ATOM     16  C   UNL     1      45.502   3.512   8.387  0.00  0.00    +0.000 A 
ATOM     17  C   UNL     1      44.771   2.448   8.921  0.00  0.00    +0.000 A 
ATOM     18  C   UNL     1      44.108   2.602  10.138  0.00  0.00    +0.000 A 
ATOM     19  C   UNL     1      44.186   3.813  10.832  0.00  0.00    +0.000 A 
ATOM     20  C   UNL     1      44.946   4.880  10.329  0.00  0.00    +0.000 A 
ATOM     21  C   UNL     1      45.591   4.721   9.091  0.00  0.00    +0.000 A 
BRANCH  16  23
ATOM     22  N   UNL     1      46.689   3.259   6.096  0.00  0.00    +0.000 NA
ATOM     23  C   UNL     1      46.151   3.373   7.118  0.00  0.00    +0.000 C 
ENDBRANCH  16  23
ENDBRANCH  15  20
ENDBRANCH   1  15
TORSDOF 4
ENDMDL
MODEL 8
REMARK VINA RESULT:    -5.846      4.341      6.416
REMARK INTER + INTRA:          -7.773
REMARK INTER:                  -7.229
REMARK INTRA:                  -0.544
REMARK UNBOUND:                -0.560
REMARK  Name = 
REMARK  4 active torsions:
REMARK  status: ('A' for Active; 'I' for Inactive)
REMARK    1  A    between atoms: C_2  and  C_3
REMARK    2  A    between atoms: C_7  and  C_8
REMARK    3  A    between atoms: C_8  and  N_9
REMARK    4  A    between atoms: C_14  and  C_15
REMARK                            x       y       z     vdW  Elec       q    Type
REMARK                         _______ _______ _______ _____ _____    ______ ____
ROOT
ATOM      1  N   UNL     1      47.239   6.888  12.832  0.00  0.00    +0.000 N 
ATOM      2  C   UNL     1      47.668   6.368  14.032  0.00  0.00    +0.000 A 
ATOM      3  C   UNL     1      47.138   5.106  14.166  0.00  0.00    +0.000 A 
ATOM      4  C   UNL     1      46.347   4.844  13.015  0.00  0.00    +0.000 A 
ATOM      5  C   UNL     1      45.553   3.759  12.614  0.00  0.00    +0.000 A 
ATOM      6  C   UNL     1      44.902   3.887  11.394  0.00  0.00    +0.000 A 
ATOM      7  N   UNL     1      44.996   4.971  10.574  0.00  0.00    +0.000 NA
ATOM      8  C   UNL     1      45.765   6.013  10.963  0.00  0.00    +0.000 A 
ATOM      9  C   UNL     1      46.435   5.965  12.185  0.00  0.00    +0.000 A 
ENDROOT
BRANCH   6  10
ATOM     10  C   UNL     1      44.008   2.772  10.931  0.00  0.00    +0.000 C 
ATOM     11  N   UNL     1      44.406   2.106   9.803  0.00  0.00    +0.000 N 
ATOM     12  O   UNL     1      42.974   2.469  11.512  0.00  0.00    +0.000 OA
ATOM     13  H   UNL     1      45.259   2.376   9.325  0.00  0.00    +0.000 HD
ATOM     14  H   UNL     1      43.830   1.357   9.444  0.00  0.00    +0.000 HD
ENDBRANCH   6  10
BRANCH   1  15
ATOM     15  C   UNL     1      47.486   8.265  12.407  0.00  0.00    +0.000 C 
BRANCH  15  20
ATOM     16  C   UNL     1      51.097   8.104  11.173  0.00  0.00    +0.000 A 
ATOM     17  C   UNL     1      51.686   9.154  11.883  0.00  0.00    +0.000 A 
ATOM     18  C   UNL     1      50.925   9.890  12.790  0.00  0.00    +0.000 A 
ATOM     19  C   UNL     1      49.573   9.590  12.979  0.00  0.00    +0.000 A 
ATOM     20  C   UNL     1      48.957   8.564  12.247  0.00  0.00    +0.000 A 
ATOM     21  C   UNL     1      49.738   7.814  11.352  0.00  0.00    +0.000 A 
BRANCH  16  23
ATOM     22  N   UNL     1      52.533   6.683   9.546  0.00  0.00    +0.000 NA
ATOM     23  C   UNL     1      51.884   7.318  10.270  0.00  0.00    +0.000 C 
ENDBRANCH  16  23
ENDBRANCH  15  20
ENDBRANCH   1  15
TORSDOF 4
ENDMDL
MODEL 9
REMARK VINA RESULT:    -5.761      3.792      7.548
REMARK INTER + INTRA:          -7.668
REMARK INTER:                  -7.083
REMARK INTRA:                  -0.585
REMARK UNBOUND:                -0.560
REMARK  Name = 
REMARK  4 active torsions:
REMARK  status: ('A' for Active; 'I' for Inactive)
REMARK    1  A    between atoms: C_2  and  C_3
REMARK    2  A    between atoms: C_7  and  C_8
REMARK    3  A    between atoms: C_8  and  N_9
REMARK    4  A    between atoms: C_14  and  C_15
REMARK                            x       y       z     vdW  Elec       q    Type
REMARK                         _______ _______ _______ _____ _____    ______ ____
ROOT
ATOM      1  N   UNL     1      47.542   7.108  13.554  0.00  0.00    +0.000 N 
ATOM      2  C   UNL     1      47.059   8.271  13.000  0.00  0.00    +0.000 A 
ATOM      3  C   UNL     1      45.876   7.982  12.362  0.00  0.00    +0.000 A 
ATOM      4  C   UNL     1      45.628   6.592  12.517  0.00  0.00    +0.000 A 
ATOM      5  C   UNL     1      44.615   5.734  12.066  0.00  0.00    +0.000 A 
ATOM      6  C   UNL     1      44.733   4.396  12.419  0.00  0.00    +0.000 A 
ATOM      7  N   UNL     1      45.742   3.879  13.175  0.00  0.00    +0.000 NA
ATOM      8  C   UNL     1      46.716   4.711  13.611  0.00  0.00    +0.000 A 
ATOM      9  C   UNL     1      46.674   6.065  13.280  0.00  0.00    +0.000 A 
ENDROOT
BRANCH   6  10
ATOM     10  C   UNL     1      43.697   3.424  11.931  0.00  0.00    +0.000 C 
ATOM     11  N   UNL     1      43.738   2.170  12.480  0.00  0.00    +0.000 N 
ATOM     12  O   UNL     1      42.862   3.717  11.085  0.00  0.00    +0.000 OA
ATOM     13  H   UNL     1      44.443   1.938  13.171  0.00  0.00    +0.000 HD
ATOM     14  H   UNL     1      43.070   1.476  12.173  0.00  0.00    +0.000 HD
ENDBRANCH   6  10
BRANCH   1  15
ATOM     15  C   UNL     1      48.852   6.994  14.195  0.00  0.00    +0.000 C 
BRANCH  15  20
ATOM     16  C   UNL     1      48.710   6.016  17.884  0.00  0.00    +0.000 A 
ATOM     17  C   UNL     1      48.686   7.266  18.508  0.00  0.00    +0.000 A 
ATOM     18  C   UNL     1      48.676   8.426  17.735  0.00  0.00    +0.000 A 
ATOM     19  C   UNL     1      48.707   8.342  16.340  0.00  0.00    +0.000 A 
ATOM     20  C   UNL     1      48.769   7.096  15.699  0.00  0.00    +0.000 A 
ATOM     21  C   UNL     1      48.756   5.932  16.486  0.00  0.00    +0.000 A 
BRANCH  16  23
ATOM     22  N   UNL     1      48.642   3.847  19.305  0.00  0.00    +0.000 NA
ATOM     23  C   UNL     1      48.679   4.820  18.673  0.00  0.00    +0.000 C 
ENDBRANCH  16  23
ENDBRANCH  15  20
ENDBRANCH   1  15
TORSDOF 4
ENDMDL
