MODEL 1
REMARK VINA RESULT:    -8.655      0.000      0.000
REMARK INTER + INTRA:         -13.151
REMARK INTER:                 -12.197
REMARK INTRA:                  -0.954
REMARK UNBOUND:                -0.954
REMARK  Name = 
REMARK  7 active torsions:
REMARK  status: ('A' for Active; 'I' for Inactive)
REMARK    1  A    between atoms: C_2  and  C_4
REMARK    2  A    between atoms: N_8  and  C_9
REMARK    3  A    between atoms: C_9  and  C_10
REMARK    4  A    between atoms: C_14  and  C_15
REMARK    5  A    between atoms: C_19  and  O_20
REMARK    6  A    between atoms: O_20  and  C_21
REMARK    7  A    between atoms: C_21  and  C_22
REMARK                            x       y       z     vdW  Elec       q    Type
REMARK                         _______ _______ _______ _____ _____    ______ ____
ROOT
ATOM      1  C   UNL     1      43.909   5.002  11.432  0.00  0.00    +0.000 C 
ATOM      2  C   UNL     1      42.697   5.098  12.360  0.00  0.00    +0.000 C 
ATOM      3  C   UNL     1      42.838   6.061  11.233  0.00  0.00    +0.000 C 
ENDROOT
BRANCH   1   8
ATOM      4  C   UNL     1      46.482   2.734   7.503  0.00  0.00    +0.000 A 
ATOM      5  C   UNL     1      46.144   4.072   7.667  0.00  0.00    +0.000 A 
ATOM      6  C   UNL     1      45.330   4.447   8.740  0.00  0.00    +0.000 A 
ATOM      7  C   UNL     1      44.866   3.479   9.622  0.00  0.00    +0.000 A 
ATOM      8  N   UNL     1      43.980   3.752  10.665  0.00  0.00    +0.000 N 
ATOM      9  N   UNL     1      45.181   2.175   9.464  0.00  0.00    +0.000 NA
ATOM     10  C   UNL     1      45.971   1.826   8.415  0.00  0.00    +0.000 A 
ATOM     11  H   UNL     1      43.868   2.882  11.182  0.00  0.00    +0.000 HD
BRANCH   4  13
ATOM     12  N   UNL     1      47.363   3.018   5.258  0.00  0.00    +0.000 N 
ATOM     13  C   UNL     1      47.322   2.249   6.388  0.00  0.00    +0.000 C 
ATOM     14  O   UNL     1      47.975   1.218   6.478  0.00  0.00    +0.000 OA
ATOM     15  H   UNL     1      48.005   2.722   4.531  0.00  0.00    +0.000 HD
ATOM     16  H   UNL     1      47.040   3.975   5.234  0.00  0.00    +0.000 HD
ENDBRANCH   4  13
ENDBRANCH   1   8
BRANCH   1  17
ATOM     17  C   UNL     1      45.253   5.497  11.968  0.00  0.00    +0.000 A 
ATOM     18  C   UNL     1      45.898   6.613  11.418  0.00  0.00    +0.000 A 
ATOM     19  C   UNL     1      47.068   7.121  11.980  0.00  0.00    +0.000 A 
ATOM     20  C   UNL     1      47.617   6.526  13.118  0.00  0.00    +0.000 A 
ATOM     21  C   UNL     1      47.014   5.404  13.705  0.00  0.00    +0.000 A 
ATOM     22  C   UNL     1      45.855   4.895  13.090  0.00  0.00    +0.000 A 
BRANCH  21  23
ATOM     23  C   UNL     1      47.524   4.810  14.960  0.00  0.00    +0.000 A 
ATOM     24  C   UNL     1      47.578   3.432  15.159  0.00  0.00    +0.000 A 
ATOM     25  N   UNL     1      48.085   2.820  16.257  0.00  0.00    +0.000 NA
ATOM     26  C   UNL     1      48.583   3.637  17.215  0.00  0.00    +0.000 A 
ATOM     27  C   UNL     1      48.589   5.021  17.140  0.00  0.00    +0.000 A 
ATOM     28  C   UNL     1      48.039   5.603  15.996  0.00  0.00    +0.000 A 
BRANCH  27  29
ATOM     29  O   UNL     1      49.147   5.688  18.194  0.00  0.00    +0.000 OA
BRANCH  29  30
ATOM     30  C   UNL     1      48.653   5.353  19.491  0.00  0.00    +0.000 C 
BRANCH  30  31
ATOM     31  C   UNL     1      47.415   6.181  19.783  0.00  0.00    +0.000 C 
ATOM     32  F   UNL     1      46.394   5.745  18.997  0.00  0.00    +0.000 F 
ENDBRANCH  30  31
ENDBRANCH  29  30
ENDBRANCH  27  29
ENDBRANCH  21  23
ENDBRANCH   1  17
TORSDOF 7
ENDMDL
MODEL 2
REMARK VINA RESULT:    -8.651      3.517      4.940
REMARK INTER + INTRA:         -13.145
REMARK INTER:                 -11.768
REMARK INTRA:                  -1.377
REMARK UNBOUND:                -0.954
REMARK  Name = 
REMARK  7 active torsions:
REMARK  status: ('A' for Active; 'I' for Inactive)
REMARK    1  A    between atoms: C_2  and  C_4
REMARK    2  A    between atoms: N_8  and  C_9
REMARK    3  A    between atoms: C_9  and  C_10
REMARK    4  A    between atoms: C_14  and  C_15
REMARK    5  A    between atoms: C_19  and  O_20
REMARK    6  A    between atoms: O_20  and  C_21
REMARK    7  A    between atoms: C_21  and  C_22
REMARK                            x       y       z     vdW  Elec       q    Type
REMARK                         _______ _______ _______ _____ _____    ______ ____
ROOT
ATOM      1  C   UNL     1      43.907   4.939  11.444  0.00  0.00    +0.000 C 
ATOM      2  C   UNL     1      42.588   5.108  12.199  0.00  0.00    +0.000 C 
ATOM      3  C   UNL     1      42.972   6.102  11.158  0.00  0.00    +0.000 C 
ENDROOT
BRANCH   1   8
ATOM      4  C   UNL     1      46.562   2.791   7.502  0.00  0.00    +0.000 A 
ATOM      5  C   UNL     1      46.245   4.127   7.715  0.00  0.00    +0.000 A 
ATOM      6  C   UNL     1      45.405   4.472   8.776  0.00  0.00    +0.000 A 
ATOM      7  C   UNL     1      44.892   3.477   9.600  0.00  0.00    +0.000 A 
ATOM      8  N   UNL     1      43.978   3.723  10.625  0.00  0.00    +0.000 N 
ATOM      9  N   UNL     1      45.187   2.175   9.394  0.00  0.00    +0.000 NA
ATOM     10  C   UNL     1      46.004   1.855   8.356  0.00  0.00    +0.000 A 
ATOM     11  H   UNL     1      43.833   2.834  11.099  0.00  0.00    +0.000 HD
BRANCH   4  13
ATOM     12  N   UNL     1      47.313   2.997   5.202  0.00  0.00    +0.000 N 
ATOM     13  C   UNL     1      47.428   2.337   6.394  0.00  0.00    +0.000 C 
ATOM     14  O   UNL     1      48.234   1.428   6.541  0.00  0.00    +0.000 OA
ATOM     15  H   UNL     1      47.968   2.736   4.474  0.00  0.00    +0.000 HD
ATOM     16  H   UNL     1      46.847   3.889   5.112  0.00  0.00    +0.000 HD
ENDBRANCH   4  13
ENDBRANCH   1   8
BRANCH   1  17
ATOM     17  C   UNL     1      45.198   5.282  12.188  0.00  0.00    +0.000 A 
ATOM     18  C   UNL     1      45.794   4.381  13.082  0.00  0.00    +0.000 A 
ATOM     19  C   UNL     1      47.026   4.657  13.673  0.00  0.00    +0.000 A 
ATOM     20  C   UNL     1      47.698   5.844  13.374  0.00  0.00    +0.000 A 
ATOM     21  C   UNL     1      47.144   6.781  12.490  0.00  0.00    +0.000 A 
ATOM     22  C   UNL     1      45.882   6.488  11.940  0.00  0.00    +0.000 A 
BRANCH  21  23
ATOM     23  C   UNL     1      47.875   8.003  12.088  0.00  0.00    +0.000 A 
ATOM     24  C   UNL     1      47.282   9.264  12.115  0.00  0.00    +0.000 A 
ATOM     25  N   UNL     1      47.908  10.428  11.816  0.00  0.00    +0.000 NA
ATOM     26  C   UNL     1      49.216  10.330  11.481  0.00  0.00    +0.000 A 
ATOM     27  C   UNL     1      49.922   9.139  11.417  0.00  0.00    +0.000 A 
ATOM     28  C   UNL     1      49.227   7.966  11.716  0.00  0.00    +0.000 A 
BRANCH  27  29
ATOM     29  O   UNL     1      51.242   9.229  11.076  0.00  0.00    +0.000 OA
BRANCH  29  30
ATOM     30  C   UNL     1      52.088   8.169  11.525  0.00  0.00    +0.000 C 
BRANCH  30  31
ATOM     31  C   UNL     1      52.673   7.453  10.322  0.00  0.00    +0.000 C 
ATOM     32  F   UNL     1      51.659   7.007   9.535  0.00  0.00    +0.000 F 
ENDBRANCH  30  31
ENDBRANCH  29  30
ENDBRANCH  27  29
ENDBRANCH  21  23
ENDBRANCH   1  17
TORSDOF 7
ENDMDL
MODEL 3
REMARK VINA RESULT:    -7.518      3.115      9.014
REMARK INTER + INTRA:         -11.548
REMARK INTER:                 -10.347
REMARK INTRA:                  -1.201
REMARK UNBOUND:                -0.954
REMARK  Name = 
REMARK  7 active torsions:
REMARK  status: ('A' for Active; 'I' for Inactive)
REMARK    1  A    between atoms: C_2  and  C_4
REMARK    2  A    between atoms: N_8  and  C_9
REMARK    3  A    between atoms: C_9  and  C_10
REMARK    4  A    between atoms: C_14  and  C_15
REMARK    5  A    between atoms: C_19  and  O_20
REMARK    6  A    between atoms: O_20  and  C_21
REMARK    7  A    between atoms: C_21  and  C_22
REMARK                            x       y       z     vdW  Elec       q    Type
REMARK                         _______ _______ _______ _____ _____    ______ ____
ROOT
ATOM      1  C   UNL     1      48.920   7.906  12.673  0.00  0.00    +0.000 C 
ATOM      2  C   UNL     1      49.904   8.151  11.528  0.00  0.00    +0.000 C 
ATOM      3  C   UNL     1      49.519   9.279  12.420  0.00  0.00    +0.000 C 
ENDROOT
BRANCH   1   8
ATOM      4  C   UNL     1      48.486   6.772  17.745  0.00  0.00    +0.000 A 
ATOM      5  C   UNL     1      48.432   8.013  17.121  0.00  0.00    +0.000 A 
ATOM      6  C   UNL     1      48.707   8.105  15.754  0.00  0.00    +0.000 A 
ATOM      7  C   UNL     1      49.036   6.959  15.039  0.00  0.00    +0.000 A 
ATOM      8  N   UNL     1      49.409   6.973  13.695  0.00  0.00    +0.000 N 
ATOM      9  N   UNL     1      49.099   5.751  15.640  0.00  0.00    +0.000 NA
ATOM     10  C   UNL     1      48.832   5.678  16.971  0.00  0.00    +0.000 A 
ATOM     11  H   UNL     1      49.525   6.000  13.420  0.00  0.00    +0.000 HD
BRANCH   4  13
ATOM     12  N   UNL     1      47.262   5.682  19.538  0.00  0.00    +0.000 N 
ATOM     13  C   UNL     1      48.227   6.587  19.188  0.00  0.00    +0.000 C 
ATOM     14  O   UNL     1      48.863   7.195  20.038  0.00  0.00    +0.000 OA
ATOM     15  H   UNL     1      47.149   5.500  20.528  0.00  0.00    +0.000 HD
ATOM     16  H   UNL     1      46.893   4.998  18.892  0.00  0.00    +0.000 HD
ENDBRANCH   4  13
ENDBRANCH   1   8
BRANCH   1  17
ATOM     17  C   UNL     1      47.443   7.741  12.315  0.00  0.00    +0.000 A 
ATOM     18  C   UNL     1      46.526   8.790  12.471  0.00  0.00    +0.000 A 
ATOM     19  C   UNL     1      45.205   8.665  12.043  0.00  0.00    +0.000 A 
ATOM     20  C   UNL     1      44.772   7.484  11.437  0.00  0.00    +0.000 A 
ATOM     21  C   UNL     1      45.647   6.402  11.261  0.00  0.00    +0.000 A 
ATOM     22  C   UNL     1      46.963   6.549  11.739  0.00  0.00    +0.000 A 
BRANCH  21  23
ATOM     23  C   UNL     1      45.239   5.175  10.544  0.00  0.00    +0.000 A 
ATOM     24  C   UNL     1      44.372   4.240  11.107  0.00  0.00    +0.000 A 
ATOM     25  N   UNL     1      43.913   3.127  10.486  0.00  0.00    +0.000 NA
ATOM     26  C   UNL     1      44.335   2.940   9.213  0.00  0.00    +0.000 A 
ATOM     27  C   UNL     1      45.194   3.793   8.539  0.00  0.00    +0.000 A 
ATOM     28  C   UNL     1      45.655   4.916   9.229  0.00  0.00    +0.000 A 
BRANCH  27  29
ATOM     29  O   UNL     1      45.503   3.456   7.251  0.00  0.00    +0.000 OA
BRANCH  29  30
ATOM     30  C   UNL     1      46.889   3.272   6.957  0.00  0.00    +0.000 C 
BRANCH  30  31
ATOM     31  C   UNL     1      47.163   1.793   6.754  0.00  0.00    +0.000 C 
ATOM     32  F   UNL     1      47.001   1.145   7.938  0.00  0.00    +0.000 F 
ENDBRANCH  30  31
ENDBRANCH  29  30
ENDBRANCH  27  29
ENDBRANCH  21  23
ENDBRANCH   1  17
TORSDOF 7
ENDMDL
MODEL 4
REMARK VINA RESULT:    -6.685      3.807      8.839
REMARK INTER + INTRA:         -10.374
REMARK INTER:                  -9.485
REMARK INTRA:                  -0.889
REMARK UNBOUND:                -0.954
REMARK  Name = 
REMARK  7 active torsions:
REMARK  status: ('A' for Active; 'I' for Inactive)
REMARK    1  A    between atoms: C_2  and  C_4
REMARK    2  A    between atoms: N_8  and  C_9
REMARK    3  A    between atoms: C_9  and  C_10
REMARK    4  A    between atoms: C_14  and  C_15
REMARK    5  A    between atoms: C_19  and  O_20
REMARK    6  A    between atoms: O_20  and  C_21
REMARK    7  A    between atoms: C_21  and  C_22
REMARK                            x       y       z     vdW  Elec       q    Type
REMARK                         _______ _______ _______ _____ _____    ______ ____
ROOT
ATOM      1  C   UNL     1      48.359   4.862  17.427  0.00  0.00    +0.000 C 
ATOM      2  C   UNL     1      47.178   5.141  18.357  0.00  0.00    +0.000 C 
ATOM      3  C   UNL     1      47.175   3.915  17.512  0.00  0.00    +0.000 C 
ENDROOT
BRANCH   1   8
ATOM      4  C   UNL     1      52.448   1.628  17.605  0.00  0.00    +0.000 A 
ATOM      5  C   UNL     1      51.115   1.336  17.336  0.00  0.00    +0.000 A 
ATOM      6  C   UNL     1      50.153   2.340  17.471  0.00  0.00    +0.000 A 
ATOM      7  C   UNL     1      50.538   3.612  17.878  0.00  0.00    +0.000 A 
ATOM      8  N   UNL     1      49.634   4.647  18.123  0.00  0.00    +0.000 N 
ATOM      9  N   UNL     1      51.828   3.902  18.151  0.00  0.00    +0.000 NA
ATOM     10  C   UNL     1      52.753   2.914  18.017  0.00  0.00    +0.000 A 
ATOM     11  H   UNL     1      50.192   5.471  18.337  0.00  0.00    +0.000 HD
BRANCH   4  13
ATOM     12  N   UNL     1      53.425  -0.482  18.303  0.00  0.00    +0.000 N 
ATOM     13  C   UNL     1      53.526   0.623  17.504  0.00  0.00    +0.000 C 
ATOM     14  O   UNL     1      54.457   0.757  16.722  0.00  0.00    +0.000 OA
ATOM     15  H   UNL     1      54.122  -1.205  18.169  0.00  0.00    +0.000 HD
ATOM     16  H   UNL     1      52.569  -0.743  18.774  0.00  0.00    +0.000 HD
ENDBRANCH   4  13
ENDBRANCH   1   8
BRANCH   1  17
ATOM     17  C   UNL     1      48.465   5.693  16.148  0.00  0.00    +0.000 A 
ATOM     18  C   UNL     1      49.534   6.573  15.929  0.00  0.00    +0.000 A 
ATOM     19  C   UNL     1      49.680   7.246  14.716  0.00  0.00    +0.000 A 
ATOM     20  C   UNL     1      48.760   7.043  13.686  0.00  0.00    +0.000 A 
ATOM     21  C   UNL     1      47.670   6.177  13.855  0.00  0.00    +0.000 A 
ATOM     22  C   UNL     1      47.532   5.544  15.104  0.00  0.00    +0.000 A 
BRANCH  21  23
ATOM     23  C   UNL     1      46.732   5.877  12.750  0.00  0.00    +0.000 A 
ATOM     24  C   UNL     1      46.430   6.809  11.760  0.00  0.00    +0.000 A 
ATOM     25  N   UNL     1      45.626   6.583  10.693  0.00  0.00    +0.000 NA
ATOM     26  C   UNL     1      45.101   5.338  10.598  0.00  0.00    +0.000 A 
ATOM     27  C   UNL     1      45.324   4.322  11.513  0.00  0.00    +0.000 A 
ATOM     28  C   UNL     1      46.143   4.611  12.606  0.00  0.00    +0.000 A 
BRANCH  27  29
ATOM     29  O   UNL     1      44.724   3.122  11.252  0.00  0.00    +0.000 OA
BRANCH  29  30
ATOM     30  C   UNL     1      44.204   2.945   9.933  0.00  0.00    +0.000 C 
BRANCH  30  31
ATOM     31  C   UNL     1      45.161   2.081   9.131  0.00  0.00    +0.000 C 
ATOM     32  F   UNL     1      45.643   2.805   8.087  0.00  0.00    +0.000 F 
ENDBRANCH  30  31
ENDBRANCH  29  30
ENDBRANCH  27  29
ENDBRANCH  21  23
ENDBRANCH   1  17
TORSDOF 7
ENDMDL
MODEL 5
REMARK VINA RESULT:    -6.615      3.704      8.652
REMARK INTER + INTRA:         -10.276
REMARK INTER:                  -9.051
REMARK INTRA:                  -1.225
REMARK UNBOUND:                -0.954
REMARK  Name = 
REMARK  7 active torsions:
REMARK  status: ('A' for Active; 'I' for Inactive)
REMARK    1  A    between atoms: C_2  and  C_4
REMARK    2  A    between atoms: N_8  and  C_9
REMARK    3  A    between atoms: C_9  and  C_10
REMARK    4  A    between atoms: C_14  and  C_15
REMARK    5  A    between atoms: C_19  and  O_20
REMARK    6  A    between atoms: O_20  and  C_21
REMARK    7  A    between atoms: C_21  and  C_22
REMARK                            x       y       z     vdW  Elec       q    Type
REMARK                         _______ _______ _______ _____ _____    ______ ____
ROOT
ATOM      1  C   UNL     1      49.525   8.154  16.711  0.00  0.00    +0.000 C 
ATOM      2  C   UNL     1      49.375   9.601  17.182  0.00  0.00    +0.000 C 
ATOM      3  C   UNL     1      48.292   8.619  17.467  0.00  0.00    +0.000 C 
ENDROOT
BRANCH   1   8
ATOM      4  C   UNL     1      51.338   3.341  17.580  0.00  0.00    +0.000 A 
ATOM      5  C   UNL     1      50.021   3.782  17.530  0.00  0.00    +0.000 A 
ATOM      6  C   UNL     1      49.759   5.149  17.415  0.00  0.00    +0.000 A 
ATOM      7  C   UNL     1      50.816   6.050  17.358  0.00  0.00    +0.000 A 
ATOM      8  N   UNL     1      50.645   7.435  17.331  0.00  0.00    +0.000 N 
ATOM      9  N   UNL     1      52.099   5.631  17.415  0.00  0.00    +0.000 NA
ATOM     10  C   UNL     1      52.337   4.298  17.530  0.00  0.00    +0.000 A 
ATOM     11  H   UNL     1      51.573   7.836  17.222  0.00  0.00    +0.000 HD
BRANCH   4  13
ATOM     12  N   UNL     1      52.802   1.626  18.482  0.00  0.00    +0.000 N 
ATOM     13  C   UNL     1      51.704   1.917  17.719  0.00  0.00    +0.000 C 
ATOM     14  O   UNL     1      51.041   1.030  17.198  0.00  0.00    +0.000 OA
ATOM     15  H   UNL     1      52.997   0.644  18.640  0.00  0.00    +0.000 HD
ATOM     16  H   UNL     1      53.223   2.293  19.113  0.00  0.00    +0.000 HD
ENDBRANCH   4  13
ENDBRANCH   1   8
BRANCH   1  17
ATOM     17  C   UNL     1      49.333   7.870  15.222  0.00  0.00    +0.000 A 
ATOM     18  C   UNL     1      50.274   8.281  14.267  0.00  0.00    +0.000 A 
ATOM     19  C   UNL     1      50.145   7.924  12.925  0.00  0.00    +0.000 A 
ATOM     20  C   UNL     1      49.071   7.136  12.508  0.00  0.00    +0.000 A 
ATOM     21  C   UNL     1      48.099   6.702  13.421  0.00  0.00    +0.000 A 
ATOM     22  C   UNL     1      48.240   7.111  14.760  0.00  0.00    +0.000 A 
BRANCH  21  23
ATOM     23  C   UNL     1      47.002   5.794  13.022  0.00  0.00    +0.000 A 
ATOM     24  C   UNL     1      46.463   4.853  13.898  0.00  0.00    +0.000 A 
ATOM     25  N   UNL     1      45.423   4.031  13.618  0.00  0.00    +0.000 NA
ATOM     26  C   UNL     1      44.872   4.167  12.388  0.00  0.00    +0.000 A 
ATOM     27  C   UNL     1      45.312   5.063  11.428  0.00  0.00    +0.000 A 
ATOM     28  C   UNL     1      46.400   5.874  11.757  0.00  0.00    +0.000 A 
BRANCH  27  29
ATOM     29  O   UNL     1      44.629   5.076  10.244  0.00  0.00    +0.000 OA
BRANCH  29  30
ATOM     30  C   UNL     1      44.209   3.807   9.739  0.00  0.00    +0.000 C 
BRANCH  30  31
ATOM     31  C   UNL     1      45.216   3.321   8.712  0.00  0.00    +0.000 C 
ATOM     32  F   UNL     1      45.649   2.083   9.067  0.00  0.00    +0.000 F 
ENDBRANCH  30  31
ENDBRANCH  29  30
ENDBRANCH  27  29
ENDBRANCH  21  23
ENDBRANCH   1  17
TORSDOF 7
ENDMDL
MODEL 6
REMARK VINA RESULT:    -6.398      3.021      4.277
REMARK INTER + INTRA:          -9.970
REMARK INTER:                  -8.579
REMARK INTRA:                  -1.391
REMARK UNBOUND:                -0.954
REMARK  Name = 
REMARK  7 active torsions:
REMARK  status: ('A' for Active; 'I' for Inactive)
REMARK    1  A    between atoms: C_2  and  C_4
REMARK    2  A    between atoms: N_8  and  C_9
REMARK    3  A    between atoms: C_9  and  C_10
REMARK    4  A    between atoms: C_14  and  C_15
REMARK    5  A    between atoms: C_19  and  O_20
REMARK    6  A    between atoms: O_20  and  C_21
REMARK    7  A    between atoms: C_21  and  C_22
REMARK                            x       y       z     vdW  Elec       q    Type
REMARK                         _______ _______ _______ _____ _____    ______ ____
ROOT
ATOM      1  C   UNL     1      46.192   8.993  12.221  0.00  0.00    +0.000 C 
ATOM      2  C   UNL     1      45.906  10.475  12.466  0.00  0.00    +0.000 C 
ATOM      3  C   UNL     1      46.062   9.978  11.071  0.00  0.00    +0.000 C 
ENDROOT
BRANCH   1   8
ATOM      4  C   UNL     1      44.251   4.218  11.423  0.00  0.00    +0.000 A 
ATOM      5  C   UNL     1      44.861   5.075  10.514  0.00  0.00    +0.000 A 
ATOM      6  C   UNL     1      45.191   6.373  10.912  0.00  0.00    +0.000 A 
ATOM      7  C   UNL     1      44.901   6.792  12.205  0.00  0.00    +0.000 A 
ATOM      8  N   UNL     1      45.116   8.095  12.657  0.00  0.00    +0.000 N 
ATOM      9  N   UNL     1      44.300   5.969  13.091  0.00  0.00    +0.000 NA
ATOM     10  C   UNL     1      43.983   4.710  12.689  0.00  0.00    +0.000 A 
ATOM     11  H   UNL     1      44.881   8.097  13.647  0.00  0.00    +0.000 HD
BRANCH   4  13
ATOM     12  N   UNL     1      44.518   2.233  10.050  0.00  0.00    +0.000 N 
ATOM     13  C   UNL     1      43.853   2.836  11.082  0.00  0.00    +0.000 C 
ATOM     14  O   UNL     1      42.986   2.245  11.710  0.00  0.00    +0.000 OA
ATOM     15  H   UNL     1      44.298   1.259   9.876  0.00  0.00    +0.000 HD
ATOM     16  H   UNL     1      45.386   2.589   9.674  0.00  0.00    +0.000 HD
ENDBRANCH   4  13
ENDBRANCH   1   8
BRANCH   1  17
ATOM     17  C   UNL     1      47.603   8.485  12.515  0.00  0.00    +0.000 A 
ATOM     18  C   UNL     1      48.683   8.785  11.673  0.00  0.00    +0.000 A 
ATOM     19  C   UNL     1      49.985   8.409  12.005  0.00  0.00    +0.000 A 
ATOM     20  C   UNL     1      50.236   7.729  13.198  0.00  0.00    +0.000 A 
ATOM     21  C   UNL     1      49.191   7.401  14.074  0.00  0.00    +0.000 A 
ATOM     22  C   UNL     1      47.886   7.762  13.690  0.00  0.00    +0.000 A 
BRANCH  21  23
ATOM     23  C   UNL     1      49.440   6.761  15.384  0.00  0.00    +0.000 A 
ATOM     24  C   UNL     1      50.653   6.899  16.057  0.00  0.00    +0.000 A 
ATOM     25  N   UNL     1      50.928   6.389  17.283  0.00  0.00    +0.000 NA
ATOM     26  C   UNL     1      49.923   5.710  17.883  0.00  0.00    +0.000 A 
ATOM     27  C   UNL     1      48.672   5.503  17.323  0.00  0.00    +0.000 A 
ATOM     28  C   UNL     1      48.445   6.031  16.050  0.00  0.00    +0.000 A 
BRANCH  27  29
ATOM     29  O   UNL     1      47.772   4.805  18.078  0.00  0.00    +0.000 OA
BRANCH  29  30
ATOM     30  C   UNL     1      47.109   3.716  17.434  0.00  0.00    +0.000 C 
BRANCH  30  31
ATOM     31  C   UNL     1      48.070   2.547  17.316  0.00  0.00    +0.000 C 
ATOM     32  F   UNL     1      48.495   2.450  16.028  0.00  0.00    +0.000 F 
ENDBRANCH  30  31
ENDBRANCH  29  30
ENDBRANCH  27  29
ENDBRANCH  21  23
ENDBRANCH   1  17
TORSDOF 7
ENDMDL
MODEL 7
REMARK VINA RESULT:    -6.381      4.827      8.074
REMARK INTER + INTRA:          -9.946
REMARK INTER:                  -8.909
REMARK INTRA:                  -1.037
REMARK UNBOUND:                -0.954
REMARK  Name = 
REMARK  7 active torsions:
REMARK  status: ('A' for Active; 'I' for Inactive)
REMARK    1  A    between atoms: C_2  and  C_4
REMARK    2  A    between atoms: N_8  and  C_9
REMARK    3  A    between atoms: C_9  and  C_10
REMARK    4  A    between atoms: C_14  and  C_15
REMARK    5  A    between atoms: C_19  and  O_20
REMARK    6  A    between atoms: O_20  and  C_21
REMARK    7  A    between atoms: C_21  and  C_22
REMARK                            x       y       z     vdW  Elec       q    Type
REMARK                         _______ _______ _______ _____ _____    ______ ____
ROOT
ATOM      1  C   UNL     1      48.450   7.953  13.790  0.00  0.00    +0.000 C 
ATOM      2  C   UNL     1      48.389   7.766  15.306  0.00  0.00    +0.000 C 
ATOM      3  C   UNL     1      48.875   6.651  14.446  0.00  0.00    +0.000 C 
ENDROOT
BRANCH   1   8
ATOM      4  C   UNL     1      51.973   9.020  10.094  0.00  0.00    +0.000 A 
ATOM      5  C   UNL     1      51.660   7.796  10.674  0.00  0.00    +0.000 A 
ATOM      6  C   UNL     1      50.769   7.755  11.750  0.00  0.00    +0.000 A 
ATOM      7  C   UNL     1      50.214   8.935  12.229  0.00  0.00    +0.000 A 
ATOM      8  N   UNL     1      49.388   8.995  13.352  0.00  0.00    +0.000 N 
ATOM      9  N   UNL     1      50.521  10.130  11.678  0.00  0.00    +0.000 NA
ATOM     10  C   UNL     1      51.390  10.154  10.634  0.00  0.00    +0.000 A 
ATOM     11  H   UNL     1      49.078   9.962  13.428  0.00  0.00    +0.000 HD
BRANCH   4  13
ATOM     12  N   UNL     1      52.780  10.258   8.167  0.00  0.00    +0.000 N 
ATOM     13  C   UNL     1      52.917   9.156   8.965  0.00  0.00    +0.000 C 
ATOM     14  O   UNL     1      53.802   8.335   8.766  0.00  0.00    +0.000 OA
ATOM     15  H   UNL     1      53.481  10.386   7.447  0.00  0.00    +0.000 HD
ATOM     16  H   UNL     1      52.232  11.064   8.434  0.00  0.00    +0.000 HD
ENDBRANCH   4  13
ENDBRANCH   1   8
BRANCH   1  17
ATOM     17  C   UNL     1      47.132   7.918  13.017  0.00  0.00    +0.000 A 
ATOM     18  C   UNL     1      46.347   9.068  12.849  0.00  0.00    +0.000 A 
ATOM     19  C   UNL     1      45.202   9.051  12.053  0.00  0.00    +0.000 A 
ATOM     20  C   UNL     1      44.820   7.879  11.397  0.00  0.00    +0.000 A 
ATOM     21  C   UNL     1      45.567   6.700  11.536  0.00  0.00    +0.000 A 
ATOM     22  C   UNL     1      46.695   6.743  12.376  0.00  0.00    +0.000 A 
BRANCH  21  23
ATOM     23  C   UNL     1      45.235   5.471  10.782  0.00  0.00    +0.000 A 
ATOM     24  C   UNL     1      44.444   4.460  11.325  0.00  0.00    +0.000 A 
ATOM     25  N   UNL     1      44.055   3.338  10.673  0.00  0.00    +0.000 NA
ATOM     26  C   UNL     1      44.470   3.223   9.389  0.00  0.00    +0.000 A 
ATOM     27  C   UNL     1      45.257   4.156   8.733  0.00  0.00    +0.000 A 
ATOM     28  C   UNL     1      45.648   5.285   9.455  0.00  0.00    +0.000 A 
BRANCH  27  29
ATOM     29  O   UNL     1      45.569   3.884   7.431  0.00  0.00    +0.000 OA
BRANCH  29  30
ATOM     30  C   UNL     1      46.909   3.462   7.173  0.00  0.00    +0.000 C 
BRANCH  30  31
ATOM     31  C   UNL     1      46.963   1.946   7.167  0.00  0.00    +0.000 C 
ATOM     32  F   UNL     1      48.263   1.548   7.174  0.00  0.00    +0.000 F 
ENDBRANCH  30  31
ENDBRANCH  29  30
ENDBRANCH  27  29
ENDBRANCH  21  23
ENDBRANCH   1  17
TORSDOF 7
ENDMDL
MODEL 8
REMARK VINA RESULT:    -6.240      3.363      5.119
REMARK INTER + INTRA:          -9.747
REMARK INTER:                  -9.342
REMARK INTRA:                  -0.405
REMARK UNBOUND:                -0.954
REMARK  Name = 
REMARK  7 active torsions:
REMARK  status: ('A' for Active; 'I' for Inactive)
REMARK    1  A    between atoms: C_2  and  C_4
REMARK    2  A    between atoms: N_8  and  C_9
REMARK    3  A    between atoms: C_9  and  C_10
REMARK    4  A    between atoms: C_14  and  C_15
REMARK    5  A    between atoms: C_19  and  O_20
REMARK    6  A    between atoms: O_20  and  C_21
REMARK    7  A    between atoms: C_21  and  C_22
REMARK                            x       y       z     vdW  Elec       q    Type
REMARK                         _______ _______ _______ _____ _____    ______ ____
ROOT
ATOM      1  C   UNL     1      47.661   8.551  13.537  0.00  0.00    +0.000 C 
ATOM      2  C   UNL     1      48.026   9.908  12.935  0.00  0.00    +0.000 C 
ATOM      3  C   UNL     1      48.683   8.676  12.419  0.00  0.00    +0.000 C 
ENDROOT
BRANCH   1   8
ATOM      4  C   UNL     1      44.691   5.172  10.897  0.00  0.00    +0.000 A 
ATOM      5  C   UNL     1      45.882   5.775  10.510  0.00  0.00    +0.000 A 
ATOM      6  C   UNL     1      46.449   6.759  11.323  0.00  0.00    +0.000 A 
ATOM      7  C   UNL     1      45.814   7.126  12.503  0.00  0.00    +0.000 A 
ATOM      8  N   UNL     1      46.262   8.159  13.328  0.00  0.00    +0.000 N 
ATOM      9  N   UNL     1      44.651   6.552  12.883  0.00  0.00    +0.000 NA
ATOM     10  C   UNL     1      44.111   5.599  12.080  0.00  0.00    +0.000 A 
ATOM     11  H   UNL     1      45.652   8.159  14.144  0.00  0.00    +0.000 HD
BRANCH   4  13
ATOM     12  N   UNL     1      44.132   4.231   8.730  0.00  0.00    +0.000 N 
ATOM     13  C   UNL     1      44.015   4.136  10.089  0.00  0.00    +0.000 C 
ATOM     14  O   UNL     1      43.398   3.216  10.610  0.00  0.00    +0.000 OA
ATOM     15  H   UNL     1      43.737   3.472   8.186  0.00  0.00    +0.000 HD
ATOM     16  H   UNL     1      44.818   4.819   8.278  0.00  0.00    +0.000 HD
ENDBRANCH   4  13
ENDBRANCH   1   8
BRANCH   1  17
ATOM     17  C   UNL     1      48.216   8.218  14.921  0.00  0.00    +0.000 A 
ATOM     18  C   UNL     1      48.305   9.186  15.931  0.00  0.00    +0.000 A 
ATOM     19  C   UNL     1      48.711   8.849  17.222  0.00  0.00    +0.000 A 
ATOM     20  C   UNL     1      49.030   7.527  17.535  0.00  0.00    +0.000 A 
ATOM     21  C   UNL     1      48.962   6.520  16.561  0.00  0.00    +0.000 A 
ATOM     22  C   UNL     1      48.585   6.901  15.260  0.00  0.00    +0.000 A 
BRANCH  21  23
ATOM     23  C   UNL     1      49.208   5.098  16.888  0.00  0.00    +0.000 A 
ATOM     24  C   UNL     1      48.239   4.115  16.697  0.00  0.00    +0.000 A 
ATOM     25  N   UNL     1      48.415   2.791  16.921  0.00  0.00    +0.000 NA
ATOM     26  C   UNL     1      49.645   2.419  17.349  0.00  0.00    +0.000 A 
ATOM     27  C   UNL     1      50.694   3.295  17.576  0.00  0.00    +0.000 A 
ATOM     28  C   UNL     1      50.456   4.652  17.350  0.00  0.00    +0.000 A 
BRANCH  27  29
ATOM     29  O   UNL     1      51.872   2.743  17.993  0.00  0.00    +0.000 OA
BRANCH  29  30
ATOM     30  C   UNL     1      52.074   1.364  17.681  0.00  0.00    +0.000 C 
BRANCH  30  31
ATOM     31  C   UNL     1      53.554   1.114  17.456  0.00  0.00    +0.000 C 
ATOM     32  F   UNL     1      53.701   0.123  16.536  0.00  0.00    +0.000 F 
ENDBRANCH  30  31
ENDBRANCH  29  30
ENDBRANCH  27  29
ENDBRANCH  21  23
ENDBRANCH   1  17
TORSDOF 7
ENDMDL
MODEL 9
REMARK VINA RESULT:    -6.064      3.243      4.890
REMARK INTER + INTRA:          -9.499
REMARK INTER:                  -8.862
REMARK INTRA:                  -0.637
REMARK UNBOUND:                -0.954
REMARK  Name = 
REMARK  7 active torsions:
REMARK  status: ('A' for Active; 'I' for Inactive)
REMARK    1  A    between atoms: C_2  and  C_4
REMARK    2  A    between atoms: N_8  and  C_9
REMARK    3  A    between atoms: C_9  and  C_10
REMARK    4  A    between atoms: C_14  and  C_15
REMARK    5  A    between atoms: C_19  and  O_20
REMARK    6  A    between atoms: O_20  and  C_21
REMARK    7  A    between atoms: C_21  and  C_22
REMARK                            x       y       z     vdW  Elec       q    Type
REMARK                         _______ _______ _______ _____ _____    ______ ____
ROOT
ATOM      1  C   UNL     1      47.806   8.006  13.125  0.00  0.00    +0.000 C 
ATOM      2  C   UNL     1      47.341   9.442  12.881  0.00  0.00    +0.000 C 
ATOM      3  C   UNL     1      47.860   8.633  11.743  0.00  0.00    +0.000 C 
ENDROOT
BRANCH   1   8
ATOM      4  C   UNL     1      44.834   4.040  11.499  0.00  0.00    +0.000 A 
ATOM      5  C   UNL     1      45.320   5.121  10.773  0.00  0.00    +0.000 A 
ATOM      6  C   UNL     1      45.993   6.148  11.440  0.00  0.00    +0.000 A 
ATOM      7  C   UNL     1      46.162   6.079  12.818  0.00  0.00    +0.000 A 
ATOM      8  N   UNL     1      46.742   7.099  13.573  0.00  0.00    +0.000 N 
ATOM      9  N   UNL     1      45.685   5.036  13.532  0.00  0.00    +0.000 NA
ATOM     10  C   UNL     1      45.030   4.047  12.869  0.00  0.00    +0.000 A 
ATOM     11  H   UNL     1      46.797   6.752  14.528  0.00  0.00    +0.000 HD
BRANCH   4  13
ATOM     12  N   UNL     1      44.699   2.285   9.826  0.00  0.00    +0.000 N 
ATOM     13  C   UNL     1      44.097   2.921  10.877  0.00  0.00    +0.000 C 
ATOM     14  O   UNL     1      43.007   2.557  11.297  0.00  0.00    +0.000 OA
ATOM     15  H   UNL     1      44.226   1.467   9.459  0.00  0.00    +0.000 HD
ATOM     16  H   UNL     1      45.680   2.392   9.609  0.00  0.00    +0.000 HD
ENDBRANCH   4  13
ENDBRANCH   1   8
BRANCH   1  17
ATOM     17  C   UNL     1      49.149   7.805  13.826  0.00  0.00    +0.000 A 
ATOM     18  C   UNL     1      50.316   8.441  13.378  0.00  0.00    +0.000 A 
ATOM     19  C   UNL     1      51.513   8.338  14.086  0.00  0.00    +0.000 A 
ATOM     20  C   UNL     1      51.567   7.599  15.269  0.00  0.00    +0.000 A 
ATOM     21  C   UNL     1      50.431   6.940  15.759  0.00  0.00    +0.000 A 
ATOM     22  C   UNL     1      49.249   7.034  15.001  0.00  0.00    +0.000 A 
BRANCH  21  23
ATOM     23  C   UNL     1      50.439   6.226  17.055  0.00  0.00    +0.000 A 
ATOM     24  C   UNL     1      49.555   6.545  18.083  0.00  0.00    +0.000 A 
ATOM     25  N   UNL     1      49.469   5.897  19.270  0.00  0.00    +0.000 NA
ATOM     26  C   UNL     1      50.312   4.851  19.437  0.00  0.00    +0.000 A 
ATOM     27  C   UNL     1      51.237   4.431  18.495  0.00  0.00    +0.000 A 
ATOM     28  C   UNL     1      51.300   5.144  17.296  0.00  0.00    +0.000 A 
BRANCH  27  29
ATOM     29  O   UNL     1      51.999   3.345  18.827  0.00  0.00    +0.000 OA
BRANCH  29  30
ATOM     30  C   UNL     1      52.357   2.469  17.757  0.00  0.00    +0.000 C 
BRANCH  30  31
ATOM     31  C   UNL     1      51.267   1.428  17.578  0.00  0.00    +0.000 C 
ATOM     32  F   UNL     1      50.545   1.729  16.466  0.00  0.00    +0.000 F 
ENDBRANCH  30  31
ENDBRANCH  29  30
ENDBRANCH  27  29
ENDBRANCH  21  23
ENDBRANCH   1  17
TORSDOF 7
ENDMDL
