MODEL 1
REMARK VINA RESULT:    -8.464      0.000      0.000
REMARK INTER + INTRA:         -11.714
REMARK INTER:                 -10.938
REMARK INTRA:                  -0.776
REMARK UNBOUND:                -0.776
REMARK  Name = 
REMARK  5 active torsions:
REMARK  status: ('A' for Active; 'I' for Inactive)
REMARK    1  A    between atoms: C_2  and  C_3
REMARK    2  A    between atoms: C_6  and  C_7
REMARK    3  A    between atoms: C_7  and  N_8
REMARK    4  A    between atoms: N_8  and  C_9
REMARK    5  A    between atoms: C_12  and  C_13
REMARK                            x       y       z     vdW  Elec       q    Type
REMARK                         _______ _______ _______ _____ _____    ______ ____
ROOT
ATOM      1  N   UNL     1      44.014   3.790  10.606  0.00  0.00    +0.000 N 
ATOM      2  H   UNL     1      43.357   3.050  10.822  0.00  0.00    +0.000 HD
ENDROOT
BRANCH   1   3
ATOM      3  C   UNL     1      44.881   3.500   9.542  0.00  0.00    +0.000 A 
ATOM      4  C   UNL     1      45.452   4.454   8.702  0.00  0.00    +0.000 A 
ATOM      5  C   UNL     1      46.299   4.069   7.648  0.00  0.00    +0.000 A 
ATOM      6  C   UNL     1      46.603   2.717   7.436  0.00  0.00    +0.000 A 
ATOM      7  C   UNL     1      46.048   1.754   8.282  0.00  0.00    +0.000 A 
ATOM      8  C   UNL     1      45.205   2.151   9.322  0.00  0.00    +0.000 A 
BRANCH   6   9
ATOM      9  C   UNL     1      47.465   2.336   6.287  0.00  0.00    +0.000 C 
ATOM     10  N   UNL     1      47.284   3.012   5.112  0.00  0.00    +0.000 N 
ATOM     11  O   UNL     1      48.294   1.438   6.373  0.00  0.00    +0.000 OA
ATOM     12  H   UNL     1      46.480   3.593   4.927  0.00  0.00    +0.000 HD
ATOM     13  H   UNL     1      47.829   2.697   4.316  0.00  0.00    +0.000 HD
ENDBRANCH   6   9
ENDBRANCH   1   3
BRANCH   1  14
ATOM     14  C   UNL     1      43.938   5.003  11.419  0.00  0.00    +0.000 C 
ATOM     15  C   UNL     1      42.943   6.122  11.186  0.00  0.00    +0.000 C 
ATOM     16  C   UNL     1      42.640   5.097  12.226  0.00  0.00    +0.000 C 
BRANCH  14  20
ATOM     17  C   UNL     1      47.585   6.162  13.525  0.00  0.00    +0.000 A 
ATOM     18  C   UNL     1      47.181   6.849  12.375  0.00  0.00    +0.000 A 
ATOM     19  C   UNL     1      46.025   6.457  11.689  0.00  0.00    +0.000 A 
ATOM     20  C   UNL     1      45.242   5.374  12.123  0.00  0.00    +0.000 A 
ATOM     21  C   UNL     1      45.693   4.670  13.253  0.00  0.00    +0.000 A 
ATOM     22  C   UNL     1      46.838   5.064  13.957  0.00  0.00    +0.000 A 
ATOM     23 CL   UNL     1      47.255   4.168  15.375  0.00  0.00    +0.000 Cl
BRANCH  17  25
ATOM     24  N   UNL     1      49.701   6.961  14.792  0.00  0.00    +0.000 NA
ATOM     25  C   UNL     1      48.748   6.618  14.232  0.00  0.00    +0.000 C 
ENDBRANCH  17  25
ENDBRANCH  14  20
ENDBRANCH   1  14
TORSDOF 5
ENDMDL
MODEL 2
REMARK VINA RESULT:    -7.340      3.300      6.883
REMARK INTER + INTRA:         -10.262
REMARK INTER:                  -9.964
REMARK INTRA:                  -0.298
REMARK UNBOUND:                -0.776
REMARK  Name = 
REMARK  5 active torsions:
REMARK  status: ('A' for Active; 'I' for Inactive)
REMARK    1  A    between atoms: C_2  and  C_3
REMARK    2  A    between atoms: C_6  and  C_7
REMARK    3  A    between atoms: C_7  and  N_8
REMARK    4  A    between atoms: N_8  and  C_9
REMARK    5  A    between atoms: C_12  and  C_13
REMARK                            x       y       z     vdW  Elec       q    Type
REMARK                         _______ _______ _______ _____ _____    ______ ____
ROOT
ATOM      1  N   UNL     1      44.220   5.289  10.718  0.00  0.00    +0.000 N 
ATOM      2  H   UNL     1      43.415   5.633  10.207  0.00  0.00    +0.000 HD
ENDROOT
BRANCH   1   3
ATOM      3  C   UNL     1      44.925   6.279  11.417  0.00  0.00    +0.000 A 
ATOM      4  C   UNL     1      44.596   7.634  11.423  0.00  0.00    +0.000 A 
ATOM      5  C   UNL     1      45.371   8.558  12.144  0.00  0.00    +0.000 A 
ATOM      6  C   UNL     1      46.479   8.132  12.889  0.00  0.00    +0.000 A 
ATOM      7  C   UNL     1      46.808   6.775  12.903  0.00  0.00    +0.000 A 
ATOM      8  C   UNL     1      46.031   5.868  12.179  0.00  0.00    +0.000 A 
BRANCH   6   9
ATOM      9  C   UNL     1      47.307   9.138  13.604  0.00  0.00    +0.000 C 
ATOM     10  N   UNL     1      47.420   9.013  14.961  0.00  0.00    +0.000 N 
ATOM     11  O   UNL     1      47.854  10.060  13.011  0.00  0.00    +0.000 OA
ATOM     12  H   UNL     1      46.821   8.417  15.513  0.00  0.00    +0.000 HD
ATOM     13  H   UNL     1      47.930   9.744  15.445  0.00  0.00    +0.000 HD
ENDBRANCH   6   9
ENDBRANCH   1   3
BRANCH   1  14
ATOM     14  C   UNL     1      44.490   3.854  10.642  0.00  0.00    +0.000 C 
ATOM     15  C   UNL     1      44.575   2.940  11.848  0.00  0.00    +0.000 C 
ATOM     16  C   UNL     1      43.297   3.001  11.082  0.00  0.00    +0.000 C 
BRANCH  14  20
ATOM     17  C   UNL     1      46.810   2.622   7.152  0.00  0.00    +0.000 A 
ATOM     18  C   UNL     1      46.544   3.976   7.386  0.00  0.00    +0.000 A 
ATOM     19  C   UNL     1      45.777   4.364   8.492  0.00  0.00    +0.000 A 
ATOM     20  C   UNL     1      45.254   3.421   9.392  0.00  0.00    +0.000 A 
ATOM     21  C   UNL     1      45.495   2.065   9.112  0.00  0.00    +0.000 A 
ATOM     22  C   UNL     1      46.275   1.667   8.019  0.00  0.00    +0.000 A 
ATOM     23 CL   UNL     1      46.566  -0.025   7.816  0.00  0.00    +0.000 Cl
BRANCH  17  25
ATOM     24  N   UNL     1      48.294   1.941   5.139  0.00  0.00    +0.000 NA
ATOM     25  C   UNL     1      47.638   2.261   6.037  0.00  0.00    +0.000 C 
ENDBRANCH  17  25
ENDBRANCH  14  20
ENDBRANCH   1  14
TORSDOF 5
ENDMDL
MODEL 3
REMARK VINA RESULT:    -6.329      1.733      2.184
REMARK INTER + INTRA:          -8.955
REMARK INTER:                  -8.105
REMARK INTRA:                  -0.851
REMARK UNBOUND:                -0.776
REMARK  Name = 
REMARK  5 active torsions:
REMARK  status: ('A' for Active; 'I' for Inactive)
REMARK    1  A    between atoms: C_2  and  C_3
REMARK    2  A    between atoms: C_6  and  C_7
REMARK    3  A    between atoms: C_7  and  N_8
REMARK    4  A    between atoms: N_8  and  C_9
REMARK    5  A    between atoms: C_12  and  C_13
REMARK                            x       y       z     vdW  Elec       q    Type
REMARK                         _______ _______ _______ _____ _____    ______ ____
ROOT
ATOM      1  N   UNL     1      44.265   5.265  10.411  0.00  0.00    +0.000 N 
ATOM      2  H   UNL     1      43.255   5.181  10.383  0.00  0.00    +0.000 HD
ENDROOT
BRANCH   1   3
ATOM      3  C   UNL     1      44.943   4.354   9.589  0.00  0.00    +0.000 A 
ATOM      4  C   UNL     1      45.832   4.710   8.576  0.00  0.00    +0.000 A 
ATOM      5  C   UNL     1      46.456   3.726   7.790  0.00  0.00    +0.000 A 
ATOM      6  C   UNL     1      46.213   2.365   8.025  0.00  0.00    +0.000 A 
ATOM      7  C   UNL     1      45.337   1.998   9.048  0.00  0.00    +0.000 A 
ATOM      8  C   UNL     1      44.720   2.986   9.818  0.00  0.00    +0.000 A 
BRANCH   6   9
ATOM      9  C   UNL     1      46.852   1.350   7.148  0.00  0.00    +0.000 C 
ATOM     10  N   UNL     1      46.793   0.044   7.550  0.00  0.00    +0.000 N 
ATOM     11  O   UNL     1      47.429   1.663   6.115  0.00  0.00    +0.000 OA
ATOM     12  H   UNL     1      46.531  -0.237   8.483  0.00  0.00    +0.000 HD
ATOM     13  H   UNL     1      47.291  -0.631   6.979  0.00  0.00    +0.000 HD
ENDBRANCH   6   9
ENDBRANCH   1   3
BRANCH   1  14
ATOM     14  C   UNL     1      44.820   6.304  11.279  0.00  0.00    +0.000 C 
ATOM     15  C   UNL     1      45.148   7.710  10.819  0.00  0.00    +0.000 C 
ATOM     16  C   UNL     1      43.850   7.466  11.510  0.00  0.00    +0.000 C 
BRANCH  14  20
ATOM     17  C   UNL     1      47.128   4.701  14.623  0.00  0.00    +0.000 A 
ATOM     18  C   UNL     1      45.979   4.041  14.172  0.00  0.00    +0.000 A 
ATOM     19  C   UNL     1      45.228   4.573  13.117  0.00  0.00    +0.000 A 
ATOM     20  C   UNL     1      45.594   5.772  12.483  0.00  0.00    +0.000 A 
ATOM     21  C   UNL     1      46.725   6.441  12.983  0.00  0.00    +0.000 A 
ATOM     22  C   UNL     1      47.493   5.910  14.026  0.00  0.00    +0.000 A 
ATOM     23 CL   UNL     1      48.904   6.783  14.508  0.00  0.00    +0.000 Cl
BRANCH  17  25
ATOM     24  N   UNL     1      48.545   3.613  16.501  0.00  0.00    +0.000 NA
ATOM     25  C   UNL     1      47.901   4.105  15.674  0.00  0.00    +0.000 C 
ENDBRANCH  17  25
ENDBRANCH  14  20
ENDBRANCH   1  14
TORSDOF 5
ENDMDL
MODEL 4
REMARK VINA RESULT:    -6.307      3.335      6.307
REMARK INTER + INTRA:          -8.927
REMARK INTER:                  -8.544
REMARK INTRA:                  -0.383
REMARK UNBOUND:                -0.776
REMARK  Name = 
REMARK  5 active torsions:
REMARK  status: ('A' for Active; 'I' for Inactive)
REMARK    1  A    between atoms: C_2  and  C_3
REMARK    2  A    between atoms: C_6  and  C_7
REMARK    3  A    between atoms: C_7  and  N_8
REMARK    4  A    between atoms: N_8  and  C_9
REMARK    5  A    between atoms: C_12  and  C_13
REMARK                            x       y       z     vdW  Elec       q    Type
REMARK                         _______ _______ _______ _____ _____    ______ ____
ROOT
ATOM      1  N   UNL     1      45.557   5.553  13.212  0.00  0.00    +0.000 N 
ATOM      2  H   UNL     1      45.767   5.193  14.135  0.00  0.00    +0.000 HD
ENDROOT
BRANCH   1   3
ATOM      3  C   UNL     1      46.349   6.644  12.824  0.00  0.00    +0.000 A 
ATOM      4  C   UNL     1      45.881   7.948  12.669  0.00  0.00    +0.000 A 
ATOM      5  C   UNL     1      46.746   8.978  12.261  0.00  0.00    +0.000 A 
ATOM      6  C   UNL     1      48.104   8.717  12.025  0.00  0.00    +0.000 A 
ATOM      7  C   UNL     1      48.585   7.418  12.193  0.00  0.00    +0.000 A 
ATOM      8  C   UNL     1      47.713   6.403  12.594  0.00  0.00    +0.000 A 
BRANCH   6   9
ATOM      9  C   UNL     1      48.985   9.816  11.551  0.00  0.00    +0.000 C 
ATOM     10  N   UNL     1      48.386  10.894  10.960  0.00  0.00    +0.000 N 
ATOM     11  O   UNL     1      50.203   9.758  11.663  0.00  0.00    +0.000 OA
ATOM     12  H   UNL     1      47.426  10.891  10.648  0.00  0.00    +0.000 HD
ATOM     13  H   UNL     1      49.001  11.605  10.579  0.00  0.00    +0.000 HD
ENDBRANCH   6   9
ENDBRANCH   1   3
BRANCH   1  14
ATOM     14  C   UNL     1      44.497   4.880  12.462  0.00  0.00    +0.000 C 
ATOM     15  C   UNL     1      43.379   4.081  13.101  0.00  0.00    +0.000 C 
ATOM     16  C   UNL     1      43.115   5.494  12.705  0.00  0.00    +0.000 C 
BRANCH  14  20
ATOM     17  C   UNL     1      45.718   3.804   8.408  0.00  0.00    +0.000 A 
ATOM     18  C   UNL     1      45.856   5.119   8.865  0.00  0.00    +0.000 A 
ATOM     19  C   UNL     1      45.439   5.465  10.156  0.00  0.00    +0.000 A 
ATOM     20  C   UNL     1      44.873   4.517  11.026  0.00  0.00    +0.000 A 
ATOM     21  C   UNL     1      44.701   3.214  10.529  0.00  0.00    +0.000 A 
ATOM     22  C   UNL     1      45.131   2.853   9.246  0.00  0.00    +0.000 A 
ATOM     23 CL   UNL     1      44.936   1.203   8.770  0.00  0.00    +0.000 Cl
BRANCH  17  25
ATOM     24  N   UNL     1      46.615   3.208   6.050  0.00  0.00    +0.000 NA
ATOM     25  C   UNL     1      46.198   3.472   7.097  0.00  0.00    +0.000 C 
ENDBRANCH  17  25
ENDBRANCH  14  20
ENDBRANCH   1  14
TORSDOF 5
ENDMDL
MODEL 5
REMARK VINA RESULT:    -5.821      2.956      5.148
REMARK INTER + INTRA:          -8.298
REMARK INTER:                  -7.906
REMARK INTRA:                  -0.393
REMARK UNBOUND:                -0.776
REMARK  Name = 
REMARK  5 active torsions:
REMARK  status: ('A' for Active; 'I' for Inactive)
REMARK    1  A    between atoms: C_2  and  C_3
REMARK    2  A    between atoms: C_6  and  C_7
REMARK    3  A    between atoms: C_7  and  N_8
REMARK    4  A    between atoms: N_8  and  C_9
REMARK    5  A    between atoms: C_12  and  C_13
REMARK                            x       y       z     vdW  Elec       q    Type
REMARK                         _______ _______ _______ _____ _____    ______ ____
ROOT
ATOM      1  N   UNL     1      46.813   7.124  13.696  0.00  0.00    +0.000 N 
ATOM      2  H   UNL     1      46.239   7.877  14.057  0.00  0.00    +0.000 HD
ENDROOT
BRANCH   1   3
ATOM      3  C   UNL     1      46.147   6.268  12.806  0.00  0.00    +0.000 A 
ATOM      4  C   UNL     1      45.383   5.167  13.188  0.00  0.00    +0.000 A 
ATOM      5  C   UNL     1      44.763   4.354  12.223  0.00  0.00    +0.000 A 
ATOM      6  C   UNL     1      44.884   4.649  10.857  0.00  0.00    +0.000 A 
ATOM      7  C   UNL     1      45.635   5.759  10.466  0.00  0.00    +0.000 A 
ATOM      8  C   UNL     1      46.249   6.556  11.435  0.00  0.00    +0.000 A 
BRANCH   6   9
ATOM      9  C   UNL     1      44.256   3.746   9.859  0.00  0.00    +0.000 C 
ATOM     10  N   UNL     1      44.155   4.200   8.573  0.00  0.00    +0.000 N 
ATOM     11  O   UNL     1      43.823   2.643  10.171  0.00  0.00    +0.000 OA
ATOM     12  H   UNL     1      44.289   5.167   8.316  0.00  0.00    +0.000 HD
ATOM     13  H   UNL     1      43.664   3.603   7.916  0.00  0.00    +0.000 HD
ENDBRANCH   6   9
ENDBRANCH   1   3
BRANCH   1  14
ATOM     14  C   UNL     1      48.202   7.072  14.149  0.00  0.00    +0.000 C 
ATOM     15  C   UNL     1      49.400   7.078  13.221  0.00  0.00    +0.000 C 
ATOM     16  C   UNL     1      48.974   8.361  13.850  0.00  0.00    +0.000 C 
BRANCH  14  20
ATOM     17  C   UNL     1      48.612   5.297  18.119  0.00  0.00    +0.000 A 
ATOM     18  C   UNL     1      49.159   6.556  17.845  0.00  0.00    +0.000 A 
ATOM     19  C   UNL     1      49.047   7.109  16.563  0.00  0.00    +0.000 A 
ATOM     20  C   UNL     1      48.394   6.429  15.521  0.00  0.00    +0.000 A 
ATOM     21  C   UNL     1      47.894   5.147  15.808  0.00  0.00    +0.000 A 
ATOM     22  C   UNL     1      47.984   4.592  17.090  0.00  0.00    +0.000 A 
ATOM     23 CL   UNL     1      47.268   3.040  17.343  0.00  0.00    +0.000 Cl
BRANCH  17  25
ATOM     24  N   UNL     1      48.744   4.356  20.531  0.00  0.00    +0.000 NA
ATOM     25  C   UNL     1      48.702   4.779  19.454  0.00  0.00    +0.000 C 
ENDBRANCH  17  25
ENDBRANCH  14  20
ENDBRANCH   1  14
TORSDOF 5
ENDMDL
MODEL 6
REMARK VINA RESULT:    -5.583      3.230      5.171
REMARK INTER + INTRA:          -7.991
REMARK INTER:                  -7.276
REMARK INTRA:                  -0.715
REMARK UNBOUND:                -0.776
REMARK  Name = 
REMARK  5 active torsions:
REMARK  status: ('A' for Active; 'I' for Inactive)
REMARK    1  A    between atoms: C_2  and  C_3
REMARK    2  A    between atoms: C_6  and  C_7
REMARK    3  A    between atoms: C_7  and  N_8
REMARK    4  A    between atoms: N_8  and  C_9
REMARK    5  A    between atoms: C_12  and  C_13
REMARK                            x       y       z     vdW  Elec       q    Type
REMARK                         _______ _______ _______ _____ _____    ______ ____
ROOT
ATOM      1  N   UNL     1      46.770   7.595  12.679  0.00  0.00    +0.000 N 
ATOM      2  H   UNL     1      46.200   8.433  12.667  0.00  0.00    +0.000 HD
ENDROOT
BRANCH   1   3
ATOM      3  C   UNL     1      46.080   6.422  12.344  0.00  0.00    +0.000 A 
ATOM      4  C   UNL     1      45.864   5.353  13.212  0.00  0.00    +0.000 A 
ATOM      5  C   UNL     1      45.172   4.207  12.782  0.00  0.00    +0.000 A 
ATOM      6  C   UNL     1      44.666   4.128  11.477  0.00  0.00    +0.000 A 
ATOM      7  C   UNL     1      44.863   5.200  10.605  0.00  0.00    +0.000 A 
ATOM      8  C   UNL     1      45.556   6.330  11.043  0.00  0.00    +0.000 A 
BRANCH   6   9
ATOM      9  C   UNL     1      43.979   2.886  11.037  0.00  0.00    +0.000 C 
ATOM     10  N   UNL     1      44.497   2.227   9.957  0.00  0.00    +0.000 N 
ATOM     11  O   UNL     1      42.974   2.472  11.601  0.00  0.00    +0.000 OA
ATOM     12  H   UNL     1      45.175   2.637   9.332  0.00  0.00    +0.000 HD
ATOM     13  H   UNL     1      43.981   1.419   9.624  0.00  0.00    +0.000 HD
ENDBRANCH   6   9
ENDBRANCH   1   3
BRANCH   1  14
ATOM     14  C   UNL     1      48.181   7.759  13.029  0.00  0.00    +0.000 C 
ATOM     15  C   UNL     1      49.332   7.333  12.140  0.00  0.00    +0.000 C 
ATOM     16  C   UNL     1      48.905   8.761  12.126  0.00  0.00    +0.000 C 
BRANCH  14  20
ATOM     17  C   UNL     1      48.819   7.890  17.348  0.00  0.00    +0.000 A 
ATOM     18  C   UNL     1      48.298   9.000  16.674  0.00  0.00    +0.000 A 
ATOM     19  C   UNL     1      48.121   8.962  15.285  0.00  0.00    +0.000 A 
ATOM     20  C   UNL     1      48.456   7.825  14.530  0.00  0.00    +0.000 A 
ATOM     21  C   UNL     1      49.020   6.740  15.222  0.00  0.00    +0.000 A 
ATOM     22  C   UNL     1      49.186   6.760  16.612  0.00  0.00    +0.000 A 
ATOM     23 CL   UNL     1      49.822   5.340  17.365  0.00  0.00    +0.000 Cl
BRANCH  17  25
ATOM     24  N   UNL     1      49.016   7.987  19.931  0.00  0.00    +0.000 NA
ATOM     25  C   UNL     1      48.945   7.943  18.776  0.00  0.00    +0.000 C 
ENDBRANCH  17  25
ENDBRANCH  14  20
ENDBRANCH   1  14
TORSDOF 5
ENDMDL
MODEL 7
REMARK VINA RESULT:    -5.577      4.525      6.531
REMARK INTER + INTRA:          -7.983
REMARK INTER:                  -7.389
REMARK INTRA:                  -0.594
REMARK UNBOUND:                -0.776
REMARK  Name = 
REMARK  5 active torsions:
REMARK  status: ('A' for Active; 'I' for Inactive)
REMARK    1  A    between atoms: C_2  and  C_3
REMARK    2  A    between atoms: C_6  and  C_7
REMARK    3  A    between atoms: C_7  and  N_8
REMARK    4  A    between atoms: N_8  and  C_9
REMARK    5  A    between atoms: C_12  and  C_13
REMARK                            x       y       z     vdW  Elec       q    Type
REMARK                         _______ _______ _______ _____ _____    ______ ____
ROOT
ATOM      1  N   UNL     1      47.674   3.149  15.308  0.00  0.00    +0.000 N 
ATOM      2  H   UNL     1      47.871   2.198  15.019  0.00  0.00    +0.000 HD
ENDROOT
BRANCH   1   3
ATOM      3  C   UNL     1      47.137   3.960  14.298  0.00  0.00    +0.000 A 
ATOM      4  C   UNL     1      47.399   5.321  14.151  0.00  0.00    +0.000 A 
ATOM      5  C   UNL     1      46.802   6.059  13.114  0.00  0.00    +0.000 A 
ATOM      6  C   UNL     1      45.949   5.435  12.194  0.00  0.00    +0.000 A 
ATOM      7  C   UNL     1      45.693   4.069  12.323  0.00  0.00    +0.000 A 
ATOM      8  C   UNL     1      46.289   3.348  13.360  0.00  0.00    +0.000 A 
BRANCH   6   9
ATOM      9  C   UNL     1      45.297   6.250  11.136  0.00  0.00    +0.000 C 
ATOM     10  N   UNL     1      45.276   5.738   9.869  0.00  0.00    +0.000 N 
ATOM     11  O   UNL     1      44.813   7.349  11.377  0.00  0.00    +0.000 OA
ATOM     12  H   UNL     1      45.845   4.956   9.578  0.00  0.00    +0.000 HD
ATOM     13  H   UNL     1      44.890   6.332   9.143  0.00  0.00    +0.000 HD
ENDBRANCH   6   9
ENDBRANCH   1   3
BRANCH   1  14
ATOM     14  C   UNL     1      47.969   3.494  16.699  0.00  0.00    +0.000 C 
ATOM     15  C   UNL     1      47.064   4.333  17.578  0.00  0.00    +0.000 C 
ATOM     16  C   UNL     1      46.998   2.848  17.691  0.00  0.00    +0.000 C 
BRANCH  14  20
ATOM     17  C   UNL     1      52.182   3.452  17.853  0.00  0.00    +0.000 A 
ATOM     18  C   UNL     1      51.491   4.663  17.734  0.00  0.00    +0.000 A 
ATOM     19  C   UNL     1      50.148   4.673  17.338  0.00  0.00    +0.000 A 
ATOM     20  C   UNL     1      49.456   3.484  17.048  0.00  0.00    +0.000 A 
ATOM     21  C   UNL     1      50.184   2.284  17.130  0.00  0.00    +0.000 A 
ATOM     22  C   UNL     1      51.522   2.261  17.541  0.00  0.00    +0.000 A 
ATOM     23 CL   UNL     1      52.293   0.720  17.676  0.00  0.00    +0.000 Cl
BRANCH  17  25
ATOM     24  N   UNL     1      54.650   3.475  18.645  0.00  0.00    +0.000 NA
ATOM     25  C   UNL     1      53.543   3.473  18.306  0.00  0.00    +0.000 C 
ENDBRANCH  17  25
ENDBRANCH  14  20
ENDBRANCH   1  14
TORSDOF 5
ENDMDL
