MODEL 1
REMARK VINA RESULT:    -7.375      0.000      0.000
REMARK INTER + INTRA:         -10.796
REMARK INTER:                  -9.962
REMARK INTRA:                  -0.834
REMARK UNBOUND:                -0.834
REMARK  Name = 
REMARK  7 active torsions:
REMARK  status: ('A' for Active; 'I' for Inactive)
REMARK    1  A    between atoms: C_1  and  C_2
REMARK    2  A    between atoms: C_2  and  N_3
REMARK    3  A    between atoms: C_2  and  C_11
REMARK    4  A    between atoms: C_4  and  C_6
REMARK    5  A    between atoms: C_14  and  C_15
REMARK    6  A    between atoms: C_15  and  N_16
REMARK    7  A    between atoms: C_17  and  C_19
REMARK                            x       y       z     vdW  Elec       q    Type
REMARK                         _______ _______ _______ _____ _____    ______ ____
ROOT
ATOM      1  C   UNL     1      44.895   5.351  12.114  0.00  0.00    +0.000 A 
ATOM      2  C   UNL     1      45.495   4.893  13.299  0.00  0.00    +0.000 A 
ATOM      3  C   UNL     1      46.674   5.470  13.783  0.00  0.00    +0.000 A 
ATOM      4  C   UNL     1      47.285   6.525  13.098  0.00  0.00    +0.000 A 
ATOM      5  C   UNL     1      46.713   6.961  11.893  0.00  0.00    +0.000 A 
ATOM      6  C   UNL     1      45.530   6.386  11.410  0.00  0.00    +0.000 A 
ENDROOT
BRANCH   1   8
ATOM      7  C   UNL     1      42.415   5.708  11.721  0.00  0.00    +0.000 C 
ATOM      8  C   UNL     1      43.589   4.728  11.651  0.00  0.00    +0.000 C 
BRANCH   8   9
ATOM      9  N   UNL     1      43.709   4.161  10.318  0.00  0.00    +0.000 N 
ATOM     10  C   UNL     1      44.508   3.052  10.088  0.00  0.00    +0.000 C 
ATOM     11  O   UNL     1      45.185   2.531  10.971  0.00  0.00    +0.000 OA
ATOM     12  H   UNL     1      43.139   4.529   9.568  0.00  0.00    +0.000 HD
BRANCH  10  13
ATOM     13  C   UNL     1      44.458   2.538   8.636  0.00  0.00    +0.000 C 
ATOM     14  C   UNL     1      44.771   3.619   7.614  0.00  0.00    +0.000 C 
ATOM     15  C   UNL     1      46.287   3.666   7.597  0.00  0.00    +0.000 C 
ATOM     16  C   UNL     1      46.720   2.257   7.977  0.00  0.00    +0.000 C 
ATOM     17  N   UNL     1      45.516   1.530   8.402  0.00  0.00    +0.000 NA
ATOM     18  H   UNL     1      45.715   1.007   9.253  0.00  0.00    +0.000 HD
ENDBRANCH  10  13
ENDBRANCH   8   9
ENDBRANCH   1   8
BRANCH   4  19
ATOM     19  C   UNL     1      48.545   7.160  13.628  0.00  0.00    +0.000 C 
BRANCH  19  20
ATOM     20  N   UNL     1      48.382   7.597  14.993  0.00  0.00    +0.000 N 
ATOM     21  C   UNL     1      49.100   7.029  16.012  0.00  0.00    +0.000 C 
ATOM     22  O   UNL     1      49.946   6.162  15.809  0.00  0.00    +0.000 OA
ATOM     23  H   UNL     1      47.550   8.138  15.206  0.00  0.00    +0.000 HD
BRANCH  21  24
ATOM     24  C   UNL     1      48.850   7.552  17.363  0.00  0.00    +0.000 A 
ATOM     25  C   UNL     1      49.250   8.842  17.685  0.00  0.00    +0.000 A 
ATOM     26  S   UNL     1      48.844   9.309  19.274  0.00  0.00    +0.000 S 
ATOM     27  C   UNL     1      48.167   7.785  19.607  0.00  0.00    +0.000 A 
ATOM     28  N   UNL     1      47.647   7.505  20.832  0.00  0.00    +0.000 NA
ATOM     29  C   UNL     1      47.193   6.302  20.957  0.00  0.00    +0.000 A 
ATOM     30  N   UNL     1      47.206   5.357  19.965  0.00  0.00    +0.000 N 
ATOM     31  C   UNL     1      47.693   5.604  18.703  0.00  0.00    +0.000 A 
ATOM     32  O   UNL     1      47.651   4.746  17.826  0.00  0.00    +0.000 OA
ATOM     33  C   UNL     1      48.230   6.938  18.513  0.00  0.00    +0.000 A 
ATOM     34  H   UNL     1      46.829   4.435  20.125  0.00  0.00    +0.000 HD
ENDBRANCH  21  24
ENDBRANCH  19  20
ENDBRANCH   4  19
TORSDOF 6
ENDMDL
MODEL 2
REMARK VINA RESULT:    -7.137      3.258      9.097
REMARK INTER + INTRA:         -10.474
REMARK INTER:                  -9.155
REMARK INTRA:                  -1.319
REMARK UNBOUND:                -0.834
REMARK  Name = 
REMARK  7 active torsions:
REMARK  status: ('A' for Active; 'I' for Inactive)
REMARK    1  A    between atoms: C_1  and  C_2
REMARK    2  A    between atoms: C_2  and  N_3
REMARK    3  A    between atoms: C_2  and  C_11
REMARK    4  A    between atoms: C_4  and  C_6
REMARK    5  A    between atoms: C_14  and  C_15
REMARK    6  A    between atoms: C_15  and  N_16
REMARK    7  A    between atoms: C_17  and  C_19
REMARK                            x       y       z     vdW  Elec       q    Type
REMARK                         _______ _______ _______ _____ _____    ______ ____
ROOT
ATOM      1  C   UNL     1      49.773   7.582  15.550  0.00  0.00    +0.000 A 
ATOM      2  C   UNL     1      48.764   6.637  15.302  0.00  0.00    +0.000 A 
ATOM      3  C   UNL     1      47.958   6.720  14.162  0.00  0.00    +0.000 A 
ATOM      4  C   UNL     1      48.142   7.750  13.233  0.00  0.00    +0.000 A 
ATOM      5  C   UNL     1      49.121   8.720  13.494  0.00  0.00    +0.000 A 
ATOM      6  C   UNL     1      49.931   8.634  14.634  0.00  0.00    +0.000 A 
ENDROOT
BRANCH   1   8
ATOM      7  C   UNL     1      50.661   8.677  17.659  0.00  0.00    +0.000 C 
ATOM      8  C   UNL     1      50.656   7.426  16.776  0.00  0.00    +0.000 C 
BRANCH   8   9
ATOM      9  N   UNL     1      50.295   6.249  17.550  0.00  0.00    +0.000 N 
ATOM     10  C   UNL     1      51.164   5.175  17.654  0.00  0.00    +0.000 C 
ATOM     11  O   UNL     1      52.242   5.138  17.067  0.00  0.00    +0.000 OA
ATOM     12  H   UNL     1      49.437   6.250  18.086  0.00  0.00    +0.000 HD
BRANCH  10  13
ATOM     13  C   UNL     1      50.654   4.048  18.574  0.00  0.00    +0.000 C 
ATOM     14  C   UNL     1      49.158   3.808  18.444  0.00  0.00    +0.000 C 
ATOM     15  C   UNL     1      49.044   2.924  17.217  0.00  0.00    +0.000 C 
ATOM     16  C   UNL     1      50.358   2.158  17.170  0.00  0.00    +0.000 C 
ATOM     17  N   UNL     1      51.244   2.748  18.183  0.00  0.00    +0.000 NA
ATOM     18  H   UNL     1      52.175   2.874  17.792  0.00  0.00    +0.000 HD
ENDBRANCH  10  13
ENDBRANCH   8   9
ENDBRANCH   1   8
BRANCH   4  19
ATOM     19  C   UNL     1      47.286   7.830  11.994  0.00  0.00    +0.000 C 
BRANCH  19  20
ATOM     20  N   UNL     1      46.651   6.567  11.709  0.00  0.00    +0.000 N 
ATOM     21  C   UNL     1      45.290   6.466  11.591  0.00  0.00    +0.000 C 
ATOM     22  O   UNL     1      44.554   7.446  11.672  0.00  0.00    +0.000 OA
ATOM     23  H   UNL     1      47.205   5.730  11.858  0.00  0.00    +0.000 HD
BRANCH  21  24
ATOM     24  C   UNL     1      44.753   5.129  11.301  0.00  0.00    +0.000 A 
ATOM     25  C   UNL     1      43.978   4.479  12.252  0.00  0.00    +0.000 A 
ATOM     26  S   UNL     1      43.395   2.961  11.740  0.00  0.00    +0.000 S 
ATOM     27  C   UNL     1      44.202   3.093  10.249  0.00  0.00    +0.000 A 
ATOM     28  N   UNL     1      44.136   2.094   9.329  0.00  0.00    +0.000 NA
ATOM     29  C   UNL     1      44.818   2.312   8.254  0.00  0.00    +0.000 A 
ATOM     30  N   UNL     1      45.555   3.442   8.015  0.00  0.00    +0.000 N 
ATOM     31  C   UNL     1      45.628   4.490   8.902  0.00  0.00    +0.000 A 
ATOM     32  O   UNL     1      46.264   5.505   8.636  0.00  0.00    +0.000 OA
ATOM     33  C   UNL     1      44.889   4.289  10.134  0.00  0.00    +0.000 A 
ATOM     34  H   UNL     1      46.063   3.554   7.150  0.00  0.00    +0.000 HD
ENDBRANCH  21  24
ENDBRANCH  19  20
ENDBRANCH   4  19
TORSDOF 6
ENDMDL
MODEL 3
REMARK VINA RESULT:    -7.082      3.337      8.338
REMARK INTER + INTRA:         -10.400
REMARK INTER:                  -9.225
REMARK INTRA:                  -1.175
REMARK UNBOUND:                -0.834
REMARK  Name = 
REMARK  7 active torsions:
REMARK  status: ('A' for Active; 'I' for Inactive)
REMARK    1  A    between atoms: C_1  and  C_2
REMARK    2  A    between atoms: C_2  and  N_3
REMARK    3  A    between atoms: C_2  and  C_11
REMARK    4  A    between atoms: C_4  and  C_6
REMARK    5  A    between atoms: C_14  and  C_15
REMARK    6  A    between atoms: C_15  and  N_16
REMARK    7  A    between atoms: C_17  and  C_19
REMARK                            x       y       z     vdW  Elec       q    Type
REMARK                         _______ _______ _______ _____ _____    ______ ____
ROOT
ATOM      1  C   UNL     1      48.757   7.556  16.418  0.00  0.00    +0.000 A 
ATOM      2  C   UNL     1      48.604   6.458  15.555  0.00  0.00    +0.000 A 
ATOM      3  C   UNL     1      48.378   6.638  14.187  0.00  0.00    +0.000 A 
ATOM      4  C   UNL     1      48.305   7.924  13.640  0.00  0.00    +0.000 A 
ATOM      5  C   UNL     1      48.417   9.025  14.501  0.00  0.00    +0.000 A 
ATOM      6  C   UNL     1      48.647   8.844  15.872  0.00  0.00    +0.000 A 
ENDROOT
BRANCH   1   8
ATOM      7  C   UNL     1      48.244   8.237  18.806  0.00  0.00    +0.000 C 
ATOM      8  C   UNL     1      49.049   7.314  17.889  0.00  0.00    +0.000 C 
BRANCH   8   9
ATOM      9  N   UNL     1      48.847   5.921  18.252  0.00  0.00    +0.000 N 
ATOM     10  C   UNL     1      49.895   5.015  18.201  0.00  0.00    +0.000 C 
ATOM     11  O   UNL     1      51.015   5.323  17.802  0.00  0.00    +0.000 OA
ATOM     12  H   UNL     1      47.954   5.628  18.626  0.00  0.00    +0.000 HD
BRANCH  10  13
ATOM     13  C   UNL     1      49.523   3.602  18.692  0.00  0.00    +0.000 C 
ATOM     14  C   UNL     1      48.180   3.125  18.163  0.00  0.00    +0.000 C 
ATOM     15  C   UNL     1      48.506   2.608  16.775  0.00  0.00    +0.000 C 
ATOM     16  C   UNL     1      49.955   2.152  16.865  0.00  0.00    +0.000 C 
ATOM     17  N   UNL     1      50.474   2.598  18.165  0.00  0.00    +0.000 NA
ATOM     18  H   UNL     1      51.400   3.003  18.044  0.00  0.00    +0.000 HD
ENDBRANCH  10  13
ENDBRANCH   8   9
ENDBRANCH   1   8
BRANCH   4  19
ATOM     19  C   UNL     1      48.080   8.120  12.162  0.00  0.00    +0.000 C 
BRANCH  19  20
ATOM     20  N   UNL     1      47.427   6.977  11.572  0.00  0.00    +0.000 N 
ATOM     21  C   UNL     1      46.075   6.964  11.354  0.00  0.00    +0.000 C 
ATOM     22  O   UNL     1      45.365   7.935  11.603  0.00  0.00    +0.000 OA
ATOM     23  H   UNL     1      47.944   6.104  11.568  0.00  0.00    +0.000 HD
BRANCH  21  24
ATOM     24  C   UNL     1      45.518   5.746  10.749  0.00  0.00    +0.000 A 
ATOM     25  C   UNL     1      45.686   5.515   9.390  0.00  0.00    +0.000 A 
ATOM     26  S   UNL     1      45.023   4.038   8.858  0.00  0.00    +0.000 S 
ATOM     27  C   UNL     1      44.438   3.678  10.414  0.00  0.00    +0.000 A 
ATOM     28  N   UNL     1      43.735   2.538  10.649  0.00  0.00    +0.000 NA
ATOM     29  C   UNL     1      43.326   2.404  11.867  0.00  0.00    +0.000 A 
ATOM     30  N   UNL     1      43.562   3.305  12.871  0.00  0.00    +0.000 N 
ATOM     31  C   UNL     1      44.292   4.456  12.688  0.00  0.00    +0.000 A 
ATOM     32  O   UNL     1      44.520   5.221  13.622  0.00  0.00    +0.000 OA
ATOM     33  C   UNL     1      44.764   4.662  11.332  0.00  0.00    +0.000 A 
ATOM     34  H   UNL     1      43.219   3.139  13.806  0.00  0.00    +0.000 HD
ENDBRANCH  21  24
ENDBRANCH  19  20
ENDBRANCH   4  19
TORSDOF 6
ENDMDL
MODEL 4
REMARK VINA RESULT:    -6.955      5.696      8.371
REMARK INTER + INTRA:         -10.229
REMARK INTER:                  -9.152
REMARK INTRA:                  -1.076
REMARK UNBOUND:                -0.834
REMARK  Name = 
REMARK  7 active torsions:
REMARK  status: ('A' for Active; 'I' for Inactive)
REMARK    1  A    between atoms: C_1  and  C_2
REMARK    2  A    between atoms: C_2  and  N_3
REMARK    3  A    between atoms: C_2  and  C_11
REMARK    4  A    between atoms: C_4  and  C_6
REMARK    5  A    between atoms: C_14  and  C_15
REMARK    6  A    between atoms: C_15  and  N_16
REMARK    7  A    between atoms: C_17  and  C_19
REMARK                            x       y       z     vdW  Elec       q    Type
REMARK                         _______ _______ _______ _____ _____    ______ ____
ROOT
ATOM      1  C   UNL     1      47.102   7.964  12.442  0.00  0.00    +0.000 A 
ATOM      2  C   UNL     1      47.674   9.177  12.024  0.00  0.00    +0.000 A 
ATOM      3  C   UNL     1      49.055   9.299  11.831  0.00  0.00    +0.000 A 
ATOM      4  C   UNL     1      49.902   8.207  12.046  0.00  0.00    +0.000 A 
ATOM      5  C   UNL     1      49.343   7.004  12.502  0.00  0.00    +0.000 A 
ATOM      6  C   UNL     1      47.960   6.882  12.691  0.00  0.00    +0.000 A 
ENDROOT
BRANCH   1   8
ATOM      7  C   UNL     1      44.904   9.228  12.500  0.00  0.00    +0.000 C 
ATOM      8  C   UNL     1      45.594   7.864  12.592  0.00  0.00    +0.000 C 
BRANCH   8   9
ATOM      9  N   UNL     1      45.021   6.931  11.636  0.00  0.00    +0.000 N 
ATOM     10  C   UNL     1      44.097   5.981  12.040  0.00  0.00    +0.000 C 
ATOM     11  O   UNL     1      43.758   5.845  13.213  0.00  0.00    +0.000 OA
ATOM     12  H   UNL     1      45.237   7.030  10.653  0.00  0.00    +0.000 HD
BRANCH  10  13
ATOM     13  C   UNL     1      43.536   5.125  10.887  0.00  0.00    +0.000 C 
ATOM     14  C   UNL     1      44.620   4.389  10.115  0.00  0.00    +0.000 C 
ATOM     15  C   UNL     1      44.888   3.159  10.961  0.00  0.00    +0.000 C 
ATOM     16  C   UNL     1      43.570   2.887  11.672  0.00  0.00    +0.000 C 
ATOM     17  N   UNL     1      42.688   4.032  11.411  0.00  0.00    +0.000 NA
ATOM     18  H   UNL     1      42.226   4.312  12.274  0.00  0.00    +0.000 HD
ENDBRANCH  10  13
ENDBRANCH   8   9
ENDBRANCH   1   8
BRANCH   4  19
ATOM     19  C   UNL     1      51.388   8.331  11.820  0.00  0.00    +0.000 C 
BRANCH  19  20
ATOM     20  N   UNL     1      51.753   7.931  10.484  0.00  0.00    +0.000 N 
ATOM     21  C   UNL     1      52.693   8.624   9.766  0.00  0.00    +0.000 C 
ATOM     22  O   UNL     1      53.301   9.580  10.240  0.00  0.00    +0.000 OA
ATOM     23  H   UNL     1      51.120   7.301  10.003  0.00  0.00    +0.000 HD
BRANCH  21  24
ATOM     24  C   UNL     1      52.985   8.128   8.414  0.00  0.00    +0.000 A 
ATOM     25  C   UNL     1      52.890   8.991   7.330  0.00  0.00    +0.000 A 
ATOM     26  S   UNL     1      53.307   8.271   5.842  0.00  0.00    +0.000 S 
ATOM     27  C   UNL     1      53.576   6.765   6.584  0.00  0.00    +0.000 A 
ATOM     28  N   UNL     1      53.943   5.681   5.849  0.00  0.00    +0.000 NA
ATOM     29  C   UNL     1      54.086   4.595   6.534  0.00  0.00    +0.000 A 
ATOM     30  N   UNL     1      53.901   4.498   7.888  0.00  0.00    +0.000 N 
ATOM     31  C   UNL     1      53.560   5.573   8.676  0.00  0.00    +0.000 A 
ATOM     32  O   UNL     1      53.443   5.458   9.893  0.00  0.00    +0.000 OA
ATOM     33  C   UNL     1      53.373   6.816   7.952  0.00  0.00    +0.000 A 
ATOM     34  H   UNL     1      54.034   3.620   8.367  0.00  0.00    +0.000 HD
ENDBRANCH  21  24
ENDBRANCH  19  20
ENDBRANCH   4  19
TORSDOF 6
ENDMDL
MODEL 5
REMARK VINA RESULT:    -6.838      1.587      2.239
REMARK INTER + INTRA:         -10.070
REMARK INTER:                  -9.034
REMARK INTRA:                  -1.036
REMARK UNBOUND:                -0.834
REMARK  Name = 
REMARK  7 active torsions:
REMARK  status: ('A' for Active; 'I' for Inactive)
REMARK    1  A    between atoms: C_1  and  C_2
REMARK    2  A    between atoms: C_2  and  N_3
REMARK    3  A    between atoms: C_2  and  C_11
REMARK    4  A    between atoms: C_4  and  C_6
REMARK    5  A    between atoms: C_14  and  C_15
REMARK    6  A    between atoms: C_15  and  N_16
REMARK    7  A    between atoms: C_17  and  C_19
REMARK                            x       y       z     vdW  Elec       q    Type
REMARK                         _______ _______ _______ _____ _____    ______ ____
ROOT
ATOM      1  C   UNL     1      45.668   4.897  11.731  0.00  0.00    +0.000 A 
ATOM      2  C   UNL     1      46.212   6.100  11.252  0.00  0.00    +0.000 A 
ATOM      3  C   UNL     1      47.078   6.868  12.039  0.00  0.00    +0.000 A 
ATOM      4  C   UNL     1      47.428   6.450  13.327  0.00  0.00    +0.000 A 
ATOM      5  C   UNL     1      46.858   5.270  13.827  0.00  0.00    +0.000 A 
ATOM      6  C   UNL     1      45.994   4.500  13.037  0.00  0.00    +0.000 A 
ENDROOT
BRANCH   1   8
ATOM      7  C   UNL     1      43.288   4.404  11.006  0.00  0.00    +0.000 C 
ATOM      8  C   UNL     1      44.772   4.071  10.825  0.00  0.00    +0.000 C 
BRANCH   8   9
ATOM      9  N   UNL     1      45.161   4.195   9.429  0.00  0.00    +0.000 N 
ATOM     10  C   UNL     1      45.328   3.069   8.638  0.00  0.00    +0.000 C 
ATOM     11  O   UNL     1      45.210   1.929   9.078  0.00  0.00    +0.000 OA
ATOM     12  H   UNL     1      45.229   5.113   9.011  0.00  0.00    +0.000 HD
BRANCH  10  13
ATOM     13  C   UNL     1      45.666   3.385   7.168  0.00  0.00    +0.000 C 
ATOM     14  C   UNL     1      47.050   3.990   6.994  0.00  0.00    +0.000 C 
ATOM     15  C   UNL     1      47.969   2.784   6.997  0.00  0.00    +0.000 C 
ATOM     16  C   UNL     1      47.114   1.647   6.454  0.00  0.00    +0.000 C 
ATOM     17  N   UNL     1      45.734   2.142   6.368  0.00  0.00    +0.000 NA
ATOM     18  H   UNL     1      45.095   1.439   6.734  0.00  0.00    +0.000 HD
ENDBRANCH  10  13
ENDBRANCH   8   9
ENDBRANCH   1   8
BRANCH   4  19
ATOM     19  C   UNL     1      48.376   7.266  14.169  0.00  0.00    +0.000 C 
BRANCH  19  20
ATOM     20  N   UNL     1      48.145   7.055  15.577  0.00  0.00    +0.000 N 
ATOM     21  C   UNL     1      49.115   6.522  16.384  0.00  0.00    +0.000 C 
ATOM     22  O   UNL     1      50.235   6.245  15.962  0.00  0.00    +0.000 OA
ATOM     23  H   UNL     1      47.181   7.065  15.891  0.00  0.00    +0.000 HD
BRANCH  21  24
ATOM     24  C   UNL     1      48.769   6.350  17.802  0.00  0.00    +0.000 A 
ATOM     25  C   UNL     1      48.948   5.113  18.408  0.00  0.00    +0.000 A 
ATOM     26  S   UNL     1      48.544   5.096  20.065  0.00  0.00    +0.000 S 
ATOM     27  C   UNL     1      48.063   6.727  20.019  0.00  0.00    +0.000 A 
ATOM     28  N   UNL     1      47.576   7.342  21.130  0.00  0.00    +0.000 NA
ATOM     29  C   UNL     1      47.222   8.570  20.949  0.00  0.00    +0.000 A 
ATOM     30  N   UNL     1      47.316   9.240  19.757  0.00  0.00    +0.000 N 
ATOM     31  C   UNL     1      47.828   8.669  18.616  0.00  0.00    +0.000 A 
ATOM     32  O   UNL     1      47.937   9.313  17.576  0.00  0.00    +0.000 OA
ATOM     33  C   UNL     1      48.229   7.283  18.762  0.00  0.00    +0.000 A 
ATOM     34  H   UNL     1      47.026  10.204  19.682  0.00  0.00    +0.000 HD
ENDBRANCH  21  24
ENDBRANCH  19  20
ENDBRANCH   4  19
TORSDOF 6
ENDMDL
MODEL 6
REMARK VINA RESULT:    -6.775      4.997      8.872
REMARK INTER + INTRA:          -9.985
REMARK INTER:                  -8.902
REMARK INTRA:                  -1.083
REMARK UNBOUND:                -0.834
REMARK  Name = 
REMARK  7 active torsions:
REMARK  status: ('A' for Active; 'I' for Inactive)
REMARK    1  A    between atoms: C_1  and  C_2
REMARK    2  A    between atoms: C_2  and  N_3
REMARK    3  A    between atoms: C_2  and  C_11
REMARK    4  A    between atoms: C_4  and  C_6
REMARK    5  A    between atoms: C_14  and  C_15
REMARK    6  A    between atoms: C_15  and  N_16
REMARK    7  A    between atoms: C_17  and  C_19
REMARK                            x       y       z     vdW  Elec       q    Type
REMARK                         _______ _______ _______ _____ _____    ______ ____
ROOT
ATOM      1  C   UNL     1      50.103   9.215  11.391  0.00  0.00    +0.000 A 
ATOM      2  C   UNL     1      49.060  10.146  11.529  0.00  0.00    +0.000 A 
ATOM      3  C   UNL     1      47.816   9.768  12.044  0.00  0.00    +0.000 A 
ATOM      4  C   UNL     1      47.580   8.448  12.441  0.00  0.00    +0.000 A 
ATOM      5  C   UNL     1      48.603   7.504  12.270  0.00  0.00    +0.000 A 
ATOM      6  C   UNL     1      49.851   7.884  11.758  0.00  0.00    +0.000 A 
ENDROOT
BRANCH   1   8
ATOM      7  C   UNL     1      52.269  10.416  11.939  0.00  0.00    +0.000 C 
ATOM      8  C   UNL     1      51.453   9.679  10.873  0.00  0.00    +0.000 C 
BRANCH   8   9
ATOM      9  N   UNL     1      52.218   8.579  10.307  0.00  0.00    +0.000 N 
ATOM     10  C   UNL     1      53.105   8.795   9.266  0.00  0.00    +0.000 C 
ATOM     11  O   UNL     1      53.252   9.895   8.740  0.00  0.00    +0.000 OA
ATOM     12  H   UNL     1      52.162   7.664  10.734  0.00  0.00    +0.000 HD
BRANCH  10  13
ATOM     13  C   UNL     1      53.886   7.535   8.841  0.00  0.00    +0.000 C 
ATOM     14  C   UNL     1      53.014   6.292   8.775  0.00  0.00    +0.000 C 
ATOM     15  C   UNL     1      52.347   6.396   7.416  0.00  0.00    +0.000 C 
ATOM     16  C   UNL     1      53.335   7.176   6.561  0.00  0.00    +0.000 C 
ATOM     17  N   UNL     1      54.388   7.674   7.456  0.00  0.00    +0.000 NA
ATOM     18  H   UNL     1      54.591   8.648   7.238  0.00  0.00    +0.000 HD
ENDBRANCH  10  13
ENDBRANCH   8   9
ENDBRANCH   1   8
BRANCH   4  19
ATOM     19  C   UNL     1      46.245   8.043  13.014  0.00  0.00    +0.000 C 
BRANCH  19  20
ATOM     20  N   UNL     1      45.865   6.721  12.581  0.00  0.00    +0.000 N 
ATOM     21  C   UNL     1      44.801   6.527  11.741  0.00  0.00    +0.000 C 
ATOM     22  O   UNL     1      44.154   7.464  11.280  0.00  0.00    +0.000 OA
ATOM     23  H   UNL     1      46.233   5.940  13.114  0.00  0.00    +0.000 HD
BRANCH  21  24
ATOM     24  C   UNL     1      44.503   5.137  11.367  0.00  0.00    +0.000 A 
ATOM     25  C   UNL     1      43.745   4.344  12.218  0.00  0.00    +0.000 A 
ATOM     26  S   UNL     1      43.452   2.776  11.615  0.00  0.00    +0.000 S 
ATOM     27  C   UNL     1      44.374   3.082  10.220  0.00  0.00    +0.000 A 
ATOM     28  N   UNL     1      44.552   2.119   9.276  0.00  0.00    +0.000 NA
ATOM     29  C   UNL     1      45.297   2.476   8.282  0.00  0.00    +0.000 A 
ATOM     30  N   UNL     1      45.875   3.711   8.146  0.00  0.00    +0.000 N 
ATOM     31  C   UNL     1      45.699   4.724   9.059  0.00  0.00    +0.000 A 
ATOM     32  O   UNL     1      46.198   5.832   8.883  0.00  0.00    +0.000 OA
ATOM     33  C   UNL     1      44.881   4.371  10.203  0.00  0.00    +0.000 A 
ATOM     34  H   UNL     1      46.443   3.929   7.342  0.00  0.00    +0.000 HD
ENDBRANCH  21  24
ENDBRANCH  19  20
ENDBRANCH   4  19
TORSDOF 6
ENDMDL
MODEL 7
REMARK VINA RESULT:    -6.748      3.691      5.262
REMARK INTER + INTRA:          -9.949
REMARK INTER:                  -8.914
REMARK INTRA:                  -1.035
REMARK UNBOUND:                -0.834
REMARK  Name = 
REMARK  7 active torsions:
REMARK  status: ('A' for Active; 'I' for Inactive)
REMARK    1  A    between atoms: C_1  and  C_2
REMARK    2  A    between atoms: C_2  and  N_3
REMARK    3  A    between atoms: C_2  and  C_11
REMARK    4  A    between atoms: C_4  and  C_6
REMARK    5  A    between atoms: C_14  and  C_15
REMARK    6  A    between atoms: C_15  and  N_16
REMARK    7  A    between atoms: C_17  and  C_19
REMARK                            x       y       z     vdW  Elec       q    Type
REMARK                         _______ _______ _______ _____ _____    ______ ____
ROOT
ATOM      1  C   UNL     1      47.863   7.607  13.801  0.00  0.00    +0.000 A 
ATOM      2  C   UNL     1      48.003   8.802  14.526  0.00  0.00    +0.000 A 
ATOM      3  C   UNL     1      48.485   8.800  15.839  0.00  0.00    +0.000 A 
ATOM      4  C   UNL     1      48.847   7.601  16.463  0.00  0.00    +0.000 A 
ATOM      5  C   UNL     1      48.673   6.401  15.759  0.00  0.00    +0.000 A 
ATOM      6  C   UNL     1      48.194   6.404  14.442  0.00  0.00    +0.000 A 
ENDROOT
BRANCH   1   8
ATOM      7  C   UNL     1      48.532   7.823  11.364  0.00  0.00    +0.000 C 
ATOM      8  C   UNL     1      47.382   7.661  12.361  0.00  0.00    +0.000 C 
BRANCH   8   9
ATOM      9  N   UNL     1      46.565   6.506  12.025  0.00  0.00    +0.000 N 
ATOM     10  C   UNL     1      45.294   6.666  11.497  0.00  0.00    +0.000 C 
ATOM     11  O   UNL     1      44.779   7.769  11.337  0.00  0.00    +0.000 OA
ATOM     12  H   UNL     1      46.961   5.579  12.100  0.00  0.00    +0.000 HD
BRANCH  10  13
ATOM     13  C   UNL     1      44.601   5.339  11.128  0.00  0.00    +0.000 C 
ATOM     14  C   UNL     1      44.352   4.446  12.333  0.00  0.00    +0.000 C 
ATOM     15  C   UNL     1      43.075   5.003  12.932  0.00  0.00    +0.000 C 
ATOM     16  C   UNL     1      42.328   5.607  11.752  0.00  0.00    +0.000 C 
ATOM     17  N   UNL     1      43.241   5.589  10.601  0.00  0.00    +0.000 NA
ATOM     18  H   UNL     1      43.198   6.482  10.115  0.00  0.00    +0.000 HD
ENDBRANCH  10  13
ENDBRANCH   8   9
ENDBRANCH   1   8
BRANCH   4  19
ATOM     19  C   UNL     1      49.384   7.599  17.872  0.00  0.00    +0.000 C 
BRANCH  19  20
ATOM     20  N   UNL     1      50.419   6.608  18.039  0.00  0.00    +0.000 N 
ATOM     21  C   UNL     1      50.248   5.535  18.874  0.00  0.00    +0.000 C 
ATOM     22  O   UNL     1      49.196   5.339  19.476  0.00  0.00    +0.000 OA
ATOM     23  H   UNL     1      51.353   6.864  17.735  0.00  0.00    +0.000 HD
BRANCH  21  24
ATOM     24  C   UNL     1      51.370   4.590  18.968  0.00  0.00    +0.000 A 
ATOM     25  C   UNL     1      52.474   4.910  19.747  0.00  0.00    +0.000 A 
ATOM     26  S   UNL     1      53.662   3.688  19.787  0.00  0.00    +0.000 S 
ATOM     27  C   UNL     1      52.770   2.710  18.720  0.00  0.00    +0.000 A 
ATOM     28  N   UNL     1      53.248   1.504  18.314  0.00  0.00    +0.000 NA
ATOM     29  C   UNL     1      52.483   0.878  17.482  0.00  0.00    +0.000 A 
ATOM     30  N   UNL     1      51.280   1.349  17.025  0.00  0.00    +0.000 N 
ATOM     31  C   UNL     1      50.743   2.548  17.431  0.00  0.00    +0.000 A 
ATOM     32  O   UNL     1      49.642   2.919  17.032  0.00  0.00    +0.000 OA
ATOM     33  C   UNL     1      51.571   3.298  18.356  0.00  0.00    +0.000 A 
ATOM     34  H   UNL     1      50.726   0.808  16.378  0.00  0.00    +0.000 HD
ENDBRANCH  21  24
ENDBRANCH  19  20
ENDBRANCH   4  19
TORSDOF 6
ENDMDL
MODEL 8
REMARK VINA RESULT:    -6.639      2.774      3.442
REMARK INTER + INTRA:          -9.801
REMARK INTER:                  -8.486
REMARK INTRA:                  -1.315
REMARK UNBOUND:                -0.834
REMARK  Name = 
REMARK  7 active torsions:
REMARK  status: ('A' for Active; 'I' for Inactive)
REMARK    1  A    between atoms: C_1  and  C_2
REMARK    2  A    between atoms: C_2  and  N_3
REMARK    3  A    between atoms: C_2  and  C_11
REMARK    4  A    between atoms: C_4  and  C_6
REMARK    5  A    between atoms: C_14  and  C_15
REMARK    6  A    between atoms: C_15  and  N_16
REMARK    7  A    between atoms: C_17  and  C_19
REMARK                            x       y       z     vdW  Elec       q    Type
REMARK                         _______ _______ _______ _____ _____    ______ ____
ROOT
ATOM      1  C   UNL     1      46.061   8.113  12.071  0.00  0.00    +0.000 A 
ATOM      2  C   UNL     1      46.766   9.326  12.135  0.00  0.00    +0.000 A 
ATOM      3  C   UNL     1      48.143   9.351  12.380  0.00  0.00    +0.000 A 
ATOM      4  C   UNL     1      48.856   8.161  12.562  0.00  0.00    +0.000 A 
ATOM      5  C   UNL     1      48.152   6.949  12.539  0.00  0.00    +0.000 A 
ATOM      6  C   UNL     1      46.773   6.923  12.291  0.00  0.00    +0.000 A 
ENDROOT
BRANCH   1   8
ATOM      7  C   UNL     1      44.150   9.395  11.005  0.00  0.00    +0.000 C 
ATOM      8  C   UNL     1      44.575   8.130  11.756  0.00  0.00    +0.000 C 
BRANCH   8   9
ATOM      9  N   UNL     1      44.167   6.938  11.030  0.00  0.00    +0.000 N 
ATOM     10  C   UNL     1      43.570   5.876  11.690  0.00  0.00    +0.000 C 
ATOM     11  O   UNL     1      43.403   5.864  12.907  0.00  0.00    +0.000 OA
ATOM     12  H   UNL     1      44.245   6.918  10.022  0.00  0.00    +0.000 HD
BRANCH  10  13
ATOM     13  C   UNL     1      43.133   4.729  10.758  0.00  0.00    +0.000 C 
ATOM     14  C   UNL     1      44.266   4.207   9.889  0.00  0.00    +0.000 C 
ATOM     15  C   UNL     1      45.004   3.247  10.804  0.00  0.00    +0.000 C 
ATOM     16  C   UNL     1      43.940   2.739  11.767  0.00  0.00    +0.000 C 
ATOM     17  N   UNL     1      42.730   3.542  11.544  0.00  0.00    +0.000 NA
ATOM     18  H   UNL     1      42.332   3.816  12.439  0.00  0.00    +0.000 HD
ENDBRANCH  10  13
ENDBRANCH   8   9
ENDBRANCH   1   8
BRANCH   4  19
ATOM     19  C   UNL     1      50.343   8.185  12.807  0.00  0.00    +0.000 C 
BRANCH  19  20
ATOM     20  N   UNL     1      50.695   7.439  13.990  0.00  0.00    +0.000 N 
ATOM     21  C   UNL     1      50.656   8.015  15.233  0.00  0.00    +0.000 C 
ATOM     22  O   UNL     1      50.276   9.171  15.404  0.00  0.00    +0.000 OA
ATOM     23  H   UNL     1      51.213   6.578  13.853  0.00  0.00    +0.000 HD
BRANCH  21  24
ATOM     24  C   UNL     1      51.037   7.161  16.366  0.00  0.00    +0.000 A 
ATOM     25  C   UNL     1      52.218   7.413  17.050  0.00  0.00    +0.000 A 
ATOM     26  S   UNL     1      52.487   6.362  18.365  0.00  0.00    +0.000 S 
ATOM     27  C   UNL     1      51.061   5.496  18.035  0.00  0.00    +0.000 A 
ATOM     28  N   UNL     1      50.704   4.425  18.792  0.00  0.00    +0.000 NA
ATOM     29  C   UNL     1      49.614   3.843  18.414  0.00  0.00    +0.000 A 
ATOM     30  N   UNL     1      48.848   4.240  17.350  0.00  0.00    +0.000 N 
ATOM     31  C   UNL     1      49.153   5.334  16.575  0.00  0.00    +0.000 A 
ATOM     32  O   UNL     1      48.421   5.686  15.654  0.00  0.00    +0.000 OA
ATOM     33  C   UNL     1      50.377   6.016  16.949  0.00  0.00    +0.000 A 
ATOM     34  H   UNL     1      48.002   3.745  17.109  0.00  0.00    +0.000 HD
ENDBRANCH  21  24
ENDBRANCH  19  20
ENDBRANCH   4  19
TORSDOF 6
ENDMDL
MODEL 9
REMARK VINA RESULT:    -6.208      4.489      5.914
REMARK INTER + INTRA:          -9.219
REMARK INTER:                  -7.953
REMARK INTRA:                  -1.266
REMARK UNBOUND:                -0.834
REMARK  Name = 
REMARK  7 active torsions:
REMARK  status: ('A' for Active; 'I' for Inactive)
REMARK    1  A    between atoms: C_1  and  C_2
REMARK    2  A    between atoms: C_2  and  N_3
REMARK    3  A    between atoms: C_2  and  C_11
REMARK    4  A    between atoms: C_4  and  C_6
REMARK    5  A    between atoms: C_14  and  C_15
REMARK    6  A    between atoms: C_15  and  N_16
REMARK    7  A    between atoms: C_17  and  C_19
REMARK                            x       y       z     vdW  Elec       q    Type
REMARK                         _______ _______ _______ _____ _____    ______ ____
ROOT
ATOM      1  C   UNL     1      48.024   6.162  15.395  0.00  0.00    +0.000 A 
ATOM      2  C   UNL     1      48.786   7.255  15.840  0.00  0.00    +0.000 A 
ATOM      3  C   UNL     1      49.417   7.237  17.088  0.00  0.00    +0.000 A 
ATOM      4  C   UNL     1      49.309   6.122  17.926  0.00  0.00    +0.000 A 
ATOM      5  C   UNL     1      48.518   5.043  17.505  0.00  0.00    +0.000 A 
ATOM      6  C   UNL     1      47.889   5.059  16.253  0.00  0.00    +0.000 A 
ENDROOT
BRANCH   1   8
ATOM      7  C   UNL     1      48.435   6.110  12.893  0.00  0.00    +0.000 C 
ATOM      8  C   UNL     1      47.396   6.205  14.013  0.00  0.00    +0.000 C 
BRANCH   8   9
ATOM      9  N   UNL     1      46.374   5.182  13.856  0.00  0.00    +0.000 N 
ATOM     10  C   UNL     1      45.165   5.475  13.246  0.00  0.00    +0.000 C 
ATOM     11  O   UNL     1      44.877   6.604  12.860  0.00  0.00    +0.000 OA
ATOM     12  H   UNL     1      46.581   4.228  14.120  0.00  0.00    +0.000 HD
BRANCH  10  13
ATOM     13  C   UNL     1      44.232   4.257  13.095  0.00  0.00    +0.000 C 
ATOM     14  C   UNL     1      43.094   4.502  12.117  0.00  0.00    +0.000 C 
ATOM     15  C   UNL     1      43.726   4.246  10.762  0.00  0.00    +0.000 C 
ATOM     16  C   UNL     1      44.833   3.239  11.038  0.00  0.00    +0.000 C 
ATOM     17  N   UNL     1      44.957   3.114  12.497  0.00  0.00    +0.000 NA
ATOM     18  H   UNL     1      45.940   3.129  12.760  0.00  0.00    +0.000 HD
ENDBRANCH  10  13
ENDBRANCH   8   9
ENDBRANCH   1   8
BRANCH   4  19
ATOM     19  C   UNL     1      50.005   6.094  19.263  0.00  0.00    +0.000 C 
BRANCH  19  20
ATOM     20  N   UNL     1      50.932   4.992  19.352  0.00  0.00    +0.000 N 
ATOM     21  C   UNL     1      52.216   5.104  18.887  0.00  0.00    +0.000 C 
ATOM     22  O   UNL     1      52.651   6.154  18.421  0.00  0.00    +0.000 OA
ATOM     23  H   UNL     1      50.538   4.073  19.521  0.00  0.00    +0.000 HD
BRANCH  21  24
ATOM     24  C   UNL     1      53.072   3.918  19.028  0.00  0.00    +0.000 A 
ATOM     25  C   UNL     1      54.229   3.992  19.793  0.00  0.00    +0.000 A 
ATOM     26  S   UNL     1      55.080   2.518  19.893  0.00  0.00    +0.000 S 
ATOM     27  C   UNL     1      53.963   1.741  18.873  0.00  0.00    +0.000 A 
ATOM     28  N   UNL     1      54.126   0.437  18.525  0.00  0.00    +0.000 NA
ATOM     29  C   UNL     1      53.222  -0.019  17.723  0.00  0.00    +0.000 A 
ATOM     30  N   UNL     1      52.167   0.712  17.243  0.00  0.00    +0.000 N 
ATOM     31  C   UNL     1      51.945   2.024  17.590  0.00  0.00    +0.000 A 
ATOM     32  O   UNL     1      50.966   2.635  17.173  0.00  0.00    +0.000 OA
ATOM     33  C   UNL     1      52.942   2.589  18.479  0.00  0.00    +0.000 A 
ATOM     34  H   UNL     1      51.489   0.294  16.622  0.00  0.00    +0.000 HD
ENDBRANCH  21  24
ENDBRANCH  19  20
ENDBRANCH   4  19
TORSDOF 6
ENDMDL
