MODEL 1
REMARK VINA RESULT:    -8.129      0.000      0.000
REMARK INTER + INTRA:         -13.134
REMARK INTER:                 -11.930
REMARK INTRA:                  -1.204
REMARK UNBOUND:                -1.204
REMARK  Name = 
REMARK  9 active torsions:
REMARK  status: ('A' for Active; 'I' for Inactive)
REMARK    1  A    between atoms: C_1  and  O_2
REMARK    2  A    between atoms: O_2  and  C_3
REMARK    3  A    between atoms: C_7  and  C_8
REMARK    4  A    between atoms: C_8  and  N_9
REMARK    5  A    between atoms: N_9  and  C_10
REMARK    6  A    between atoms: C_10  and  C_11
REMARK    7  A    between atoms: C_14  and  C_15
REMARK    8  A    between atoms: C_15  and  N_16
REMARK    9  A    between atoms: C_17  and  C_19
REMARK                            x       y       z     vdW  Elec       q    Type
REMARK                         _______ _______ _______ _____ _____    ______ ____
ROOT
ATOM      1  C   UNL     1      44.467   5.423  11.724  0.00  0.00    +0.000 A 
ATOM      2  C   UNL     1      44.893   4.878  12.945  0.00  0.00    +0.000 A 
ATOM      3  C   UNL     1      46.068   5.317  13.560  0.00  0.00    +0.000 A 
ATOM      4  C   UNL     1      46.852   6.311  12.963  0.00  0.00    +0.000 A 
ATOM      5  C   UNL     1      46.453   6.828  11.722  0.00  0.00    +0.000 A 
ATOM      6  C   UNL     1      45.268   6.397  11.113  0.00  0.00    +0.000 A 
ENDROOT
BRANCH   1   7
ATOM      7  C   UNL     1      43.178   4.952  11.079  0.00  0.00    +0.000 C 
BRANCH   7   8
ATOM      8  N   UNL     1      43.440   4.344   9.778  0.00  0.00    +0.000 NA
ATOM      9  H   UNL     1      42.557   4.167   9.302  0.00  0.00    +0.000 HD
BRANCH   8  10
ATOM     10  C   UNL     1      44.159   3.077   9.875  0.00  0.00    +0.000 C 
BRANCH  10  15
ATOM     11  C   UNL     1      46.808   1.858   7.400  0.00  0.00    +0.000 A 
ATOM     12  C   UNL     1      47.286   3.067   6.896  0.00  0.00    +0.000 A 
ATOM     13  C   UNL     1      46.798   4.276   7.397  0.00  0.00    +0.000 A 
ATOM     14  C   UNL     1      45.819   4.280   8.388  0.00  0.00    +0.000 A 
ATOM     15  C   UNL     1      45.305   3.073   8.888  0.00  0.00    +0.000 A 
ATOM     16  C   UNL     1      45.831   1.868   8.401  0.00  0.00    +0.000 A 
BRANCH  11  18
ATOM     17  C   UNL     1      46.586  -0.493   7.649  0.00  0.00    +0.000 C 
ATOM     18  O   UNL     1      47.196   0.610   6.991  0.00  0.00    +0.000 OA
ENDBRANCH  11  18
ENDBRANCH  10  15
ENDBRANCH   8  10
ENDBRANCH   7   8
ENDBRANCH   1   7
BRANCH   4  19
ATOM     19  C   UNL     1      48.117   6.794  13.624  0.00  0.00    +0.000 C 
BRANCH  19  20
ATOM     20  N   UNL     1      47.954   6.905  15.050  0.00  0.00    +0.000 N 
ATOM     21  C   UNL     1      48.992   6.657  15.910  0.00  0.00    +0.000 C 
ATOM     22  O   UNL     1      50.114   6.355  15.514  0.00  0.00    +0.000 OA
ATOM     23  H   UNL     1      47.002   6.920  15.404  0.00  0.00    +0.000 HD
BRANCH  21  24
ATOM     24  C   UNL     1      48.707   6.838  17.338  0.00  0.00    +0.000 A 
ATOM     25  C   UNL     1      48.309   8.080  17.814  0.00  0.00    +0.000 A 
ATOM     26  S   UNL     1      47.948   8.088  19.480  0.00  0.00    +0.000 S 
ATOM     27  C   UNL     1      48.373   6.447  19.635  0.00  0.00    +0.000 A 
ATOM     28  N   UNL     1      48.311   5.822  20.844  0.00  0.00    +0.000 NA
ATOM     29  C   UNL     1      48.689   4.588  20.823  0.00  0.00    +0.000 A 
ATOM     30  N   UNL     1      49.121   3.925  19.705  0.00  0.00    +0.000 N 
ATOM     31  C   UNL     1      49.166   4.503  18.461  0.00  0.00    +0.000 A 
ATOM     32  O   UNL     1      49.508   3.864  17.471  0.00  0.00    +0.000 OA
ATOM     33  C   UNL     1      48.764   5.896  18.430  0.00  0.00    +0.000 A 
ATOM     34  H   UNL     1      49.397   2.953  19.752  0.00  0.00    +0.000 HD
ENDBRANCH  21  24
ENDBRANCH  19  20
ENDBRANCH   4  19
TORSDOF 8
ENDMDL
MODEL 2
REMARK VINA RESULT:    -7.873      2.027      2.333
REMARK INTER + INTRA:         -12.759
REMARK INTER:                 -11.235
REMARK INTRA:                  -1.524
REMARK UNBOUND:                -1.204
REMARK  Name = 
REMARK  9 active torsions:
REMARK  status: ('A' for Active; 'I' for Inactive)
REMARK    1  A    between atoms: C_1  and  O_2
REMARK    2  A    between atoms: O_2  and  C_3
REMARK    3  A    between atoms: C_7  and  C_8
REMARK    4  A    between atoms: C_8  and  N_9
REMARK    5  A    between atoms: N_9  and  C_10
REMARK    6  A    between atoms: C_10  and  C_11
REMARK    7  A    between atoms: C_14  and  C_15
REMARK    8  A    between atoms: C_15  and  N_16
REMARK    9  A    between atoms: C_17  and  C_19
REMARK                            x       y       z     vdW  Elec       q    Type
REMARK                         _______ _______ _______ _____ _____    ______ ____
ROOT
ATOM      1  C   UNL     1      44.519   5.586  12.776  0.00  0.00    +0.000 A 
ATOM      2  C   UNL     1      45.666   4.891  13.192  0.00  0.00    +0.000 A 
ATOM      3  C   UNL     1      46.938   5.451  13.053  0.00  0.00    +0.000 A 
ATOM      4  C   UNL     1      47.096   6.721  12.486  0.00  0.00    +0.000 A 
ATOM      5  C   UNL     1      45.957   7.401  12.031  0.00  0.00    +0.000 A 
ATOM      6  C   UNL     1      44.681   6.845  12.183  0.00  0.00    +0.000 A 
ENDROOT
BRANCH   1   7
ATOM      7  C   UNL     1      43.142   4.974  12.954  0.00  0.00    +0.000 C 
BRANCH   7   8
ATOM      8  N   UNL     1      42.658   4.412  11.696  0.00  0.00    +0.000 NA
ATOM      9  H   UNL     1      41.642   4.345  11.723  0.00  0.00    +0.000 HD
BRANCH   8  10
ATOM     10  C   UNL     1      43.189   3.079  11.426  0.00  0.00    +0.000 C 
BRANCH  10  15
ATOM     11  C   UNL     1      45.540   2.015   8.604  0.00  0.00    +0.000 A 
ATOM     12  C   UNL     1      45.672   3.208   7.895  0.00  0.00    +0.000 A 
ATOM     13  C   UNL     1      45.054   4.371   8.360  0.00  0.00    +0.000 A 
ATOM     14  C   UNL     1      44.286   4.339   9.523  0.00  0.00    +0.000 A 
ATOM     15  C   UNL     1      44.118   3.141  10.234  0.00  0.00    +0.000 A 
ATOM     16  C   UNL     1      44.775   1.990   9.775  0.00  0.00    +0.000 A 
BRANCH  11  18
ATOM     17  C   UNL     1      47.150   0.845   7.308  0.00  0.00    +0.000 C 
ATOM     18  O   UNL     1      46.087   0.810   8.252  0.00  0.00    +0.000 OA
ENDBRANCH  11  18
ENDBRANCH  10  15
ENDBRANCH   8  10
ENDBRANCH   7   8
ENDBRANCH   1   7
BRANCH   4  19
ATOM     19  C   UNL     1      48.464   7.334  12.339  0.00  0.00    +0.000 C 
BRANCH  19  20
ATOM     20  N   UNL     1      49.350   6.894  13.385  0.00  0.00    +0.000 N 
ATOM     21  C   UNL     1      49.489   7.604  14.550  0.00  0.00    +0.000 C 
ATOM     22  O   UNL     1      48.853   8.630  14.772  0.00  0.00    +0.000 OA
ATOM     23  H   UNL     1      50.046   6.198  13.136  0.00  0.00    +0.000 HD
BRANCH  21  24
ATOM     24  C   UNL     1      50.397   7.033  15.551  0.00  0.00    +0.000 A 
ATOM     25  C   UNL     1      51.718   7.458  15.612  0.00  0.00    +0.000 A 
ATOM     26  S   UNL     1      52.606   6.743  16.880  0.00  0.00    +0.000 S 
ATOM     27  C   UNL     1      51.273   5.795  17.351  0.00  0.00    +0.000 A 
ATOM     28  N   UNL     1      51.373   4.921  18.392  0.00  0.00    +0.000 NA
ATOM     29  C   UNL     1      50.297   4.245  18.621  0.00  0.00    +0.000 A 
ATOM     30  N   UNL     1      49.134   4.367  17.908  0.00  0.00    +0.000 N 
ATOM     31  C   UNL     1      48.977   5.258  16.877  0.00  0.00    +0.000 A 
ATOM     32  O   UNL     1      47.905   5.378  16.293  0.00  0.00    +0.000 OA
ATOM     33  C   UNL     1      50.162   6.034  16.567  0.00  0.00    +0.000 A 
ATOM     34  H   UNL     1      48.320   3.813  18.142  0.00  0.00    +0.000 HD
ENDBRANCH  21  24
ENDBRANCH  19  20
ENDBRANCH   4  19
TORSDOF 8
ENDMDL
MODEL 3
REMARK VINA RESULT:    -7.577      1.476      2.011
REMARK INTER + INTRA:         -12.325
REMARK INTER:                 -11.216
REMARK INTRA:                  -1.109
REMARK UNBOUND:                -1.204
REMARK  Name = 
REMARK  9 active torsions:
REMARK  status: ('A' for Active; 'I' for Inactive)
REMARK    1  A    between atoms: C_1  and  O_2
REMARK    2  A    between atoms: O_2  and  C_3
REMARK    3  A    between atoms: C_7  and  C_8
REMARK    4  A    between atoms: C_8  and  N_9
REMARK    5  A    between atoms: N_9  and  C_10
REMARK    6  A    between atoms: C_10  and  C_11
REMARK    7  A    between atoms: C_14  and  C_15
REMARK    8  A    between atoms: C_15  and  N_16
REMARK    9  A    between atoms: C_17  and  C_19
REMARK                            x       y       z     vdW  Elec       q    Type
REMARK                         _______ _______ _______ _____ _____    ______ ____
ROOT
ATOM      1  C   UNL     1      44.412   5.286  12.674  0.00  0.00    +0.000 A 
ATOM      2  C   UNL     1      44.661   6.657  12.507  0.00  0.00    +0.000 A 
ATOM      3  C   UNL     1      45.896   7.213  12.854  0.00  0.00    +0.000 A 
ATOM      4  C   UNL     1      46.910   6.410  13.385  0.00  0.00    +0.000 A 
ATOM      5  C   UNL     1      46.651   5.048  13.594  0.00  0.00    +0.000 A 
ATOM      6  C   UNL     1      45.419   4.489  13.233  0.00  0.00    +0.000 A 
ENDROOT
BRANCH   1   7
ATOM      7  C   UNL     1      43.075   4.693  12.273  0.00  0.00    +0.000 C 
BRANCH   7   8
ATOM      8  N   UNL     1      43.222   3.814  11.117  0.00  0.00    +0.000 NA
ATOM      9  H   UNL     1      43.894   3.080  11.333  0.00  0.00    +0.000 HD
BRANCH   8  10
ATOM     10  C   UNL     1      43.691   4.515   9.925  0.00  0.00    +0.000 C 
BRANCH  10  15
ATOM     11  C   UNL     1      46.065   3.194   7.232  0.00  0.00    +0.000 A 
ATOM     12  C   UNL     1      46.235   1.873   7.644  0.00  0.00    +0.000 A 
ATOM     13  C   UNL     1      45.538   1.390   8.753  0.00  0.00    +0.000 A 
ATOM     14  C   UNL     1      44.684   2.231   9.465  0.00  0.00    +0.000 A 
ATOM     15  C   UNL     1      44.522   3.571   9.083  0.00  0.00    +0.000 A 
ATOM     16  C   UNL     1      45.201   4.031   7.946  0.00  0.00    +0.000 A 
BRANCH  11  18
ATOM     17  C   UNL     1      47.406   2.930   5.291  0.00  0.00    +0.000 C 
ATOM     18  O   UNL     1      46.693   3.789   6.171  0.00  0.00    +0.000 OA
ENDBRANCH  11  18
ENDBRANCH  10  15
ENDBRANCH   8  10
ENDBRANCH   7   8
ENDBRANCH   1   7
BRANCH   4  19
ATOM     19  C   UNL     1      48.246   7.001  13.755  0.00  0.00    +0.000 C 
BRANCH  19  20
ATOM     20  N   UNL     1      48.259   7.449  15.124  0.00  0.00    +0.000 N 
ATOM     21  C   UNL     1      48.967   6.778  16.088  0.00  0.00    +0.000 C 
ATOM     22  O   UNL     1      49.642   5.785  15.835  0.00  0.00    +0.000 OA
ATOM     23  H   UNL     1      47.539   8.110  15.398  0.00  0.00    +0.000 HD
BRANCH  21  24
ATOM     24  C   UNL     1      48.927   7.354  17.437  0.00  0.00    +0.000 A 
ATOM     25  C   UNL     1      49.605   8.537  17.707  0.00  0.00    +0.000 A 
ATOM     26  S   UNL     1      49.388   9.097  19.302  0.00  0.00    +0.000 S 
ATOM     27  C   UNL     1      48.433   7.746  19.705  0.00  0.00    +0.000 A 
ATOM     28  N   UNL     1      47.932   7.597  20.964  0.00  0.00    +0.000 NA
ATOM     29  C   UNL     1      47.253   6.514  21.138  0.00  0.00    +0.000 A 
ATOM     30  N   UNL     1      47.028   5.571  20.171  0.00  0.00    +0.000 N 
ATOM     31  C   UNL     1      47.482   5.697  18.882  0.00  0.00    +0.000 A 
ATOM     32  O   UNL     1      47.218   4.858  18.026  0.00  0.00    +0.000 OA
ATOM     33  C   UNL     1      48.266   6.891  18.634  0.00  0.00    +0.000 A 
ATOM     34  H   UNL     1      46.479   4.745  20.368  0.00  0.00    +0.000 HD
ENDBRANCH  21  24
ENDBRANCH  19  20
ENDBRANCH   4  19
TORSDOF 8
ENDMDL
MODEL 4
REMARK VINA RESULT:    -7.414      3.127      8.850
REMARK INTER + INTRA:         -12.085
REMARK INTER:                 -10.365
REMARK INTRA:                  -1.721
REMARK UNBOUND:                -1.204
REMARK  Name = 
REMARK  9 active torsions:
REMARK  status: ('A' for Active; 'I' for Inactive)
REMARK    1  A    between atoms: C_1  and  O_2
REMARK    2  A    between atoms: O_2  and  C_3
REMARK    3  A    between atoms: C_7  and  C_8
REMARK    4  A    between atoms: C_8  and  N_9
REMARK    5  A    between atoms: N_9  and  C_10
REMARK    6  A    between atoms: C_10  and  C_11
REMARK    7  A    between atoms: C_14  and  C_15
REMARK    8  A    between atoms: C_15  and  N_16
REMARK    9  A    between atoms: C_17  and  C_19
REMARK                            x       y       z     vdW  Elec       q    Type
REMARK                         _______ _______ _______ _____ _____    ______ ____
ROOT
ATOM      1  C   UNL     1      49.767   8.082  15.425  0.00  0.00    +0.000 A 
ATOM      2  C   UNL     1      50.098   7.394  14.246  0.00  0.00    +0.000 A 
ATOM      3  C   UNL     1      49.232   7.383  13.150  0.00  0.00    +0.000 A 
ATOM      4  C   UNL     1      48.006   8.056  13.209  0.00  0.00    +0.000 A 
ATOM      5  C   UNL     1      47.652   8.708  14.399  0.00  0.00    +0.000 A 
ATOM      6  C   UNL     1      48.527   8.730  15.491  0.00  0.00    +0.000 A 
ENDROOT
BRANCH   1   7
ATOM      7  C   UNL     1      50.728   8.102  16.598  0.00  0.00    +0.000 C 
BRANCH   7   8
ATOM      8  N   UNL     1      51.172   6.752  16.929  0.00  0.00    +0.000 NA
ATOM      9  H   UNL     1      51.031   6.142  16.126  0.00  0.00    +0.000 HD
BRANCH   8  10
ATOM     10  C   UNL     1      50.452   6.176  18.062  0.00  0.00    +0.000 C 
BRANCH  10  15
ATOM     11  C   UNL     1      47.967   3.744  16.469  0.00  0.00    +0.000 A 
ATOM     12  C   UNL     1      48.633   2.530  16.630  0.00  0.00    +0.000 A 
ATOM     13  C   UNL     1      49.854   2.486  17.306  0.00  0.00    +0.000 A 
ATOM     14  C   UNL     1      50.422   3.657  17.805  0.00  0.00    +0.000 A 
ATOM     15  C   UNL     1      49.780   4.892  17.628  0.00  0.00    +0.000 A 
ATOM     16  C   UNL     1      48.537   4.915  16.979  0.00  0.00    +0.000 A 
BRANCH  11  18
ATOM     17  C   UNL     1      46.840   4.421  14.492  0.00  0.00    +0.000 C 
ATOM     18  O   UNL     1      46.774   3.923  15.822  0.00  0.00    +0.000 OA
ENDBRANCH  11  18
ENDBRANCH  10  15
ENDBRANCH   8  10
ENDBRANCH   7   8
ENDBRANCH   1   7
BRANCH   4  19
ATOM     19  C   UNL     1      47.069   8.053  12.028  0.00  0.00    +0.000 C 
BRANCH  19  20
ATOM     20  N   UNL     1      46.471   6.758  11.837  0.00  0.00    +0.000 N 
ATOM     21  C   UNL     1      45.136   6.621  11.555  0.00  0.00    +0.000 C 
ATOM     22  O   UNL     1      44.391   7.587  11.428  0.00  0.00    +0.000 OA
ATOM     23  H   UNL     1      47.000   5.955  12.163  0.00  0.00    +0.000 HD
BRANCH  21  24
ATOM     24  C   UNL     1      44.656   5.250  11.349  0.00  0.00    +0.000 A 
ATOM     25  C   UNL     1      43.895   4.627  12.329  0.00  0.00    +0.000 A 
ATOM     26  S   UNL     1      43.363   3.067  11.890  0.00  0.00    +0.000 S 
ATOM     27  C   UNL     1      44.185   3.147  10.402  0.00  0.00    +0.000 A 
ATOM     28  N   UNL     1      44.155   2.098   9.532  0.00  0.00    +0.000 NA
ATOM     29  C   UNL     1      44.845   2.282   8.457  0.00  0.00    +0.000 A 
ATOM     30  N   UNL     1      45.557   3.416   8.173  0.00  0.00    +0.000 N 
ATOM     31  C   UNL     1      45.586   4.510   9.002  0.00  0.00    +0.000 A 
ATOM     32  O   UNL     1      46.192   5.531   8.691  0.00  0.00    +0.000 OA
ATOM     33  C   UNL     1      44.838   4.352  10.233  0.00  0.00    +0.000 A 
ATOM     34  H   UNL     1      46.073   3.503   7.307  0.00  0.00    +0.000 HD
ENDBRANCH  21  24
ENDBRANCH  19  20
ENDBRANCH   4  19
TORSDOF 8
ENDMDL
MODEL 5
REMARK VINA RESULT:    -6.806      3.744      8.172
REMARK INTER + INTRA:         -11.193
REMARK INTER:                  -9.017
REMARK INTRA:                  -2.175
REMARK UNBOUND:                -1.204
REMARK  Name = 
REMARK  9 active torsions:
REMARK  status: ('A' for Active; 'I' for Inactive)
REMARK    1  A    between atoms: C_1  and  O_2
REMARK    2  A    between atoms: O_2  and  C_3
REMARK    3  A    between atoms: C_7  and  C_8
REMARK    4  A    between atoms: C_8  and  N_9
REMARK    5  A    between atoms: N_9  and  C_10
REMARK    6  A    between atoms: C_10  and  C_11
REMARK    7  A    between atoms: C_14  and  C_15
REMARK    8  A    between atoms: C_15  and  N_16
REMARK    9  A    between atoms: C_17  and  C_19
REMARK                            x       y       z     vdW  Elec       q    Type
REMARK                         _______ _______ _______ _____ _____    ______ ____
ROOT
ATOM      1  C   UNL     1      50.222   8.152  16.703  0.00  0.00    +0.000 A 
ATOM      2  C   UNL     1      49.297   9.187  16.492  0.00  0.00    +0.000 A 
ATOM      3  C   UNL     1      48.750   9.419  15.227  0.00  0.00    +0.000 A 
ATOM      4  C   UNL     1      49.122   8.623  14.138  0.00  0.00    +0.000 A 
ATOM      5  C   UNL     1      50.077   7.616  14.335  0.00  0.00    +0.000 A 
ATOM      6  C   UNL     1      50.614   7.375  15.605  0.00  0.00    +0.000 A 
ENDROOT
BRANCH   1   7
ATOM      7  C   UNL     1      50.790   7.899  18.086  0.00  0.00    +0.000 C 
BRANCH   7   8
ATOM      8  N   UNL     1      50.926   6.467  18.338  0.00  0.00    +0.000 NA
ATOM      9  H   UNL     1      51.057   5.978  17.454  0.00  0.00    +0.000 HD
BRANCH   8  10
ATOM     10  C   UNL     1      49.758   5.892  19.000  0.00  0.00    +0.000 C 
BRANCH  10  15
ATOM     11  C   UNL     1      49.315   2.752  16.861  0.00  0.00    +0.000 A 
ATOM     12  C   UNL     1      47.943   2.784  16.612  0.00  0.00    +0.000 A 
ATOM     13  C   UNL     1      47.171   3.849  17.081  0.00  0.00    +0.000 A 
ATOM     14  C   UNL     1      47.764   4.874  17.817  0.00  0.00    +0.000 A 
ATOM     15  C   UNL     1      49.137   4.845  18.101  0.00  0.00    +0.000 A 
ATOM     16  C   UNL     1      49.906   3.788  17.593  0.00  0.00    +0.000 A 
BRANCH  11  18
ATOM     17  C   UNL     1      51.251   1.468  17.348  0.00  0.00    +0.000 C 
ATOM     18  O   UNL     1      50.177   1.766  16.465  0.00  0.00    +0.000 OA
ENDBRANCH  11  18
ENDBRANCH  10  15
ENDBRANCH   8  10
ENDBRANCH   7   8
ENDBRANCH   1   7
BRANCH   4  19
ATOM     19  C   UNL     1      48.532   8.864  12.772  0.00  0.00    +0.000 C 
BRANCH  19  20
ATOM     20  N   UNL     1      47.594   7.831  12.418  0.00  0.00    +0.000 N 
ATOM     21  C   UNL     1      46.263   7.937  12.729  0.00  0.00    +0.000 C 
ATOM     22  O   UNL     1      45.799   8.921  13.298  0.00  0.00    +0.000 OA
ATOM     23  H   UNL     1      47.979   6.926  12.166  0.00  0.00    +0.000 HD
BRANCH  21  24
ATOM     24  C   UNL     1      45.404   6.834  12.283  0.00  0.00    +0.000 A 
ATOM     25  C   UNL     1      44.263   7.100  11.537  0.00  0.00    +0.000 A 
ATOM     26  S   UNL     1      43.429   5.697  11.044  0.00  0.00    +0.000 S 
ATOM     27  C   UNL     1      44.529   4.689  11.865  0.00  0.00    +0.000 A 
ATOM     28  N   UNL     1      44.369   3.336  11.861  0.00  0.00    +0.000 NA
ATOM     29  C   UNL     1      45.257   2.697  12.546  0.00  0.00    +0.000 A 
ATOM     30  N   UNL     1      46.286   3.286  13.230  0.00  0.00    +0.000 N 
ATOM     31  C   UNL     1      46.506   4.641  13.232  0.00  0.00    +0.000 A 
ATOM     32  O   UNL     1      47.470   5.131  13.812  0.00  0.00    +0.000 OA
ATOM     33  C   UNL     1      45.529   5.410  12.487  0.00  0.00    +0.000 A 
ATOM     34  H   UNL     1      46.956   2.728  13.744  0.00  0.00    +0.000 HD
ENDBRANCH  21  24
ENDBRANCH  19  20
ENDBRANCH   4  19
TORSDOF 8
ENDMDL
MODEL 6
REMARK VINA RESULT:    -6.668      3.876      8.424
REMARK INTER + INTRA:         -10.991
REMARK INTER:                  -8.905
REMARK INTRA:                  -2.086
REMARK UNBOUND:                -1.204
REMARK  Name = 
REMARK  9 active torsions:
REMARK  status: ('A' for Active; 'I' for Inactive)
REMARK    1  A    between atoms: C_1  and  O_2
REMARK    2  A    between atoms: O_2  and  C_3
REMARK    3  A    between atoms: C_7  and  C_8
REMARK    4  A    between atoms: C_8  and  N_9
REMARK    5  A    between atoms: N_9  and  C_10
REMARK    6  A    between atoms: C_10  and  C_11
REMARK    7  A    between atoms: C_14  and  C_15
REMARK    8  A    between atoms: C_15  and  N_16
REMARK    9  A    between atoms: C_17  and  C_19
REMARK                            x       y       z     vdW  Elec       q    Type
REMARK                         _______ _______ _______ _____ _____    ______ ____
ROOT
ATOM      1  C   UNL     1      51.214   7.130  17.385  0.00  0.00    +0.000 A 
ATOM      2  C   UNL     1      50.587   8.249  17.956  0.00  0.00    +0.000 A 
ATOM      3  C   UNL     1      49.608   8.960  17.258  0.00  0.00    +0.000 A 
ATOM      4  C   UNL     1      49.236   8.573  15.966  0.00  0.00    +0.000 A 
ATOM      5  C   UNL     1      49.890   7.482  15.375  0.00  0.00    +0.000 A 
ATOM      6  C   UNL     1      50.861   6.761  16.080  0.00  0.00    +0.000 A 
ENDROOT
BRANCH   1   7
ATOM      7  C   UNL     1      52.260   6.354  18.163  0.00  0.00    +0.000 C 
BRANCH   7   8
ATOM      8  N   UNL     1      52.269   4.950  17.763  0.00  0.00    +0.000 NA
ATOM      9  H   UNL     1      51.819   4.853  16.855  0.00  0.00    +0.000 HD
BRANCH   8  10
ATOM     10  C   UNL     1      51.568   4.084  18.707  0.00  0.00    +0.000 C 
BRANCH  10  15
ATOM     11  C   UNL     1      47.878   3.984  17.705  0.00  0.00    +0.000 A 
ATOM     12  C   UNL     1      47.872   2.929  16.793  0.00  0.00    +0.000 A 
ATOM     13  C   UNL     1      49.043   2.210  16.548  0.00  0.00    +0.000 A 
ATOM     14  C   UNL     1      50.228   2.556  17.196  0.00  0.00    +0.000 A 
ATOM     15  C   UNL     1      50.260   3.632  18.095  0.00  0.00    +0.000 A 
ATOM     16  C   UNL     1      49.067   4.322  18.359  0.00  0.00    +0.000 A 
BRANCH  11  18
ATOM     17  C   UNL     1      47.013   5.749  19.036  0.00  0.00    +0.000 C 
ATOM     18  O   UNL     1      46.804   4.769  18.028  0.00  0.00    +0.000 OA
ENDBRANCH  11  18
ENDBRANCH  10  15
ENDBRANCH   8  10
ENDBRANCH   7   8
ENDBRANCH   1   7
BRANCH   4  19
ATOM     19  C   UNL     1      48.176   9.333  15.210  0.00  0.00    +0.000 C 
BRANCH  19  20
ATOM     20  N   UNL     1      47.230   8.439  14.595  0.00  0.00    +0.000 N 
ATOM     21  C   UNL     1      47.142   8.317  13.232  0.00  0.00    +0.000 C 
ATOM     22  O   UNL     1      47.876   8.939  12.470  0.00  0.00    +0.000 OA
ATOM     23  H   UNL     1      46.471   8.101  15.179  0.00  0.00    +0.000 HD
BRANCH  21  24
ATOM     24  C   UNL     1      46.161   7.348  12.731  0.00  0.00    +0.000 A 
ATOM     25  C   UNL     1      45.076   7.784  11.982  0.00  0.00    +0.000 A 
ATOM     26  S   UNL     1      44.082   6.517  11.422  0.00  0.00    +0.000 S 
ATOM     27  C   UNL     1      45.032   5.348  12.215  0.00  0.00    +0.000 A 
ATOM     28  N   UNL     1      44.705   4.026  12.155  0.00  0.00    +0.000 NA
ATOM     29  C   UNL     1      45.493   3.255  12.825  0.00  0.00    +0.000 A 
ATOM     30  N   UNL     1      46.576   3.684  13.545  0.00  0.00    +0.000 N 
ATOM     31  C   UNL     1      46.963   4.999  13.605  0.00  0.00    +0.000 A 
ATOM     32  O   UNL     1      47.970   5.342  14.217  0.00  0.00    +0.000 OA
ATOM     33  C   UNL     1      46.103   5.913  12.880  0.00  0.00    +0.000 A 
ATOM     34  H   UNL     1      47.162   3.027  14.045  0.00  0.00    +0.000 HD
ENDBRANCH  21  24
ENDBRANCH  19  20
ENDBRANCH   4  19
TORSDOF 8
ENDMDL
MODEL 7
REMARK VINA RESULT:    -6.433      3.002      4.572
REMARK INTER + INTRA:         -10.646
REMARK INTER:                  -9.687
REMARK INTRA:                  -0.959
REMARK UNBOUND:                -1.204
REMARK  Name = 
REMARK  9 active torsions:
REMARK  status: ('A' for Active; 'I' for Inactive)
REMARK    1  A    between atoms: C_1  and  O_2
REMARK    2  A    between atoms: O_2  and  C_3
REMARK    3  A    between atoms: C_7  and  C_8
REMARK    4  A    between atoms: C_8  and  N_9
REMARK    5  A    between atoms: N_9  and  C_10
REMARK    6  A    between atoms: C_10  and  C_11
REMARK    7  A    between atoms: C_14  and  C_15
REMARK    8  A    between atoms: C_15  and  N_16
REMARK    9  A    between atoms: C_17  and  C_19
REMARK                            x       y       z     vdW  Elec       q    Type
REMARK                         _______ _______ _______ _____ _____    ______ ____
ROOT
ATOM      1  C   UNL     1      47.986   6.598  14.047  0.00  0.00    +0.000 A 
ATOM      2  C   UNL     1      48.624   7.647  14.728  0.00  0.00    +0.000 A 
ATOM      3  C   UNL     1      48.958   7.530  16.080  0.00  0.00    +0.000 A 
ATOM      4  C   UNL     1      48.654   6.362  16.787  0.00  0.00    +0.000 A 
ATOM      5  C   UNL     1      47.979   5.329  16.122  0.00  0.00    +0.000 A 
ATOM      6  C   UNL     1      47.657   5.440  14.764  0.00  0.00    +0.000 A 
ENDROOT
BRANCH   1   7
ATOM      7  C   UNL     1      47.649   6.730  12.574  0.00  0.00    +0.000 C 
BRANCH   7   8
ATOM      8  N   UNL     1      46.673   5.722  12.172  0.00  0.00    +0.000 NA
ATOM      9  H   UNL     1      47.160   4.904  11.809  0.00  0.00    +0.000 HD
BRANCH   8  10
ATOM     10  C   UNL     1      45.759   6.195  11.135  0.00  0.00    +0.000 C 
BRANCH  10  15
ATOM     11  C   UNL     1      45.354   3.740   8.230  0.00  0.00    +0.000 A 
ATOM     12  C   UNL     1      44.600   2.732   8.830  0.00  0.00    +0.000 A 
ATOM     13  C   UNL     1      44.170   2.870  10.151  0.00  0.00    +0.000 A 
ATOM     14  C   UNL     1      44.509   4.007  10.883  0.00  0.00    +0.000 A 
ATOM     15  C   UNL     1      45.290   5.019  10.306  0.00  0.00    +0.000 A 
ATOM     16  C   UNL     1      45.684   4.883   8.967  0.00  0.00    +0.000 A 
BRANCH  11  18
ATOM     17  C   UNL     1      47.057   3.016   6.743  0.00  0.00    +0.000 C 
ATOM     18  O   UNL     1      45.841   3.723   6.951  0.00  0.00    +0.000 OA
ENDBRANCH  11  18
ENDBRANCH  10  15
ENDBRANCH   8  10
ENDBRANCH   7   8
ENDBRANCH   1   7
BRANCH   4  19
ATOM     19  C   UNL     1      49.017   6.227  18.244  0.00  0.00    +0.000 C 
BRANCH  19  20
ATOM     20  N   UNL     1      50.025   5.218  18.441  0.00  0.00    +0.000 N 
ATOM     21  C   UNL     1      51.358   5.504  18.302  0.00  0.00    +0.000 C 
ATOM     22  O   UNL     1      51.763   6.630  18.029  0.00  0.00    +0.000 OA
ATOM     23  H   UNL     1      49.715   4.252  18.434  0.00  0.00    +0.000 HD
BRANCH  21  24
ATOM     24  C   UNL     1      52.287   4.397  18.564  0.00  0.00    +0.000 A 
ATOM     25  C   UNL     1      53.455   4.627  19.278  0.00  0.00    +0.000 A 
ATOM     26  S   UNL     1      54.375   3.218  19.550  0.00  0.00    +0.000 S 
ATOM     27  C   UNL     1      53.275   2.264  18.668  0.00  0.00    +0.000 A 
ATOM     28  N   UNL     1      53.492   0.930  18.495  0.00  0.00    +0.000 NA
ATOM     29  C   UNL     1      52.596   0.335  17.782  0.00  0.00    +0.000 A 
ATOM     30  N   UNL     1      51.505   0.953  17.229  0.00  0.00    +0.000 N 
ATOM     31  C   UNL     1      51.228   2.285  17.407  0.00  0.00    +0.000 A 
ATOM     32  O   UNL     1      50.213   2.794  16.942  0.00  0.00    +0.000 OA
ATOM     33  C   UNL     1      52.212   3.005  18.191  0.00  0.00    +0.000 A 
ATOM     34  H   UNL     1      50.832   0.429  16.685  0.00  0.00    +0.000 HD
ENDBRANCH  21  24
ENDBRANCH  19  20
ENDBRANCH   4  19
TORSDOF 8
ENDMDL
MODEL 8
REMARK VINA RESULT:    -6.098      3.651      5.004
REMARK INTER + INTRA:         -10.154
REMARK INTER:                  -8.921
REMARK INTRA:                  -1.233
REMARK UNBOUND:                -1.204
REMARK  Name = 
REMARK  9 active torsions:
REMARK  status: ('A' for Active; 'I' for Inactive)
REMARK    1  A    between atoms: C_1  and  O_2
REMARK    2  A    between atoms: O_2  and  C_3
REMARK    3  A    between atoms: C_7  and  C_8
REMARK    4  A    between atoms: C_8  and  N_9
REMARK    5  A    between atoms: N_9  and  C_10
REMARK    6  A    between atoms: C_10  and  C_11
REMARK    7  A    between atoms: C_14  and  C_15
REMARK    8  A    between atoms: C_15  and  N_16
REMARK    9  A    between atoms: C_17  and  C_19
REMARK                            x       y       z     vdW  Elec       q    Type
REMARK                         _______ _______ _______ _____ _____    ______ ____
ROOT
ATOM      1  C   UNL     1      47.956   7.917  13.579  0.00  0.00    +0.000 A 
ATOM      2  C   UNL     1      47.660   8.851  14.585  0.00  0.00    +0.000 A 
ATOM      3  C   UNL     1      48.392   8.886  15.775  0.00  0.00    +0.000 A 
ATOM      4  C   UNL     1      49.436   7.978  15.991  0.00  0.00    +0.000 A 
ATOM      5  C   UNL     1      49.707   7.017  15.008  0.00  0.00    +0.000 A 
ATOM      6  C   UNL     1      48.982   6.992  13.810  0.00  0.00    +0.000 A 
ENDROOT
BRANCH   1   7
ATOM      7  C   UNL     1      47.167   7.907  12.284  0.00  0.00    +0.000 C 
BRANCH   7   8
ATOM      8  N   UNL     1      45.736   7.792  12.549  0.00  0.00    +0.000 NA
ATOM      9  H   UNL     1      45.583   7.126  13.304  0.00  0.00    +0.000 HD
BRANCH   8  10
ATOM     10  C   UNL     1      44.977   7.335  11.388  0.00  0.00    +0.000 C 
BRANCH  10  15
ATOM     11  C   UNL     1      45.175   3.673  12.474  0.00  0.00    +0.000 A 
ATOM     12  C   UNL     1      43.938   3.195  12.042  0.00  0.00    +0.000 A 
ATOM     13  C   UNL     1      43.066   4.034  11.347  0.00  0.00    +0.000 A 
ATOM     14  C   UNL     1      43.418   5.360  11.099  0.00  0.00    +0.000 A 
ATOM     15  C   UNL     1      44.646   5.868  11.550  0.00  0.00    +0.000 A 
ATOM     16  C   UNL     1      45.527   5.002  12.215  0.00  0.00    +0.000 A 
BRANCH  11  18
ATOM     17  C   UNL     1      47.058   3.709  13.919  0.00  0.00    +0.000 C 
ATOM     18  O   UNL     1      46.113   2.958  13.168  0.00  0.00    +0.000 OA
ENDBRANCH  11  18
ENDBRANCH  10  15
ENDBRANCH   8  10
ENDBRANCH   7   8
ENDBRANCH   1   7
BRANCH   4  19
ATOM     19  C   UNL     1      50.233   8.014  17.270  0.00  0.00    +0.000 C 
BRANCH  19  20
ATOM     20  N   UNL     1      51.003   6.809  17.440  0.00  0.00    +0.000 N 
ATOM     21  C   UNL     1      51.169   6.235  18.674  0.00  0.00    +0.000 C 
ATOM     22  O   UNL     1      50.655   6.699  19.687  0.00  0.00    +0.000 OA
ATOM     23  H   UNL     1      51.618   6.545  16.677  0.00  0.00    +0.000 HD
BRANCH  21  24
ATOM     24  C   UNL     1      51.947   4.991  18.709  0.00  0.00    +0.000 A 
ATOM     25  C   UNL     1      53.183   4.964  19.342  0.00  0.00    +0.000 A 
ATOM     26  S   UNL     1      53.910   3.422  19.350  0.00  0.00    +0.000 S 
ATOM     27  C   UNL     1      52.628   2.753  18.452  0.00  0.00    +0.000 A 
ATOM     28  N   UNL     1      52.641   1.439  18.091  0.00  0.00    +0.000 NA
ATOM     29  C   UNL     1      51.623   1.073  17.388  0.00  0.00    +0.000 A 
ATOM     30  N   UNL     1      50.595   1.898  17.017  0.00  0.00    +0.000 N 
ATOM     31  C   UNL     1      50.523   3.218  17.388  0.00  0.00    +0.000 A 
ATOM     32  O   UNL     1      49.561   3.915  17.081  0.00  0.00    +0.000 OA
ATOM     33  C   UNL     1      51.650   3.686  18.168  0.00  0.00    +0.000 A 
ATOM     34  H   UNL     1      49.819   1.549  16.470  0.00  0.00    +0.000 HD
ENDBRANCH  21  24
ENDBRANCH  19  20
ENDBRANCH   4  19
TORSDOF 8
ENDMDL
MODEL 9
REMARK VINA RESULT:    -5.887      2.363      2.942
REMARK INTER + INTRA:          -9.845
REMARK INTER:                  -9.427
REMARK INTRA:                  -0.417
REMARK UNBOUND:                -1.204
REMARK  Name = 
REMARK  9 active torsions:
REMARK  status: ('A' for Active; 'I' for Inactive)
REMARK    1  A    between atoms: C_1  and  O_2
REMARK    2  A    between atoms: O_2  and  C_3
REMARK    3  A    between atoms: C_7  and  C_8
REMARK    4  A    between atoms: C_8  and  N_9
REMARK    5  A    between atoms: N_9  and  C_10
REMARK    6  A    between atoms: C_10  and  C_11
REMARK    7  A    between atoms: C_14  and  C_15
REMARK    8  A    between atoms: C_15  and  N_16
REMARK    9  A    between atoms: C_17  and  C_19
REMARK                            x       y       z     vdW  Elec       q    Type
REMARK                         _______ _______ _______ _____ _____    ______ ____
ROOT
ATOM      1  C   UNL     1      44.639   5.587  11.441  0.00  0.00    +0.000 A 
ATOM      2  C   UNL     1      44.223   6.540  12.385  0.00  0.00    +0.000 A 
ATOM      3  C   UNL     1      45.089   7.544  12.826  0.00  0.00    +0.000 A 
ATOM      4  C   UNL     1      46.398   7.614  12.340  0.00  0.00    +0.000 A 
ATOM      5  C   UNL     1      46.832   6.640  11.429  0.00  0.00    +0.000 A 
ATOM      6  C   UNL     1      45.960   5.643  10.977  0.00  0.00    +0.000 A 
ENDROOT
BRANCH   1   7
ATOM      7  C   UNL     1      43.681   4.516  10.955  0.00  0.00    +0.000 C 
BRANCH   7   8
ATOM      8  N   UNL     1      44.345   3.611  10.022  0.00  0.00    +0.000 NA
ATOM      9  H   UNL     1      45.172   3.214  10.464  0.00  0.00    +0.000 HD
BRANCH   8  10
ATOM     10  C   UNL     1      44.768   4.271   8.791  0.00  0.00    +0.000 C 
BRANCH  10  15
ATOM     11  C   UNL     1      46.584   1.119   7.609  0.00  0.00    +0.000 A 
ATOM     12  C   UNL     1      47.219   1.586   6.459  0.00  0.00    +0.000 A 
ATOM     13  C   UNL     1      47.113   2.930   6.097  0.00  0.00    +0.000 A 
ATOM     14  C   UNL     1      46.356   3.807   6.872  0.00  0.00    +0.000 A 
ATOM     15  C   UNL     1      45.686   3.350   8.018  0.00  0.00    +0.000 A 
ATOM     16  C   UNL     1      45.832   2.005   8.388  0.00  0.00    +0.000 A 
BRANCH  11  18
ATOM     17  C   UNL     1      46.595  -1.196   7.081  0.00  0.00    +0.000 C 
ATOM     18  O   UNL     1      46.603  -0.171   8.067  0.00  0.00    +0.000 OA
ENDBRANCH  11  18
ENDBRANCH  10  15
ENDBRANCH   8  10
ENDBRANCH   7   8
ENDBRANCH   1   7
BRANCH   4  19
ATOM     19  C   UNL     1      47.336   8.698  12.807  0.00  0.00    +0.000 C 
BRANCH  19  20
ATOM     20  N   UNL     1      48.530   8.142  13.388  0.00  0.00    +0.000 N 
ATOM     21  C   UNL     1      49.396   8.915  14.118  0.00  0.00    +0.000 C 
ATOM     22  O   UNL     1      49.189  10.105  14.335  0.00  0.00    +0.000 OA
ATOM     23  H   UNL     1      48.838   7.242  13.033  0.00  0.00    +0.000 HD
BRANCH  21  24
ATOM     24  C   UNL     1      50.560   8.223  14.685  0.00  0.00    +0.000 A 
ATOM     25  C   UNL     1      51.841   8.587  14.294  0.00  0.00    +0.000 A 
ATOM     26  S   UNL     1      53.071   7.730  15.107  0.00  0.00    +0.000 S 
ATOM     27  C   UNL     1      51.931   6.798  15.962  0.00  0.00    +0.000 A 
ATOM     28  N   UNL     1      52.334   5.834  16.836  0.00  0.00    +0.000 NA
ATOM     29  C   UNL     1      51.367   5.185  17.391  0.00  0.00    +0.000 A 
ATOM     30  N   UNL     1      50.038   5.414  17.154  0.00  0.00    +0.000 N 
ATOM     31  C   UNL     1      49.586   6.398  16.311  0.00  0.00    +0.000 A 
ATOM     32  O   UNL     1      48.387   6.611  16.162  0.00  0.00    +0.000 OA
ATOM     33  C   UNL     1      50.633   7.149  15.648  0.00  0.00    +0.000 A 
ATOM     34  H   UNL     1      49.325   4.875  17.628  0.00  0.00    +0.000 HD
ENDBRANCH  21  24
ENDBRANCH  19  20
ENDBRANCH   4  19
TORSDOF 8
ENDMDL
